MODEL 1
REMARK VINA RESULT: -7.951811102      0.000      0.000
REMARK  3 active torsions:
REMARK  status: ('A' for Active; 'I' for Inactive)
REMARK    1  A    between atoms: C2_2  and  C5_5 
REMARK    2  A    between atoms: C9_9  and  N1_10 
REMARK       I    between atoms: N1_10  and  C10_12 
REMARK    3  A    between atoms: C10_12  and  C11_14 
ROOT
HETATM    1  C5  UNL     1     -34.761   5.423  21.882  1.00  0.00     0.018 A 
HETATM    2  C6  UNL     1     -34.502   6.807  21.954  1.00  0.00     0.039 A 
HETATM    3  C7  UNL     1     -35.584   7.508  21.507  1.00  0.00    -0.004 A 
HETATM    4  C8  UNL     1     -35.875   8.858  21.293  1.00  0.00     0.043 A 
HETATM    5  C9  UNL     1     -37.059   9.288  20.754  1.00  0.00     0.037 A 
HETATM    6  C17 UNL     1     -37.988   8.304  20.429  1.00  0.00     0.055 A 
HETATM    7  C18 UNL     1     -37.727   6.962  20.628  1.00  0.00     0.063 A 
HETATM    8 CL2  UNL     1     -38.943   5.771  20.189  1.00  0.00    -0.082 Cl
HETATM    9  C19 UNL     1     -36.529   6.549  21.160  1.00  0.00     0.065 A 
HETATM   10  N2  UNL     1     -35.986   5.323  21.402  1.00  0.00    -0.357 N 
ATOM     11  H2  UNL     1     -36.466   4.439  21.234  1.00  0.00     0.166 HD
ENDROOT
BRANCH   5  12
HETATM   12  N1  UNL     1     -37.269  10.640  20.322  1.00  0.00    -0.323 N 
HETATM   13  C10 UNL     1     -37.451  11.016  18.984  1.00  0.00     0.256 C 
HETATM   14  O1  UNL     1     -37.532  10.229  18.048  1.00  0.00    -0.267 OA
ATOM     15  H1  UNL     1     -37.288  11.372  21.031  1.00  0.00     0.169 HD
BRANCH  13  16
HETATM   16  C11 UNL     1     -37.515  12.477  18.712  1.00  0.00     0.035 A 
HETATM   17  C12 UNL     1     -37.776  13.003  17.491  1.00  0.00     0.041 A 
HETATM   18  C13 UNL     1     -38.029  14.363  17.288  1.00  0.00     0.036 A 
HETATM   19 CL1  UNL     1     -38.415  15.026  15.700  1.00  0.00    -0.084 Cl
HETATM   20  C14 UNL     1     -38.003  15.187  18.374  1.00  0.00     0.043 A 
HETATM   21  C15 UNL     1     -37.733  14.685  19.644  1.00  0.00     0.013 A 
HETATM   22 BR1  UNL     1     -37.679  15.840  21.154  1.00  0.00    -0.051 Br
HETATM   23  C16 UNL     1     -37.484  13.306  19.812  1.00  0.00     0.036 A 
ENDBRANCH  13  16
ENDBRANCH   5  12
BRANCH   1  24
HETATM   24  C2  UNL     1     -33.775   4.362  22.193  1.00  0.00    -0.009 C 
HETATM   25  C1  UNL     1     -34.550   3.245  22.898  1.00  0.00     0.021 C 
HETATM   26  C3  UNL     1     -33.297   3.759  20.878  1.00  0.00     0.021 C 
HETATM   27  C4  UNL     1     -32.639   4.783  23.053  1.00  0.00     0.021 C 
ENDBRANCH   1  24
TORSDOF 3
ENDMDL
MODEL 2
REMARK VINA RESULT: -7.434571197      1.954      2.642
REMARK  3 active torsions:
REMARK  status: ('A' for Active; 'I' for Inactive)
REMARK    1  A    between atoms: C2_2  and  C5_5 
REMARK    2  A    between atoms: C9_9  and  N1_10 
REMARK       I    between atoms: N1_10  and  C10_12 
REMARK    3  A    between atoms: C10_12  and  C11_14 
ROOT
HETATM    1  C5  UNL     1     -37.151   5.091  21.693  1.00  0.00     0.018 A 
HETATM    2  C6  UNL     1     -37.697   5.976  20.743  1.00  0.00     0.039 A 
HETATM    3  C7  UNL     1     -37.140   7.215  20.885  1.00  0.00    -0.004 A 
HETATM    4  C8  UNL     1     -37.329   8.464  20.288  1.00  0.00     0.043 A 
HETATM    5  C9  UNL     1     -36.657   9.589  20.687  1.00  0.00     0.037 A 
HETATM    6  C17 UNL     1     -35.746   9.433  21.729  1.00  0.00     0.055 A 
HETATM    7  C18 UNL     1     -35.540   8.210  22.338  1.00  0.00     0.063 A 
HETATM    8 CL2  UNL     1     -34.379   8.084  23.652  1.00  0.00    -0.082 Cl
HETATM    9  C19 UNL     1     -36.233   7.094  21.931  1.00  0.00     0.065 A 
HETATM   10  N2  UNL     1     -36.280   5.808  22.378  1.00  0.00    -0.357 N 
ATOM     11  H2  UNL     1     -35.713   5.445  23.144  1.00  0.00     0.166 HD
ENDROOT
BRANCH   5  12
HETATM   12  N1  UNL     1     -37.012  10.905  20.241  1.00  0.00    -0.323 N 
HETATM   13  C10 UNL     1     -37.336  11.223  18.915  1.00  0.00     0.256 C 
HETATM   14  O1  UNL     1     -37.431  10.403  18.010  1.00  0.00    -0.267 OA
ATOM     15  H1  UNL     1     -37.029  11.656  20.931  1.00  0.00     0.169 HD
BRANCH  13  16
HETATM   16  C11 UNL     1     -37.540  12.666  18.613  1.00  0.00     0.035 A 
HETATM   17  C12 UNL     1     -37.819  13.141  17.376  1.00  0.00     0.041 A 
HETATM   18  C13 UNL     1     -38.203  14.465  17.141  1.00  0.00     0.036 A 
HETATM   19 CL1  UNL     1     -38.611  15.059  15.530  1.00  0.00    -0.084 Cl
HETATM   20  C14 UNL     1     -38.291  15.306  18.210  1.00  0.00     0.043 A 
HETATM   21  C15 UNL     1     -38.007  14.855  19.497  1.00  0.00     0.013 A 
HETATM   22 BR1  UNL     1     -38.113  16.034  20.984  1.00  0.00    -0.051 Br
HETATM   23  C16 UNL     1     -37.624  13.512  19.697  1.00  0.00     0.036 A 
ENDBRANCH  13  16
ENDBRANCH   5  12
BRANCH   1  24
HETATM   24  C2  UNL     1     -37.591   3.690  21.894  1.00  0.00    -0.009 C 
HETATM   25  C1  UNL     1     -36.331   2.824  21.808  1.00  0.00     0.021 C 
HETATM   26  C3  UNL     1     -38.083   3.550  23.330  1.00  0.00     0.021 C 
HETATM   27  C4  UNL     1     -38.592   3.193  20.916  1.00  0.00     0.021 C 
ENDBRANCH   1  24
TORSDOF 3
ENDMDL
MODEL 3
REMARK VINA RESULT: -7.332870502      2.468      3.236
REMARK  3 active torsions:
REMARK  status: ('A' for Active; 'I' for Inactive)
REMARK    1  A    between atoms: C2_2  and  C5_5 
REMARK    2  A    between atoms: C9_9  and  N1_10 
REMARK       I    between atoms: N1_10  and  C10_12 
REMARK    3  A    between atoms: C10_12  and  C11_14 
ROOT
HETATM    1  C5  UNL     1     -37.288   4.819  21.524  1.00  0.00     0.018 A 
HETATM    2  C6  UNL     1     -38.030   5.746  20.765  1.00  0.00     0.039 A 
HETATM    3  C7  UNL     1     -37.417   6.966  20.789  1.00  0.00    -0.004 A 
HETATM    4  C8  UNL     1     -37.712   8.237  20.290  1.00  0.00     0.043 A 
HETATM    5  C9  UNL     1     -36.925   9.332  20.529  1.00  0.00     0.037 A 
HETATM    6  C17 UNL     1     -35.785   9.122  21.300  1.00  0.00     0.055 A 
HETATM    7  C18 UNL     1     -35.469   7.877  21.808  1.00  0.00     0.063 A 
HETATM    8 CL2  UNL     1     -34.017   7.682  22.779  1.00  0.00    -0.082 Cl
HETATM    9  C19 UNL     1     -36.277   6.791  21.566  1.00  0.00     0.065 A 
HETATM   10  N2  UNL     1     -36.250   5.493  21.980  1.00  0.00    -0.357 N 
ATOM     11  H2  UNL     1     -35.518   5.093  22.568  1.00  0.00     0.166 HD
ENDROOT
BRANCH   5  12
HETATM   12  N1  UNL     1     -37.340  10.669  20.219  1.00  0.00    -0.323 N 
HETATM   13  C10 UNL     1     -37.456  11.173  18.916  1.00  0.00     0.256 C 
HETATM   14  O1  UNL     1     -37.296  10.507  17.900  1.00  0.00    -0.267 OA
ATOM     15  H1  UNL     1     -37.565  11.293  20.994  1.00  0.00     0.169 HD
BRANCH  13  16
HETATM   16  C11 UNL     1     -37.764  12.623  18.794  1.00  0.00     0.035 A 
HETATM   17  C12 UNL     1     -37.661  13.501  19.819  1.00  0.00     0.041 A 
HETATM   18  C13 UNL     1     -37.760  14.885  19.647  1.00  0.00     0.036 A 
HETATM   19 CL1  UNL     1     -37.574  16.021  20.984  1.00  0.00    -0.084 Cl
HETATM   20  C14 UNL     1     -37.977  15.359  18.387  1.00  0.00     0.043 A 
HETATM   21  C15 UNL     1     -38.094  14.487  17.308  1.00  0.00     0.013 A 
HETATM   22 BR1  UNL     1     -38.415  15.149  15.555  1.00  0.00    -0.051 Br
HETATM   23  C16 UNL     1     -37.987  13.096  17.519  1.00  0.00     0.036 A 
ENDBRANCH  13  16
ENDBRANCH   5  12
BRANCH   1  24
HETATM   24  C2  UNL     1     -37.707   3.424  21.798  1.00  0.00    -0.009 C 
HETATM   25  C1  UNL     1     -36.451   2.559  21.653  1.00  0.00     0.021 C 
HETATM   26  C3  UNL     1     -38.100   3.328  23.267  1.00  0.00     0.021 C 
HETATM   27  C4  UNL     1     -38.769   2.893  20.906  1.00  0.00     0.021 C 
ENDBRANCH   1  24
TORSDOF 3
ENDMDL
MODEL 4
REMARK VINA RESULT: -7.120903308      1.615      1.874
REMARK  3 active torsions:
REMARK  status: ('A' for Active; 'I' for Inactive)
REMARK    1  A    between atoms: C2_2  and  C5_5 
REMARK    2  A    between atoms: C9_9  and  N1_10 
REMARK       I    between atoms: N1_10  and  C10_12 
REMARK    3  A    between atoms: C10_12  and  C11_14 
ROOT
HETATM    1  C5  UNL     1     -34.525   5.223  21.806  1.00  0.00     0.018 A 
HETATM    2  C6  UNL     1     -34.356   6.616  21.937  1.00  0.00     0.039 A 
HETATM    3  C7  UNL     1     -35.487   7.264  21.531  1.00  0.00    -0.004 A 
HETATM    4  C8  UNL     1     -35.868   8.600  21.379  1.00  0.00     0.043 A 
HETATM    5  C9  UNL     1     -37.083   8.974  20.870  1.00  0.00     0.037 A 
HETATM    6  C17 UNL     1     -37.950   7.946  20.510  1.00  0.00     0.055 A 
HETATM    7  C18 UNL     1     -37.600   6.617  20.647  1.00  0.00     0.063 A 
HETATM    8 CL2  UNL     1     -38.741   5.369  20.167  1.00  0.00    -0.082 Cl
HETATM    9  C19 UNL     1     -36.371   6.260  21.150  1.00  0.00     0.065 A 
HETATM   10  N2  UNL     1     -35.746   5.063  21.333  1.00  0.00    -0.357 N 
ATOM     11  H2  UNL     1     -36.170   4.158  21.130  1.00  0.00     0.166 HD
ENDROOT
BRANCH   5  12
HETATM   12  N1  UNL     1     -37.386  10.326  20.500  1.00  0.00    -0.323 N 
HETATM   13  C10 UNL     1     -37.463  10.778  19.175  1.00  0.00     0.256 C 
HETATM   14  O1  UNL     1     -37.361  10.057  18.190  1.00  0.00    -0.267 OA
ATOM     15  H1  UNL     1     -37.557  11.000  21.246  1.00  0.00     0.169 HD
BRANCH  13  16
HETATM   16  C11 UNL     1     -37.650  12.242  18.987  1.00  0.00     0.035 A 
HETATM   17  C12 UNL     1     -37.498  13.151  19.979  1.00  0.00     0.041 A 
HETATM   18  C13 UNL     1     -37.481  14.530  19.750  1.00  0.00     0.036 A 
HETATM   19 CL1  UNL     1     -37.232  15.703  21.045  1.00  0.00    -0.084 Cl
HETATM   20  C14 UNL     1     -37.631  14.967  18.467  1.00  0.00     0.043 A 
HETATM   21  C15 UNL     1     -37.796  14.063  17.421  1.00  0.00     0.013 A 
HETATM   22 BR1  UNL     1     -38.024  14.675  15.635  1.00  0.00    -0.051 Br
HETATM   23  C16 UNL     1     -37.806  12.678  17.690  1.00  0.00     0.036 A 
ENDBRANCH  13  16
ENDBRANCH   5  12
BRANCH   1  24
HETATM   24  C2  UNL     1     -33.469   4.216  22.061  1.00  0.00    -0.009 C 
HETATM   25  C1  UNL     1     -34.168   3.003  22.682  1.00  0.00     0.021 C 
HETATM   26  C3  UNL     1     -32.937   3.735  20.716  1.00  0.00     0.021 C 
HETATM   27  C4  UNL     1     -32.373   4.659  22.961  1.00  0.00     0.021 C 
ENDBRANCH   1  24
TORSDOF 3
ENDMDL
MODEL 5
REMARK VINA RESULT: -7.050947281      1.524      1.866
REMARK  3 active torsions:
REMARK  status: ('A' for Active; 'I' for Inactive)
REMARK    1  A    between atoms: C2_2  and  C5_5 
REMARK    2  A    between atoms: C9_9  and  N1_10 
REMARK       I    between atoms: N1_10  and  C10_12 
REMARK    3  A    between atoms: C10_12  and  C11_14 
ROOT
HETATM    1  C5  UNL     1     -35.531   4.241  20.888  1.00  0.00     0.018 A 
HETATM    2  C6  UNL     1     -35.094   5.382  20.185  1.00  0.00     0.039 A 
HETATM    3  C7  UNL     1     -35.698   6.499  20.687  1.00  0.00    -0.004 A 
HETATM    4  C8  UNL     1     -35.704   7.858  20.360  1.00  0.00     0.043 A 
HETATM    5  C9  UNL     1     -36.480   8.777  21.014  1.00  0.00     0.037 A 
HETATM    6  C17 UNL     1     -37.275   8.295  22.050  1.00  0.00     0.055 A 
HETATM    7  C18 UNL     1     -37.290   6.958  22.394  1.00  0.00     0.063 A 
HETATM    8 CL2  UNL     1     -38.322   6.415  23.710  1.00  0.00    -0.082 Cl
HETATM    9  C19 UNL     1     -36.512   6.047  21.719  1.00  0.00     0.065 A 
HETATM   10  N2  UNL     1     -36.376   4.694  21.796  1.00  0.00    -0.357 N 
ATOM     11  H2  UNL     1     -36.865   4.104  22.469  1.00  0.00     0.166 HD
ENDROOT
BRANCH   5  12
HETATM   12  N1  UNL     1     -36.664  10.117  20.538  1.00  0.00    -0.323 N 
HETATM   13  C10 UNL     1     -37.474  10.458  19.445  1.00  0.00     0.256 C 
HETATM   14  O1  UNL     1     -38.175   9.664  18.829  1.00  0.00    -0.267 OA
ATOM     15  H1  UNL     1     -36.177  10.870  21.024  1.00  0.00     0.169 HD
BRANCH  13  16
HETATM   16  C11 UNL     1     -37.432  11.880  19.010  1.00  0.00     0.035 A 
HETATM   17  C12 UNL     1     -37.544  12.273  17.719  1.00  0.00     0.041 A 
HETATM   18  C13 UNL     1     -37.702  13.611  17.344  1.00  0.00     0.036 A 
HETATM   19 CL1  UNL     1     -37.896  14.105  15.661  1.00  0.00    -0.084 Cl
HETATM   20  C14 UNL     1     -37.737  14.552  18.329  1.00  0.00     0.043 A 
HETATM   21  C15 UNL     1     -37.619  14.187  19.668  1.00  0.00     0.013 A 
HETATM   22 BR1  UNL     1     -37.649  15.503  21.040  1.00  0.00    -0.051 Br
HETATM   23  C16 UNL     1     -37.463  12.827  20.010  1.00  0.00     0.036 A 
ENDBRANCH  13  16
ENDBRANCH   5  12
BRANCH   1  24
HETATM   24  C2  UNL     1     -35.159   2.847  20.552  1.00  0.00    -0.009 C 
HETATM   25  C1  UNL     1     -35.392   2.687  19.048  1.00  0.00     0.021 C 
HETATM   26  C3  UNL     1     -33.655   2.698  20.749  1.00  0.00     0.021 C 
HETATM   27  C4  UNL     1     -35.917   1.796  21.277  1.00  0.00     0.021 C 
ENDBRANCH   1  24
TORSDOF 3
ENDMDL
