MODEL 1
REMARK VINA RESULT: -9.265418198      0.000      0.000
REMARK  2 active torsions:
REMARK  status: ('A' for Active; 'I' for Inactive)
REMARK    1  A    between atoms: C2_2  and  C3_3 
REMARK    2  A    between atoms: C14_21  and  C15_22 
ROOT
HETATM    1  C3  UNL     1     -35.204   5.574  22.414  1.00  0.00    -0.030 A 
HETATM    2  C4  UNL     1     -35.017   6.951  22.287  1.00  0.00     0.028 A 
HETATM    3  C5  UNL     1     -35.860   7.639  21.449  1.00  0.00     0.060 A 
HETATM    4  C6  UNL     1     -35.736   9.007  21.274  1.00  0.00     0.198 A 
HETATM    5  O1  UNL     1     -34.828   9.610  21.900  1.00  0.00    -0.286 OA
HETATM    6  C7  UNL     1     -36.607   9.639  20.428  1.00  0.00     0.043 A 
HETATM    7  C8  UNL     1     -36.501  11.009  20.239  1.00  0.00     0.043 A 
HETATM    8  C9  UNL     1     -37.371  11.658  19.390  1.00  0.00     0.056 A 
HETATM    9 CL1  UNL     1     -37.222  13.382  19.165  1.00  0.00    -0.083 Cl
HETATM   10  C10 UNL     1     -38.356  10.978  18.715  1.00  0.00     0.058 A 
HETATM   11 CL2  UNL     1     -39.442  11.870  17.641  1.00  0.00    -0.082 Cl
HETATM   12  C11 UNL     1     -38.484   9.624  18.884  1.00  0.00     0.056 A 
HETATM   13  C12 UNL     1     -37.599   8.968  19.745  1.00  0.00     0.049 A 
HETATM   14  N1  UNL     1     -37.689   7.654  19.937  1.00  0.00    -0.341 N 
ATOM     15  H1  UNL     1     -38.414   7.135  19.443  1.00  0.00     0.167 HD
HETATM   16  C13 UNL     1     -36.853   6.979  20.763  1.00  0.00     0.120 A 
HETATM   17  N2  UNL     1     -37.029   5.647  20.892  1.00  0.00    -0.340 N 
ATOM     18  H2  UNL     1     -37.771   5.173  20.377  1.00  0.00     0.167 HD
HETATM   19  C14 UNL     1     -36.200   4.939  21.721  1.00  0.00     0.053 A 
ENDROOT
BRANCH  19  20
HETATM   20  C15 UNL     1     -36.406   3.511  21.894  1.00  0.00     0.026 A 
HETATM   21  C16 UNL     1     -37.342   2.882  22.685  1.00  0.00     0.019 A 
HETATM   22  C17 UNL     1     -38.378   3.517  23.580  1.00  0.00     0.069 C 
HETATM   23  N3  UNL     1     -37.200   1.561  22.527  1.00  0.00    -0.358 N 
HETATM   24  C18 UNL     1     -36.195   1.274  21.649  1.00  0.00     0.043 A 
ATOM     25  H3  UNL     1     -37.769   0.860  23.001  1.00  0.00     0.166 HD
HETATM   26  C19 UNL     1     -35.695   0.088  21.169  1.00  0.00     0.033 A 
HETATM   27  C23 UNL     1     -35.704   2.520  21.256  1.00  0.00     0.008 A 
HETATM   28  C20 UNL     1     -34.664   0.080  20.261  1.00  0.00     0.044 A 
HETATM   29  C21 UNL     1     -34.147   1.285  19.844  1.00  0.00     0.117 A 
HETATM   30  F1  UNL     1     -33.124   1.271  18.943  1.00  0.00    -0.206 F 
HETATM   31  C22 UNL     1     -34.654   2.468  20.330  1.00  0.00     0.057 A 
ENDBRANCH  19  20
BRANCH   1  32
HETATM   32  C2  UNL     1     -34.278   4.879  23.306  1.00  0.00     0.036 C 
HETATM   33  C1  UNL     1     -32.899   4.788  22.696  1.00  0.00     0.010 C 
ENDBRANCH   1  32
TORSDOF 2
ENDMDL
MODEL 2
REMARK VINA RESULT: -6.856754469      2.225      3.038
REMARK  2 active torsions:
REMARK  status: ('A' for Active; 'I' for Inactive)
REMARK    1  A    between atoms: C2_2  and  C3_3 
REMARK    2  A    between atoms: C14_21  and  C15_22 
ROOT
HETATM    1  C3  UNL     1     -37.169   5.152  20.716  1.00  0.00    -0.030 A 
HETATM    2  C4  UNL     1     -38.068   6.068  20.167  1.00  0.00     0.028 A 
HETATM    3  C5  UNL     1     -37.649   7.366  20.013  1.00  0.00     0.060 A 
HETATM    4  C6  UNL     1     -38.485   8.330  19.474  1.00  0.00     0.198 A 
HETATM    5  O1  UNL     1     -39.645   7.989  19.127  1.00  0.00    -0.286 OA
HETATM    6  C7  UNL     1     -38.011   9.607  19.343  1.00  0.00     0.043 A 
HETATM    7  C8  UNL     1     -38.831  10.587  18.804  1.00  0.00     0.043 A 
HETATM    8  C9  UNL     1     -38.367  11.876  18.667  1.00  0.00     0.056 A 
HETATM    9 CL1  UNL     1     -39.414  13.096  17.987  1.00  0.00    -0.083 Cl
HETATM   10  C10 UNL     1     -37.095  12.226  19.053  1.00  0.00     0.058 A 
HETATM   11 CL2  UNL     1     -36.559  13.900  18.849  1.00  0.00    -0.082 Cl
HETATM   12  C11 UNL     1     -36.263  11.278  19.588  1.00  0.00     0.056 A 
HETATM   13  C12 UNL     1     -36.738   9.970  19.726  1.00  0.00     0.049 A 
HETATM   14  N1  UNL     1     -35.962   9.019  20.242  1.00  0.00    -0.341 N 
ATOM     15  H1  UNL     1     -35.015   9.263  20.534  1.00  0.00     0.167 HD
HETATM   16  C13 UNL     1     -36.380   7.739  20.393  1.00  0.00     0.120 A 
HETATM   17  N2  UNL     1     -35.516   6.848  20.923  1.00  0.00    -0.340 N 
ATOM     18  H2  UNL     1     -34.579   7.141  21.198  1.00  0.00     0.167 HD
HETATM   19  C14 UNL     1     -35.912   5.546  21.086  1.00  0.00     0.053 A 
ENDROOT
BRANCH  19  20
HETATM   20  C15 UNL     1     -34.974   4.573  21.621  1.00  0.00     0.026 A 
HETATM   21  C16 UNL     1     -34.927   4.059  22.897  1.00  0.00     0.019 A 
HETATM   22  C17 UNL     1     -35.829   4.384  24.062  1.00  0.00     0.069 C 
HETATM   23  N3  UNL     1     -33.925   3.174  22.953  1.00  0.00    -0.358 N 
HETATM   24  C18 UNL     1     -33.290   3.071  21.748  1.00  0.00     0.043 A 
ATOM     25  H3  UNL     1     -33.669   2.645  23.786  1.00  0.00     0.166 HD
HETATM   26  C19 UNL     1     -32.234   2.305  21.320  1.00  0.00     0.033 A 
HETATM   27  C23 UNL     1     -33.968   3.963  20.916  1.00  0.00     0.008 A 
HETATM   28  C20 UNL     1     -31.791   2.387  20.023  1.00  0.00     0.044 A 
HETATM   29  C21 UNL     1     -32.428   3.253  19.164  1.00  0.00     0.117 A 
HETATM   30  F1  UNL     1     -31.984   3.331  17.878  1.00  0.00    -0.206 F 
HETATM   31  C22 UNL     1     -33.485   4.018  19.601  1.00  0.00     0.057 A 
ENDBRANCH  19  20
BRANCH   1  32
HETATM   32  C2  UNL     1     -37.660   3.785  20.873  1.00  0.00     0.036 C 
HETATM   33  C1  UNL     1     -37.429   2.975  19.619  1.00  0.00     0.010 C 
ENDBRANCH   1  32
TORSDOF 2
ENDMDL
MODEL 3
REMARK VINA RESULT: -6.775515987      0.965      1.118
REMARK  2 active torsions:
REMARK  status: ('A' for Active; 'I' for Inactive)
REMARK    1  A    between atoms: C2_2  and  C3_3 
REMARK    2  A    between atoms: C14_21  and  C15_22 
ROOT
HETATM    1  C3  UNL     1     -36.006   5.310  22.446  1.00  0.00    -0.030 A 
HETATM    2  C4  UNL     1     -35.919   6.695  22.592  1.00  0.00     0.028 A 
HETATM    3  C5  UNL     1     -36.438   7.480  21.592  1.00  0.00     0.060 A 
HETATM    4  C6  UNL     1     -36.390   8.862  21.668  1.00  0.00     0.198 A 
HETATM    5  O1  UNL     1     -35.856   9.387  22.678  1.00  0.00    -0.286 OA
HETATM    6  C7  UNL     1     -36.927   9.592  20.642  1.00  0.00     0.043 A 
HETATM    7  C8  UNL     1     -36.889  10.977  20.699  1.00  0.00     0.043 A 
HETATM    8  C9  UNL     1     -37.425  11.724  19.673  1.00  0.00     0.056 A 
HETATM    9 CL1  UNL     1     -37.370  13.466  19.762  1.00  0.00    -0.083 Cl
HETATM   10  C10 UNL     1     -38.005  11.128  18.578  1.00  0.00     0.058 A 
HETATM   11 CL2  UNL     1     -38.676  12.144  17.294  1.00  0.00    -0.082 Cl
HETATM   12  C11 UNL     1     -38.055   9.762  18.496  1.00  0.00     0.056 A 
HETATM   13  C12 UNL     1     -37.510   9.006  19.539  1.00  0.00     0.049 A 
HETATM   14  N1  UNL     1     -37.538   7.676  19.499  1.00  0.00    -0.341 N 
ATOM     15  H1  UNL     1     -37.964   7.219  18.692  1.00  0.00     0.167 HD
HETATM   16  C13 UNL     1     -37.023   6.905  20.487  1.00  0.00     0.120 A 
HETATM   17  N2  UNL     1     -37.104   5.565  20.353  1.00  0.00    -0.340 N 
ATOM     18  H2  UNL     1     -37.541   5.155  19.528  1.00  0.00     0.167 HD
HETATM   19  C14 UNL     1     -36.593   4.761  21.338  1.00  0.00     0.053 A 
ENDROOT
BRANCH  19  20
HETATM   20  C15 UNL     1     -36.710   3.318  21.219  1.00  0.00     0.026 A 
HETATM   21  C16 UNL     1     -37.814   2.536  21.473  1.00  0.00     0.019 A 
HETATM   22  C17 UNL     1     -39.175   2.980  21.950  1.00  0.00     0.069 C 
HETATM   23  N3  UNL     1     -37.494   1.264  21.209  1.00  0.00    -0.358 N 
HETATM   24  C18 UNL     1     -36.202   1.159  20.781  1.00  0.00     0.043 A 
ATOM     25  H3  UNL     1     -38.131   0.475  21.315  1.00  0.00     0.166 HD
HETATM   26  C19 UNL     1     -35.439   0.086  20.389  1.00  0.00     0.033 A 
HETATM   27  C23 UNL     1     -35.720   2.469  20.791  1.00  0.00     0.008 A 
HETATM   28  C20 UNL     1     -34.140   0.262  19.982  1.00  0.00     0.044 A 
HETATM   29  C21 UNL     1     -33.621   1.536  19.975  1.00  0.00     0.117 A 
HETATM   30  F1  UNL     1     -32.330   1.706  19.570  1.00  0.00    -0.206 F 
HETATM   31  C22 UNL     1     -34.390   2.606  20.369  1.00  0.00     0.057 A 
ENDBRANCH  19  20
BRANCH   1  32
HETATM   32  C2  UNL     1     -35.431   4.513  23.528  1.00  0.00     0.036 C 
HETATM   33  C1  UNL     1     -36.502   4.016  24.468  1.00  0.00     0.010 C 
ENDBRANCH   1  32
TORSDOF 2
ENDMDL
