MODEL 1
REMARK VINA RESULT: -9.475976353      0.000      0.000
REMARK  10 active torsions:
REMARK  status: ('A' for Active; 'I' for Inactive)
REMARK       I    between atoms: C1_2  and  N2_4 
REMARK    1  A    between atoms: N2_4  and  C2_6 
REMARK    2  A    between atoms: C2_6  and  C3_7 
REMARK    3  A    between atoms: C3_7  and  C4_8 
REMARK    4  A    between atoms: C3_7  and  N5_25 
REMARK    5  A    between atoms: C4_8  and  N3_9 
REMARK       I    between atoms: N3_9  and  C5_11 
REMARK    6  A    between atoms: C5_11  and  C6_13 
REMARK    7  A    between atoms: C6_13  and  N4_14 
REMARK    8  A    between atoms: C6_13  and  C7_18 
REMARK    9  A    between atoms: C7_18  and  C8_19 
REMARK   10  A    between atoms: N5_25  and  C14_27 
ROOT
HETATM    1  C4  UNL     1      72.986  36.013  -0.289  1.00  0.00     0.149 C 
ENDROOT
BRANCH   1   2
HETATM    2  C3  UNL     1      72.407  34.741   0.460  1.00  0.00     0.116 C 
BRANCH   2   3
HETATM    3  C2  UNL     1      73.548  33.794   0.435  1.00  0.00     0.150 C 
BRANCH   3   4
HETATM    4  N2  UNL     1      74.635  34.018   1.341  1.00  0.00    -0.343 N 
HETATM    5  C1  UNL     1      75.974  34.105   0.885  1.00  0.00     0.328 C 
HETATM    6  N1  UNL     1      77.077  34.327   1.750  1.00  0.00    -0.040 NA
HETATM    7  O1  UNL     1      76.210  33.982  -0.338  1.00  0.00    -0.251 OA
ATOM      8  H2  UNL     1      74.441  34.116   2.337  1.00  0.00     0.163 HD
ENDBRANCH   3   4
ENDBRANCH   2   3
BRANCH   2   9
HETATM    9  N5  UNL     1      71.923  35.271   1.643  1.00  0.00    -0.389 N 
ATOM     10  H5  UNL     1      72.632  35.487   2.344  1.00  0.00     0.159 HD
BRANCH   9  11
HETATM   11  C14 UNL     1      70.625  35.549   2.018  1.00  0.00    -0.018 C 
HETATM   12  C15 UNL     1      70.424  36.917   2.655  1.00  0.00     0.052 C 
HETATM   13  C16 UNL     1      69.483  36.812   3.857  1.00  0.00     0.006 C 
HETATM   14  C17 UNL     1      68.317  35.909   3.579  1.00  0.00     0.000 C 
HETATM   15  C18 UNL     1      67.591  36.300   2.335  1.00  0.00     0.000 C 
HETATM   16  C19 UNL     1      68.344  36.079   1.067  1.00  0.00     0.006 C 
HETATM   17  C20 UNL     1      69.476  35.077   1.198  1.00  0.00     0.052 C 
ENDBRANCH   9  11
ENDBRANCH   2   9
ENDBRANCH   1   2
BRANCH   1  18
HETATM   18  N3  UNL     1      71.975  36.607  -1.112  1.00  0.00    -0.357 N 
HETATM   19  C5  UNL     1      72.337  37.581  -2.065  1.00  0.00     0.248 C 
HETATM   20  O2  UNL     1      73.539  37.907  -2.170  1.00  0.00    -0.271 OA
ATOM     21  H3  UNL     1      71.000  36.327  -1.010  1.00  0.00     0.162 HD
BRANCH  19  22
HETATM   22  C6  UNL     1      71.356  38.244  -2.955  1.00  0.00     0.275 C 
BRANCH  22  23
HETATM   23  N4  UNL     1      70.071  38.379  -2.314  1.00  0.00    -0.066 N 
ATOM     24  H43 UNL     1      69.364  38.721  -2.965  1.00  0.00     0.275 HD
ATOM     25  H42 UNL     1      69.663  37.469  -2.099  1.00  0.00     0.275 HD
ATOM     26  H41 UNL     1      70.130  38.968  -1.483  1.00  0.00     0.275 HD
ENDBRANCH  22  23
BRANCH  22  27
HETATM   27  C7  UNL     1      71.320  37.670  -4.327  1.00  0.00     0.047 C 
BRANCH  27  28
HETATM   28  C8  UNL     1      71.150  38.620  -5.454  1.00  0.00    -0.012 C 
HETATM   29  C9  UNL     1      71.952  39.894  -5.344  1.00  0.00     0.005 C 
HETATM   30  C10 UNL     1      71.731  40.721  -6.604  1.00  0.00     0.000 C 
HETATM   31  C11 UNL     1      72.227  39.976  -7.802  1.00  0.00     0.000 C 
HETATM   32  C12 UNL     1      71.390  38.716  -7.920  1.00  0.00     0.000 C 
HETATM   33  C13 UNL     1      71.679  37.889  -6.702  1.00  0.00     0.005 C 
ENDBRANCH  27  28
ENDBRANCH  22  27
ENDBRANCH  19  22
ENDBRANCH   1  18
TORSDOF 10
ENDMDL
MODEL 2
REMARK VINA RESULT: -9.369630180      2.577      3.490
REMARK  10 active torsions:
REMARK  status: ('A' for Active; 'I' for Inactive)
REMARK       I    between atoms: C1_2  and  N2_4 
REMARK    1  A    between atoms: N2_4  and  C2_6 
REMARK    2  A    between atoms: C2_6  and  C3_7 
REMARK    3  A    between atoms: C3_7  and  C4_8 
REMARK    4  A    between atoms: C3_7  and  N5_25 
REMARK    5  A    between atoms: C4_8  and  N3_9 
REMARK       I    between atoms: N3_9  and  C5_11 
REMARK    6  A    between atoms: C5_11  and  C6_13 
REMARK    7  A    between atoms: C6_13  and  N4_14 
REMARK    8  A    between atoms: C6_13  and  C7_18 
REMARK    9  A    between atoms: C7_18  and  C8_19 
REMARK   10  A    between atoms: N5_25  and  C14_27 
ROOT
HETATM    1  C4  UNL     1      72.609  34.101   0.326  1.00  0.00     0.149 C 
ENDROOT
BRANCH   1   2
HETATM    2  C3  UNL     1      71.338  33.407   0.973  1.00  0.00     0.116 C 
BRANCH   2   3
HETATM    3  C2  UNL     1      71.799  32.017   1.200  1.00  0.00     0.150 C 
BRANCH   3   4
HETATM    4  N2  UNL     1      70.910  30.944   0.867  1.00  0.00    -0.343 N 
HETATM    5  C1  UNL     1      71.383  29.745   0.279  1.00  0.00     0.328 C 
HETATM    6  N1  UNL     1      70.536  28.659  -0.064  1.00  0.00    -0.040 NA
HETATM    7  O1  UNL     1      72.608  29.623   0.044  1.00  0.00    -0.251 OA
ATOM      8  H2  UNL     1      69.914  31.046   1.058  1.00  0.00     0.163 HD
ENDBRANCH   3   4
ENDBRANCH   2   3
BRANCH   2   9
HETATM    9  N5  UNL     1      71.023  34.253   2.021  1.00  0.00    -0.389 N 
ATOM     10  H5  UNL     1      71.802  34.494   2.635  1.00  0.00     0.159 HD
BRANCH   9  11
HETATM   11  C14 UNL     1      69.812  34.820   2.362  1.00  0.00    -0.018 C 
HETATM   12  C15 UNL     1      69.891  36.275   2.805  1.00  0.00     0.052 C 
HETATM   13  C16 UNL     1      68.986  36.513   4.016  1.00  0.00     0.006 C 
HETATM   14  C17 UNL     1      67.664  35.817   3.874  1.00  0.00     0.000 C 
HETATM   15  C18 UNL     1      66.983  36.167   2.593  1.00  0.00     0.000 C 
HETATM   16  C19 UNL     1      67.640  35.639   1.363  1.00  0.00     0.006 C 
HETATM   17  C20 UNL     1      68.569  34.468   1.623  1.00  0.00     0.052 C 
ENDBRANCH   9  11
ENDBRANCH   2   9
ENDBRANCH   1   2
BRANCH   1  18
HETATM   18  N3  UNL     1      72.247  35.360  -0.254  1.00  0.00    -0.357 N 
HETATM   19  C5  UNL     1      72.536  36.553   0.438  1.00  0.00     0.248 C 
HETATM   20  O2  UNL     1      73.106  36.485   1.549  1.00  0.00    -0.271 OA
ATOM     21  H3  UNL     1      71.783  35.393  -1.161  1.00  0.00     0.162 HD
BRANCH  19  22
HETATM   22  C6  UNL     1      72.197  37.895  -0.089  1.00  0.00     0.275 C 
BRANCH  22  23
HETATM   23  N4  UNL     1      71.939  38.830   0.978  1.00  0.00    -0.066 N 
ATOM     24  H43 UNL     1      72.795  39.297   1.280  1.00  0.00     0.275 HD
ATOM     25  H42 UNL     1      71.424  39.645   0.645  1.00  0.00     0.275 HD
ATOM     26  H41 UNL     1      71.462  38.380   1.760  1.00  0.00     0.275 HD
ENDBRANCH  22  23
BRANCH  22  27
HETATM   27  C7  UNL     1      71.170  37.865  -1.165  1.00  0.00     0.047 C 
BRANCH  27  28
HETATM   28  C8  UNL     1      71.632  38.126  -2.551  1.00  0.00    -0.012 C 
HETATM   29  C9  UNL     1      70.915  37.341  -3.622  1.00  0.00     0.005 C 
HETATM   30  C10 UNL     1      71.446  37.775  -4.983  1.00  0.00     0.000 C 
HETATM   31  C11 UNL     1      71.154  39.224  -5.211  1.00  0.00     0.000 C 
HETATM   32  C12 UNL     1      71.908  40.001  -4.148  1.00  0.00     0.000 C 
HETATM   33  C13 UNL     1      71.320  39.608  -2.825  1.00  0.00     0.005 C 
ENDBRANCH  27  28
ENDBRANCH  22  27
ENDBRANCH  19  22
ENDBRANCH   1  18
TORSDOF 10
ENDMDL
MODEL 3
REMARK VINA RESULT: -9.337510932      3.338      8.687
REMARK  10 active torsions:
REMARK  status: ('A' for Active; 'I' for Inactive)
REMARK       I    between atoms: C1_2  and  N2_4 
REMARK    1  A    between atoms: N2_4  and  C2_6 
REMARK    2  A    between atoms: C2_6  and  C3_7 
REMARK    3  A    between atoms: C3_7  and  C4_8 
REMARK    4  A    between atoms: C3_7  and  N5_25 
REMARK    5  A    between atoms: C4_8  and  N3_9 
REMARK       I    between atoms: N3_9  and  C5_11 
REMARK    6  A    between atoms: C5_11  and  C6_13 
REMARK    7  A    between atoms: C6_13  and  N4_14 
REMARK    8  A    between atoms: C6_13  and  C7_18 
REMARK    9  A    between atoms: C7_18  and  C8_19 
REMARK   10  A    between atoms: N5_25  and  C14_27 
ROOT
HETATM    1  C4  UNL     1      69.963  36.789   0.772  1.00  0.00     0.149 C 
ENDROOT
BRANCH   1   2
HETATM    2  C3  UNL     1      71.187  35.870   0.360  1.00  0.00     0.116 C 
BRANCH   2   3
HETATM    3  C2  UNL     1      70.931  34.619   1.113  1.00  0.00     0.150 C 
BRANCH   3   4
HETATM    4  N2  UNL     1      70.828  33.393   0.378  1.00  0.00    -0.343 N 
HETATM    5  C1  UNL     1      71.167  32.148   0.962  1.00  0.00     0.328 C 
HETATM    6  N1  UNL     1      71.078  30.913   0.269  1.00  0.00    -0.040 NA
HETATM    7  O1  UNL     1      71.567  32.120   2.149  1.00  0.00    -0.251 OA
ATOM      8  H2  UNL     1      70.504  33.418  -0.589  1.00  0.00     0.163 HD
ENDBRANCH   3   4
ENDBRANCH   2   3
BRANCH   2   9
HETATM    9  N5  UNL     1      71.155  35.910  -1.023  1.00  0.00    -0.389 N 
ATOM     10  H5  UNL     1      71.077  35.002  -1.482  1.00  0.00     0.159 HD
BRANCH   9  11
HETATM   11  C14 UNL     1      71.213  36.994  -1.875  1.00  0.00    -0.018 C 
HETATM   12  C15 UNL     1      72.599  37.602  -2.039  1.00  0.00     0.052 C 
HETATM   13  C16 UNL     1      72.516  39.130  -2.030  1.00  0.00     0.006 C 
HETATM   14  C17 UNL     1      71.349  39.632  -2.830  1.00  0.00     0.000 C 
HETATM   15  C18 UNL     1      71.344  39.083  -4.217  1.00  0.00     0.000 C 
HETATM   16  C19 UNL     1      71.064  37.622  -4.318  1.00  0.00     0.006 C 
HETATM   17  C20 UNL     1      70.367  37.050  -3.098  1.00  0.00     0.052 C 
ENDBRANCH   9  11
ENDBRANCH   2   9
ENDBRANCH   1   2
BRANCH   1  18
HETATM   18  N3  UNL     1      69.375  36.316   1.989  1.00  0.00    -0.357 N 
HETATM   19  C5  UNL     1      68.030  36.624   2.279  1.00  0.00     0.248 C 
HETATM   20  O2  UNL     1      67.377  37.309   1.461  1.00  0.00    -0.271 OA
ATOM     21  H3  UNL     1      69.925  35.760   2.643  1.00  0.00     0.162 HD
BRANCH  19  22
HETATM   22  C6  UNL     1      67.346  36.176   3.513  1.00  0.00     0.275 C 
BRANCH  22  23
HETATM   23  N4  UNL     1      68.289  35.690   4.490  1.00  0.00    -0.066 N 
ATOM     24  H43 UNL     1      69.060  36.346   4.623  1.00  0.00     0.275 HD
ATOM     25  H42 UNL     1      67.897  35.714   5.432  1.00  0.00     0.275 HD
ATOM     26  H41 UNL     1      68.627  34.758   4.250  1.00  0.00     0.275 HD
ENDBRANCH  22  23
BRANCH  22  27
HETATM   27  C7  UNL     1      66.187  35.280   3.255  1.00  0.00     0.047 C 
BRANCH  27  28
HETATM   28  C8  UNL     1      66.019  34.112   4.155  1.00  0.00    -0.012 C 
HETATM   29  C9  UNL     1      65.054  34.319   5.298  1.00  0.00     0.005 C 
HETATM   30  C10 UNL     1      64.933  33.016   6.077  1.00  0.00     0.000 C 
HETATM   31  C11 UNL     1      64.373  31.942   5.200  1.00  0.00     0.000 C 
HETATM   32  C12 UNL     1      65.368  31.722   4.077  1.00  0.00     0.000 C 
HETATM   33  C13 UNL     1      65.416  32.995   3.285  1.00  0.00     0.005 C 
ENDBRANCH  27  28
ENDBRANCH  22  27
ENDBRANCH  19  22
ENDBRANCH   1  18
TORSDOF 10
ENDMDL
MODEL 4
REMARK VINA RESULT: -9.326781067      2.794      8.148
REMARK  10 active torsions:
REMARK  status: ('A' for Active; 'I' for Inactive)
REMARK       I    between atoms: C1_2  and  N2_4 
REMARK    1  A    between atoms: N2_4  and  C2_6 
REMARK    2  A    between atoms: C2_6  and  C3_7 
REMARK    3  A    between atoms: C3_7  and  C4_8 
REMARK    4  A    between atoms: C3_7  and  N5_25 
REMARK    5  A    between atoms: C4_8  and  N3_9 
REMARK       I    between atoms: N3_9  and  C5_11 
REMARK    6  A    between atoms: C5_11  and  C6_13 
REMARK    7  A    between atoms: C6_13  and  N4_14 
REMARK    8  A    between atoms: C6_13  and  C7_18 
REMARK    9  A    between atoms: C7_18  and  C8_19 
REMARK   10  A    between atoms: N5_25  and  C14_27 
ROOT
HETATM    1  C4  UNL     1      71.853  36.851   1.544  1.00  0.00     0.149 C 
ENDROOT
BRANCH   1   2
HETATM    2  C3  UNL     1      72.538  36.017   0.382  1.00  0.00     0.116 C 
BRANCH   2   3
HETATM    3  C2  UNL     1      72.824  34.716   1.032  1.00  0.00     0.150 C 
BRANCH   3   4
HETATM    4  N2  UNL     1      72.394  33.519   0.373  1.00  0.00    -0.343 N 
HETATM    5  C1  UNL     1      71.434  32.655   0.956  1.00  0.00     0.328 C 
HETATM    6  N1  UNL     1      70.980  31.463   0.335  1.00  0.00    -0.040 NA
HETATM    7  O1  UNL     1      70.952  32.947   2.075  1.00  0.00    -0.251 OA
ATOM      8  H2  UNL     1      72.787  33.283  -0.538  1.00  0.00     0.163 HD
ENDBRANCH   3   4
ENDBRANCH   2   3
BRANCH   2   9
HETATM    9  N5  UNL     1      71.632  36.131  -0.658  1.00  0.00    -0.389 N 
ATOM     10  H5  UNL     1      70.954  35.372  -0.728  1.00  0.00     0.159 HD
BRANCH   9  11
HETATM   11  C14 UNL     1      71.509  37.117  -1.615  1.00  0.00    -0.018 C 
HETATM   12  C15 UNL     1      72.818  37.783  -2.017  1.00  0.00     0.052 C 
HETATM   13  C16 UNL     1      72.627  39.295  -2.151  1.00  0.00     0.006 C 
HETATM   14  C17 UNL     1      71.340  39.639  -2.842  1.00  0.00     0.000 C 
HETATM   15  C18 UNL     1      71.206  38.942  -4.154  1.00  0.00     0.000 C 
HETATM   16  C19 UNL     1      71.019  37.465  -4.070  1.00  0.00     0.006 C 
HETATM   17  C20 UNL     1      70.519  36.990  -2.719  1.00  0.00     0.052 C 
ENDBRANCH   9  11
ENDBRANCH   2   9
ENDBRANCH   1   2
BRANCH   1  18
HETATM   18  N3  UNL     1      70.919  36.032   2.258  1.00  0.00    -0.357 N 
HETATM   19  C5  UNL     1      69.537  36.200   2.039  1.00  0.00     0.248 C 
HETATM   20  O2  UNL     1      69.155  37.066   1.221  1.00  0.00    -0.271 OA
ATOM     21  H3  UNL     1      71.252  35.332   2.920  1.00  0.00     0.162 HD
BRANCH  19  22
HETATM   22  C6  UNL     1      68.506  35.396   2.733  1.00  0.00     0.275 C 
BRANCH  22  23
HETATM   23  N4  UNL     1      68.115  34.251   1.949  1.00  0.00    -0.066 N 
ATOM     24  H43 UNL     1      68.102  34.467   0.952  1.00  0.00     0.275 HD
ATOM     25  H42 UNL     1      68.842  33.534   1.947  1.00  0.00     0.275 HD
ATOM     26  H41 UNL     1      67.220  33.874   2.262  1.00  0.00     0.275 HD
ENDBRANCH  22  23
BRANCH  22  27
HETATM   27  C7  UNL     1      67.380  36.211   3.265  1.00  0.00     0.047 C 
BRANCH  27  28
HETATM   28  C8  UNL     1      66.170  35.480   3.718  1.00  0.00    -0.012 C 
HETATM   29  C9  UNL     1      66.270  34.870   5.095  1.00  0.00     0.005 C 
HETATM   30  C10 UNL     1      64.932  34.229   5.444  1.00  0.00     0.000 C 
HETATM   31  C11 UNL     1      63.859  35.269   5.486  1.00  0.00     0.000 C 
HETATM   32  C12 UNL     1      63.747  35.849   4.088  1.00  0.00     0.000 C 
HETATM   33  C13 UNL     1      65.050  36.533   3.799  1.00  0.00     0.005 C 
ENDBRANCH  27  28
ENDBRANCH  22  27
ENDBRANCH  19  22
ENDBRANCH   1  18
TORSDOF 10
ENDMDL
MODEL 5
REMARK VINA RESULT: -9.296052963      3.201      8.526
REMARK  10 active torsions:
REMARK  status: ('A' for Active; 'I' for Inactive)
REMARK       I    between atoms: C1_2  and  N2_4 
REMARK    1  A    between atoms: N2_4  and  C2_6 
REMARK    2  A    between atoms: C2_6  and  C3_7 
REMARK    3  A    between atoms: C3_7  and  C4_8 
REMARK    4  A    between atoms: C3_7  and  N5_25 
REMARK    5  A    between atoms: C4_8  and  N3_9 
REMARK       I    between atoms: N3_9  and  C5_11 
REMARK    6  A    between atoms: C5_11  and  C6_13 
REMARK    7  A    between atoms: C6_13  and  N4_14 
REMARK    8  A    between atoms: C6_13  and  C7_18 
REMARK    9  A    between atoms: C7_18  and  C8_19 
REMARK   10  A    between atoms: N5_25  and  C14_27 
ROOT
HETATM    1  C4  UNL     1      70.290  36.948   0.908  1.00  0.00     0.149 C 
ENDROOT
BRANCH   1   2
HETATM    2  C3  UNL     1      71.318  35.916   0.283  1.00  0.00     0.116 C 
BRANCH   2   3
HETATM    3  C2  UNL     1      71.074  34.685   1.072  1.00  0.00     0.150 C 
BRANCH   3   4
HETATM    4  N2  UNL     1      70.913  33.448   0.367  1.00  0.00    -0.343 N 
HETATM    5  C1  UNL     1      71.200  32.203   0.981  1.00  0.00     0.328 C 
HETATM    6  N1  UNL     1      71.052  30.957   0.318  1.00  0.00    -0.040 NA
HETATM    7  O1  UNL     1      71.605  32.186   2.166  1.00  0.00    -0.251 OA
ATOM      8  H2  UNL     1      70.585  33.464  -0.598  1.00  0.00     0.163 HD
ENDBRANCH   3   4
ENDBRANCH   2   3
BRANCH   2   9
HETATM    9  N5  UNL     1      71.041  35.982  -1.071  1.00  0.00    -0.389 N 
ATOM     10  H5  UNL     1      70.718  35.111  -1.491  1.00  0.00     0.159 HD
BRANCH   9  11
HETATM   11  C14 UNL     1      71.136  37.051  -1.939  1.00  0.00    -0.018 C 
HETATM   12  C15 UNL     1      72.529  37.656  -2.055  1.00  0.00     0.052 C 
HETATM   13  C16 UNL     1      72.446  39.183  -2.076  1.00  0.00     0.006 C 
HETATM   14  C17 UNL     1      71.316  39.672  -2.934  1.00  0.00     0.000 C 
HETATM   15  C18 UNL     1      71.369  39.098  -4.310  1.00  0.00     0.000 C 
HETATM   16  C19 UNL     1      71.092  37.636  -4.397  1.00  0.00     0.006 C 
HETATM   17  C20 UNL     1      70.343  37.086  -3.198  1.00  0.00     0.052 C 
ENDBRANCH   9  11
ENDBRANCH   2   9
ENDBRANCH   1   2
BRANCH   1  18
HETATM   18  N3  UNL     1      69.623  36.364   2.033  1.00  0.00    -0.357 N 
HETATM   19  C5  UNL     1      68.240  36.575   2.210  1.00  0.00     0.248 C 
HETATM   20  O2  UNL     1      67.624  37.273   1.375  1.00  0.00    -0.271 OA
ATOM     21  H3  UNL     1      70.144  35.798   2.703  1.00  0.00     0.162 HD
BRANCH  19  22
HETATM   22  C6  UNL     1      67.475  36.008   3.343  1.00  0.00     0.275 C 
BRANCH  22  23
HETATM   23  N4  UNL     1      68.333  35.717   4.465  1.00  0.00    -0.066 N 
ATOM     24  H43 UNL     1      68.191  34.766   4.807  1.00  0.00     0.275 HD
ATOM     25  H42 UNL     1      69.310  35.638   4.179  1.00  0.00     0.275 HD
ATOM     26  H41 UNL     1      68.217  36.404   5.211  1.00  0.00     0.275 HD
ENDBRANCH  22  23
BRANCH  22  27
HETATM   27  C7  UNL     1      66.559  34.904   2.946  1.00  0.00     0.047 C 
BRANCH  27  28
HETATM   28  C8  UNL     1      65.212  34.884   3.568  1.00  0.00    -0.012 C 
HETATM   29  C9  UNL     1      65.125  34.146   4.881  1.00  0.00     0.005 C 
HETATM   30  C10 UNL     1      63.708  34.282   5.426  1.00  0.00     0.000 C 
HETATM   31  C11 UNL     1      63.397  35.720   5.694  1.00  0.00     0.000 C 
HETATM   32  C12 UNL     1      63.455  36.443   4.361  1.00  0.00     0.000 C 
HETATM   33  C13 UNL     1      64.874  36.353   3.882  1.00  0.00     0.005 C 
ENDBRANCH  27  28
ENDBRANCH  22  27
ENDBRANCH  19  22
ENDBRANCH   1  18
TORSDOF 10
ENDMDL
