MODEL 1
REMARK VINA RESULT: -8.094298914      0.000      0.000
REMARK  13 active torsions:
REMARK  status: ('A' for Active; 'I' for Inactive)
REMARK    1  A    between atoms: C2_2  and  C4_4 
REMARK    2  A    between atoms: C4_4  and  C5_5 
REMARK    3  A    between atoms: C5_5  and  C6_6 
REMARK    4  A    between atoms: C5_5  and  N1_10 
REMARK    5  A    between atoms: C6_6  and  C7_7 
REMARK    6  A    between atoms: N1_10  and  C8_12 
REMARK    7  A    between atoms: C8_12  and  O3_13 
REMARK    8  A    between atoms: C8_12  and  C9_15 
REMARK    9  A    between atoms: C9_15  and  N2_16 
REMARK   10  A    between atoms: C9_15  and  C18_31 
REMARK       I    between atoms: N2_16  and  C10_18 
REMARK   11  A    between atoms: C10_18  and  C11_20 
REMARK   12  A    between atoms: C11_20  and  N3_21 
REMARK   13  A    between atoms: C11_20  and  C12_25 
ROOT
HETATM    1  C9  UNL     1      70.158  36.234   1.620  1.00  0.00     0.162 C 
ENDROOT
BRANCH   1   2
HETATM    2  C8  UNL     1      70.142  34.792   1.593  1.00  0.00     0.135 C 
BRANCH   2   3
HETATM    3  N1  UNL     1      71.002  33.842   2.130  1.00  0.00    -0.368 N 
ATOM      4  H1  UNL     1      70.958  33.673   3.135  1.00  0.00     0.161 HD
BRANCH   3   5
HETATM    5  C5  UNL     1      71.982  33.057   1.336  1.00  0.00     0.093 C 
BRANCH   5   6
HETATM    6  C4  UNL     1      71.255  31.859   0.896  1.00  0.00     0.029 C 
BRANCH   6   7
HETATM    7  C2  UNL     1      71.610  30.523   1.397  1.00  0.00    -0.021 C 
HETATM    8  C1  UNL     1      71.109  29.387   0.511  1.00  0.00     0.009 C 
HETATM    9  C3  UNL     1      73.147  30.419   1.323  1.00  0.00     0.009 C 
ENDBRANCH   6   7
ENDBRANCH   5   6
BRANCH   5  10
HETATM   10  C6  UNL     1      72.628  33.939   0.343  1.00  0.00     0.138 C 
BRANCH  10  11
HETATM   11  C7  UNL     1      73.703  34.832   0.777  1.00  0.00     0.174 C 
HETATM   12  O1  UNL     1      73.801  35.278   1.948  1.00  0.00    -0.648 OA
HETATM   13  O2  UNL     1      74.728  35.278  -0.088  1.00  0.00    -0.648 OA
ENDBRANCH  10  11
ENDBRANCH   5  10
ENDBRANCH   3   5
ENDBRANCH   2   3
BRANCH   2  14
HETATM   14  O3  UNL     1      69.139  34.270   0.951  1.00  0.00    -0.348 OA
ATOM     15  H3  UNL     1      68.414  34.872   0.838  1.00  0.00     0.219 HD
ENDBRANCH   2  14
ENDBRANCH   1   2
BRANCH   1  16
HETATM   16  N2  UNL     1      70.622  36.820   0.399  1.00  0.00    -0.347 N 
HETATM   17  C10 UNL     1      71.612  37.754   0.132  1.00  0.00     0.249 C 
HETATM   18  O4  UNL     1      72.279  38.267   1.066  1.00  0.00    -0.271 OA
ATOM     19  H2  UNL     1      70.131  36.488  -0.431  1.00  0.00     0.163 HD
BRANCH  17  20
HETATM   20  C11 UNL     1      71.967  38.227  -1.239  1.00  0.00     0.278 C 
BRANCH  20  21
HETATM   21  N3  UNL     1      73.052  37.338  -1.706  1.00  0.00    -0.066 N 
ATOM     22  H33 UNL     1      73.839  37.279  -1.059  1.00  0.00     0.275 HD
ATOM     23  H32 UNL     1      72.804  36.348  -1.688  1.00  0.00     0.275 HD
ATOM     24  H31 UNL     1      73.311  37.675  -2.634  1.00  0.00     0.275 HD
ENDBRANCH  20  21
BRANCH  20  25
HETATM   25  C12 UNL     1      70.886  38.076  -2.252  1.00  0.00     0.025 C 
HETATM   26  C13 UNL     1      71.455  37.266  -3.401  1.00  0.00     0.007 C 
HETATM   27  C14 UNL     1      71.056  37.845  -4.739  1.00  0.00     0.000 C 
HETATM   28  C15 UNL     1      71.659  39.245  -4.796  1.00  0.00     0.000 C 
HETATM   29  C16 UNL     1      70.974  40.087  -3.777  1.00  0.00     0.000 C 
HETATM   30  C17 UNL     1      70.215  39.302  -2.734  1.00  0.00     0.007 C 
ENDBRANCH  20  25
ENDBRANCH  17  20
ENDBRANCH   1  16
BRANCH   1  31
HETATM   31  C18 UNL     1      68.943  36.854   2.241  1.00  0.00     0.008 C 
HETATM   32  C19 UNL     1      68.623  36.184   3.589  1.00  0.00     0.012 C 
HETATM   33  C20 UNL     1      69.187  38.324   2.594  1.00  0.00     0.012 C 
ENDBRANCH   1  31
TORSDOF 13
ENDMDL
MODEL 2
REMARK VINA RESULT: -7.848617196      0.633      1.059
REMARK  13 active torsions:
REMARK  status: ('A' for Active; 'I' for Inactive)
REMARK    1  A    between atoms: C2_2  and  C4_4 
REMARK    2  A    between atoms: C4_4  and  C5_5 
REMARK    3  A    between atoms: C5_5  and  C6_6 
REMARK    4  A    between atoms: C5_5  and  N1_10 
REMARK    5  A    between atoms: C6_6  and  C7_7 
REMARK    6  A    between atoms: N1_10  and  C8_12 
REMARK    7  A    between atoms: C8_12  and  O3_13 
REMARK    8  A    between atoms: C8_12  and  C9_15 
REMARK    9  A    between atoms: C9_15  and  N2_16 
REMARK   10  A    between atoms: C9_15  and  C18_31 
REMARK       I    between atoms: N2_16  and  C10_18 
REMARK   11  A    between atoms: C10_18  and  C11_20 
REMARK   12  A    between atoms: C11_20  and  N3_21 
REMARK   13  A    between atoms: C11_20  and  C12_25 
ROOT
HETATM    1  C9  UNL     1      70.301  36.373   1.677  1.00  0.00     0.162 C 
ENDROOT
BRANCH   1   2
HETATM    2  C8  UNL     1      70.495  34.945   1.653  1.00  0.00     0.135 C 
BRANCH   2   3
HETATM    3  N1  UNL     1      71.151  34.110   0.756  1.00  0.00    -0.368 N 
ATOM      4  H1  UNL     1      70.996  34.265  -0.240  1.00  0.00     0.161 HD
BRANCH   3   5
HETATM    5  C5  UNL     1      72.063  33.008   1.154  1.00  0.00     0.093 C 
BRANCH   5   6
HETATM    6  C4  UNL     1      71.460  31.786   0.607  1.00  0.00     0.029 C 
BRANCH   6   7
HETATM    7  C2  UNL     1      71.593  30.493   1.295  1.00  0.00    -0.021 C 
HETATM    8  C1  UNL     1      71.003  29.323   0.512  1.00  0.00     0.009 C 
HETATM    9  C3  UNL     1      73.102  30.186   1.366  1.00  0.00     0.009 C 
ENDBRANCH   6   7
ENDBRANCH   5   6
BRANCH   5  10
HETATM   10  C6  UNL     1      73.452  33.369   0.806  1.00  0.00     0.138 C 
BRANCH  10  11
HETATM   11  C7  UNL     1      73.837  34.782   0.788  1.00  0.00     0.174 C 
HETATM   12  O1  UNL     1      74.205  35.384  -0.252  1.00  0.00    -0.648 OA
HETATM   13  O2  UNL     1      73.832  35.594   1.944  1.00  0.00    -0.648 OA
ENDBRANCH  10  11
ENDBRANCH   5  10
ENDBRANCH   3   5
ENDBRANCH   2   3
BRANCH   2  14
HETATM   14  O3  UNL     1      69.965  34.305   2.653  1.00  0.00    -0.348 OA
ATOM     15  H3  UNL     1      70.080  34.750   3.484  1.00  0.00     0.219 HD
ENDBRANCH   2  14
ENDBRANCH   1   2
BRANCH   1  16
HETATM   16  N2  UNL     1      70.696  37.021   0.463  1.00  0.00    -0.347 N 
HETATM   17  C10 UNL     1      71.621  38.020   0.198  1.00  0.00     0.249 C 
HETATM   18  O4  UNL     1      72.283  38.545   1.130  1.00  0.00    -0.271 OA
ATOM     19  H2  UNL     1      70.203  36.685  -0.364  1.00  0.00     0.163 HD
BRANCH  17  20
HETATM   20  C11 UNL     1      71.910  38.553  -1.166  1.00  0.00     0.278 C 
BRANCH  20  21
HETATM   21  N3  UNL     1      73.077  37.790  -1.661  1.00  0.00    -0.066 N 
ATOM     22  H33 UNL     1      73.795  37.638  -0.952  1.00  0.00     0.275 HD
ATOM     23  H32 UNL     1      72.873  36.806  -1.842  1.00  0.00     0.275 HD
ATOM     24  H31 UNL     1      73.414  38.294  -2.481  1.00  0.00     0.275 HD
ENDBRANCH  20  21
BRANCH  20  25
HETATM   25  C12 UNL     1      70.839  38.308  -2.171  1.00  0.00     0.025 C 
HETATM   26  C13 UNL     1      71.376  37.293  -3.164  1.00  0.00     0.007 C 
HETATM   27  C14 UNL     1      71.038  37.675  -4.586  1.00  0.00     0.000 C 
HETATM   28  C15 UNL     1      71.730  39.010  -4.846  1.00  0.00     0.000 C 
HETATM   29  C16 UNL     1      71.082  40.043  -3.990  1.00  0.00     0.000 C 
HETATM   30  C17 UNL     1      70.257  39.480  -2.858  1.00  0.00     0.007 C 
ENDBRANCH  20  25
ENDBRANCH  17  20
ENDBRANCH   1  16
BRANCH   1  31
HETATM   31  C18 UNL     1      68.999  36.810   2.276  1.00  0.00     0.008 C 
HETATM   32  C19 UNL     1      69.021  38.320   2.574  1.00  0.00     0.012 C 
HETATM   33  C20 UNL     1      67.844  36.633   1.287  1.00  0.00     0.012 C 
ENDBRANCH   1  31
TORSDOF 13
ENDMDL
MODEL 3
REMARK VINA RESULT: -7.832084877      1.595      4.496
REMARK  13 active torsions:
REMARK  status: ('A' for Active; 'I' for Inactive)
REMARK    1  A    between atoms: C2_2  and  C4_4 
REMARK    2  A    between atoms: C4_4  and  C5_5 
REMARK    3  A    between atoms: C5_5  and  C6_6 
REMARK    4  A    between atoms: C5_5  and  N1_10 
REMARK    5  A    between atoms: C6_6  and  C7_7 
REMARK    6  A    between atoms: N1_10  and  C8_12 
REMARK    7  A    between atoms: C8_12  and  O3_13 
REMARK    8  A    between atoms: C8_12  and  C9_15 
REMARK    9  A    between atoms: C9_15  and  N2_16 
REMARK   10  A    between atoms: C9_15  and  C18_31 
REMARK       I    between atoms: N2_16  and  C10_18 
REMARK   11  A    between atoms: C10_18  and  C11_20 
REMARK   12  A    between atoms: C11_20  and  N3_21 
REMARK   13  A    between atoms: C11_20  and  C12_25 
ROOT
HETATM    1  C9  UNL     1      70.929  34.067   0.643  1.00  0.00     0.162 C 
ENDROOT
BRANCH   1   2
HETATM    2  C8  UNL     1      69.879  34.357   1.587  1.00  0.00     0.135 C 
BRANCH   2   3
HETATM    3  N1  UNL     1      69.868  35.085   2.771  1.00  0.00    -0.368 N 
ATOM      4  H1  UNL     1      70.522  34.812   3.504  1.00  0.00     0.161 HD
BRANCH   3   5
HETATM    5  C5  UNL     1      68.965  36.234   3.036  1.00  0.00     0.093 C 
BRANCH   5   6
HETATM    6  C4  UNL     1      68.109  35.808   4.151  1.00  0.00     0.029 C 
BRANCH   6   7
HETATM    7  C2  UNL     1      66.840  35.104   3.915  1.00  0.00    -0.021 C 
HETATM    8  C1  UNL     1      66.277  34.428   5.162  1.00  0.00     0.009 C 
HETATM    9  C3  UNL     1      65.798  36.183   3.559  1.00  0.00     0.009 C 
ENDBRANCH   6   7
ENDBRANCH   5   6
BRANCH   5  10
HETATM   10  C6  UNL     1      69.763  37.471   3.145  1.00  0.00     0.138 C 
BRANCH  10  11
HETATM   11  C7  UNL     1      69.390  38.634   2.338  1.00  0.00     0.174 C 
HETATM   12  O1  UNL     1      68.277  39.210   2.430  1.00  0.00    -0.648 OA
HETATM   13  O2  UNL     1      70.251  39.210   1.377  1.00  0.00    -0.648 OA
ENDBRANCH  10  11
ENDBRANCH   5  10
ENDBRANCH   3   5
ENDBRANCH   2   3
BRANCH   2  14
HETATM   14  O3  UNL     1      68.720  33.852   1.286  1.00  0.00    -0.348 OA
ATOM     15  H3  UNL     1      68.759  33.226   0.572  1.00  0.00     0.219 HD
ENDBRANCH   2  14
ENDBRANCH   1   2
BRANCH   1  16
HETATM   16  N2  UNL     1      71.206  35.151  -0.251  1.00  0.00    -0.347 N 
HETATM   17  C10 UNL     1      71.813  36.383  -0.061  1.00  0.00     0.249 C 
HETATM   18  O4  UNL     1      72.218  36.730   1.079  1.00  0.00    -0.271 OA
ATOM     19  H2  UNL     1      70.897  34.986  -1.209  1.00  0.00     0.163 HD
BRANCH  17  20
HETATM   20  C11 UNL     1      72.034  37.384  -1.146  1.00  0.00     0.278 C 
BRANCH  20  21
HETATM   21  N3  UNL     1      73.350  37.057  -1.737  1.00  0.00    -0.066 N 
ATOM     22  H33 UNL     1      73.845  36.314  -1.243  1.00  0.00     0.275 HD
ATOM     23  H32 UNL     1      73.286  36.584  -2.639  1.00  0.00     0.275 HD
ATOM     24  H31 UNL     1      73.867  37.936  -1.774  1.00  0.00     0.275 HD
ENDBRANCH  20  21
BRANCH  20  25
HETATM   25  C12 UNL     1      71.074  37.296  -2.281  1.00  0.00     0.025 C 
HETATM   26  C13 UNL     1      71.887  37.309  -3.562  1.00  0.00     0.007 C 
HETATM   27  C14 UNL     1      71.267  38.211  -4.604  1.00  0.00     0.000 C 
HETATM   28  C15 UNL     1      71.282  39.618  -4.015  1.00  0.00     0.000 C 
HETATM   29  C16 UNL     1      70.347  39.646  -2.856  1.00  0.00     0.000 C 
HETATM   30  C17 UNL     1      69.972  38.281  -2.330  1.00  0.00     0.007 C 
ENDBRANCH  20  25
ENDBRANCH  17  20
ENDBRANCH   1  16
BRANCH   1  31
HETATM   31  C18 UNL     1      72.116  33.367   1.232  1.00  0.00     0.008 C 
HETATM   32  C19 UNL     1      71.860  31.853   1.323  1.00  0.00     0.012 C 
HETATM   33  C20 UNL     1      73.344  33.493   0.327  1.00  0.00     0.012 C 
ENDBRANCH   1  31
TORSDOF 13
ENDMDL
MODEL 4
REMARK VINA RESULT: -7.790472691      1.413      2.652
REMARK  13 active torsions:
REMARK  status: ('A' for Active; 'I' for Inactive)
REMARK    1  A    between atoms: C2_2  and  C4_4 
REMARK    2  A    between atoms: C4_4  and  C5_5 
REMARK    3  A    between atoms: C5_5  and  C6_6 
REMARK    4  A    between atoms: C5_5  and  N1_10 
REMARK    5  A    between atoms: C6_6  and  C7_7 
REMARK    6  A    between atoms: N1_10  and  C8_12 
REMARK    7  A    between atoms: C8_12  and  O3_13 
REMARK    8  A    between atoms: C8_12  and  C9_15 
REMARK    9  A    between atoms: C9_15  and  N2_16 
REMARK   10  A    between atoms: C9_15  and  C18_31 
REMARK       I    between atoms: N2_16  and  C10_18 
REMARK   11  A    between atoms: C10_18  and  C11_20 
REMARK   12  A    between atoms: C11_20  and  N3_21 
REMARK   13  A    between atoms: C11_20  and  C12_25 
ROOT
HETATM    1  C9  UNL     1      70.291  36.547   1.648  1.00  0.00     0.162 C 
ENDROOT
BRANCH   1   2
HETATM    2  C8  UNL     1      70.487  35.120   1.598  1.00  0.00     0.135 C 
BRANCH   2   3
HETATM    3  N1  UNL     1      71.571  34.318   1.933  1.00  0.00    -0.368 N 
ATOM      4  H1  UNL     1      71.642  33.988   2.896  1.00  0.00     0.161 HD
BRANCH   3   5
HETATM    5  C5  UNL     1      72.634  33.909   0.978  1.00  0.00     0.093 C 
BRANCH   5   6
HETATM    6  C4  UNL     1      73.852  34.589   1.437  1.00  0.00     0.029 C 
BRANCH   6   7
HETATM    7  C2  UNL     1      75.112  33.857   1.626  1.00  0.00    -0.021 C 
HETATM    8  C1  UNL     1      76.119  34.074   0.500  1.00  0.00     0.009 C 
HETATM    9  C3  UNL     1      75.790  34.463   2.871  1.00  0.00     0.009 C 
ENDBRANCH   6   7
ENDBRANCH   5   6
BRANCH   5  10
HETATM   10  C6  UNL     1      72.617  32.441   0.825  1.00  0.00     0.138 C 
BRANCH  10  11
HETATM   11  C7  UNL     1      71.607  31.660   1.542  1.00  0.00     0.174 C 
HETATM   12  O1  UNL     1      71.817  31.115   2.655  1.00  0.00    -0.648 OA
HETATM   13  O2  UNL     1      70.303  31.447   1.041  1.00  0.00    -0.648 OA
ENDBRANCH  10  11
ENDBRANCH   5  10
ENDBRANCH   3   5
ENDBRANCH   2   3
BRANCH   2  14
HETATM   14  O3  UNL     1      69.464  34.444   1.165  1.00  0.00    -0.348 OA
ATOM     15  H3  UNL     1      69.058  34.831   0.399  1.00  0.00     0.219 HD
ENDBRANCH   2  14
ENDBRANCH   1   2
BRANCH   1  16
HETATM   16  N2  UNL     1      70.662  37.214   0.436  1.00  0.00    -0.347 N 
HETATM   17  C10 UNL     1      71.644  38.150   0.151  1.00  0.00     0.249 C 
HETATM   18  O4  UNL     1      72.398  38.585   1.059  1.00  0.00    -0.271 OA
ATOM     19  H2  UNL     1      70.095  36.950  -0.371  1.00  0.00     0.163 HD
BRANCH  17  20
HETATM   20  C11 UNL     1      71.892  38.716  -1.208  1.00  0.00     0.278 C 
BRANCH  20  21
HETATM   21  N3  UNL     1      73.101  38.034  -1.717  1.00  0.00    -0.066 N 
ATOM     22  H33 UNL     1      73.904  38.655  -1.825  1.00  0.00     0.275 HD
ATOM     23  H32 UNL     1      73.527  37.400  -1.041  1.00  0.00     0.275 HD
ATOM     24  H31 UNL     1      72.821  37.576  -2.584  1.00  0.00     0.275 HD
ENDBRANCH  20  21
BRANCH  20  25
HETATM   25  C12 UNL     1      70.833  38.416  -2.212  1.00  0.00     0.025 C 
HETATM   26  C13 UNL     1      71.390  37.365  -3.154  1.00  0.00     0.007 C 
HETATM   27  C14 UNL     1      71.062  37.682  -4.594  1.00  0.00     0.000 C 
HETATM   28  C15 UNL     1      71.742  39.011  -4.906  1.00  0.00     0.000 C 
HETATM   29  C16 UNL     1      71.076  40.074  -4.102  1.00  0.00     0.000 C 
HETATM   30  C17 UNL     1      70.245  39.551  -2.954  1.00  0.00     0.007 C 
ENDBRANCH  20  25
ENDBRANCH  17  20
ENDBRANCH   1  16
BRANCH   1  31
HETATM   31  C18 UNL     1      68.999  36.973   2.277  1.00  0.00     0.008 C 
HETATM   32  C19 UNL     1      68.853  36.357   3.679  1.00  0.00     0.012 C 
HETATM   33  C20 UNL     1      68.970  38.485   2.520  1.00  0.00     0.012 C 
ENDBRANCH   1  31
TORSDOF 13
ENDMDL
MODEL 5
REMARK VINA RESULT: -7.693736902      1.218      1.721
REMARK  13 active torsions:
REMARK  status: ('A' for Active; 'I' for Inactive)
REMARK    1  A    between atoms: C2_2  and  C4_4 
REMARK    2  A    between atoms: C4_4  and  C5_5 
REMARK    3  A    between atoms: C5_5  and  C6_6 
REMARK    4  A    between atoms: C5_5  and  N1_10 
REMARK    5  A    between atoms: C6_6  and  C7_7 
REMARK    6  A    between atoms: N1_10  and  C8_12 
REMARK    7  A    between atoms: C8_12  and  O3_13 
REMARK    8  A    between atoms: C8_12  and  C9_15 
REMARK    9  A    between atoms: C9_15  and  N2_16 
REMARK   10  A    between atoms: C9_15  and  C18_31 
REMARK       I    between atoms: N2_16  and  C10_18 
REMARK   11  A    between atoms: C10_18  and  C11_20 
REMARK   12  A    between atoms: C11_20  and  N3_21 
REMARK   13  A    between atoms: C11_20  and  C12_25 
ROOT
HETATM    1  C9  UNL     1      69.679  35.638   2.620  1.00  0.00     0.162 C 
ENDROOT
BRANCH   1   2
HETATM    2  C8  UNL     1      69.956  34.316   2.114  1.00  0.00     0.135 C 
BRANCH   2   3
HETATM    3  N1  UNL     1      71.040  33.463   2.285  1.00  0.00    -0.368 N 
ATOM      4  H1  UNL     1      71.242  33.132   3.228  1.00  0.00     0.161 HD
BRANCH   3   5
HETATM    5  C5  UNL     1      71.922  33.003   1.182  1.00  0.00     0.093 C 
BRANCH   5   6
HETATM    6  C4  UNL     1      71.288  31.787   0.657  1.00  0.00     0.029 C 
BRANCH   6   7
HETATM    7  C2  UNL     1      71.542  30.471   1.261  1.00  0.00    -0.021 C 
HETATM    8  C1  UNL     1      71.091  29.303   0.388  1.00  0.00     0.009 C 
HETATM    9  C3  UNL     1      73.074  30.316   1.349  1.00  0.00     0.009 C 
ENDBRANCH   6   7
ENDBRANCH   5   6
BRANCH   5  10
HETATM   10  C6  UNL     1      72.214  34.136   0.281  1.00  0.00     0.138 C 
BRANCH  10  11
HETATM   11  C7  UNL     1      73.280  35.073   0.637  1.00  0.00     0.174 C 
HETATM   12  O1  UNL     1      74.281  35.290  -0.091  1.00  0.00    -0.648 OA
HETATM   13  O2  UNL     1      73.280  35.817   1.839  1.00  0.00    -0.648 OA
ENDBRANCH  10  11
ENDBRANCH   5  10
ENDBRANCH   3   5
ENDBRANCH   2   3
BRANCH   2  14
HETATM   14  O3  UNL     1      69.024  33.815   1.359  1.00  0.00    -0.348 OA
ATOM     15  H3  UNL     1      68.158  34.144   1.566  1.00  0.00     0.219 HD
ENDBRANCH   2  14
ENDBRANCH   1   2
BRANCH   1  16
HETATM   16  N2  UNL     1      70.370  36.673   1.912  1.00  0.00    -0.347 N 
HETATM   17  C10 UNL     1      70.208  37.199   0.639  1.00  0.00     0.249 C 
HETATM   18  O4  UNL     1      69.333  36.740  -0.138  1.00  0.00    -0.271 OA
ATOM     19  H2  UNL     1      71.123  37.107   2.447  1.00  0.00     0.163 HD
BRANCH  17  20
HETATM   20  C11 UNL     1      71.029  38.316   0.085  1.00  0.00     0.278 C 
BRANCH  20  21
HETATM   21  N3  UNL     1      72.049  38.618   1.112  1.00  0.00    -0.066 N 
ATOM     22  H33 UNL     1      71.914  39.521   1.568  1.00  0.00     0.275 HD
ATOM     23  H32 UNL     1      71.966  38.043   1.951  1.00  0.00     0.275 HD
ATOM     24  H31 UNL     1      72.952  38.529   0.645  1.00  0.00     0.275 HD
ENDBRANCH  20  21
BRANCH  20  25
HETATM   25  C12 UNL     1      71.808  37.972  -1.137  1.00  0.00     0.025 C 
HETATM   26  C13 UNL     1      72.480  39.244  -1.617  1.00  0.00     0.007 C 
HETATM   27  C14 UNL     1      72.374  39.396  -3.116  1.00  0.00     0.000 C 
HETATM   28  C15 UNL     1      70.886  39.493  -3.434  1.00  0.00     0.000 C 
HETATM   29  C16 UNL     1      70.257  38.179  -3.120  1.00  0.00     0.000 C 
HETATM   30  C17 UNL     1      71.097  37.287  -2.238  1.00  0.00     0.007 C 
ENDBRANCH  20  25
ENDBRANCH  17  20
ENDBRANCH   1  16
BRANCH   1  31
HETATM   31  C18 UNL     1      68.235  35.890   2.933  1.00  0.00     0.008 C 
HETATM   32  C19 UNL     1      67.883  35.346   4.329  1.00  0.00     0.012 C 
HETATM   33  C20 UNL     1      67.938  37.389   3.021  1.00  0.00     0.012 C 
ENDBRANCH   1  31
TORSDOF 13
ENDMDL
