MODEL 1
REMARK VINA RESULT: -5.985823336      0.000      0.000
REMARK  7 active torsions:
REMARK  status: ('A' for Active; 'I' for Inactive)
REMARK    1  A    between atoms: C2_2  and  C3_3 
REMARK    2  A    between atoms: C2_2  and  C6_13 
REMARK    3  A    between atoms: C4_4  and  C5_5 
REMARK    4  A    between atoms: C5_5  and  O1_6 
REMARK    5  A    between atoms: O1_6  and  S1_7 
REMARK    6  A    between atoms: S1_7  and  N1_8 
REMARK    7  A    between atoms: C7_14  and  O4_15 
ROOT
HETATM    1  C6  UNL     1      10.329  27.336  23.623  1.00  0.00     0.053 C 
HETATM    2  C7  UNL     1      11.097  27.544  22.361  1.00  0.00     0.128 C 
HETATM    3  C8  UNL     1      11.186  29.043  22.149  1.00  0.00     0.067 C 
HETATM    4  C9  UNL     1      10.888  29.691  23.470  1.00  0.00     0.157 C 
HETATM    5  O5  UNL     1      11.983  30.319  24.038  1.00  0.00    -0.348 OA
HETATM    6  C10 UNL     1      12.266  29.689  25.228  1.00  0.00     0.158 C 
HETATM    7  C11 UNL     1      13.769  29.556  25.365  1.00  0.00     0.078 C 
HETATM    8  C12 UNL     1      11.773  30.512  26.402  1.00  0.00     0.078 C 
HETATM    9  O6  UNL     1      11.643  28.449  25.205  1.00  0.00    -0.348 OA
HETATM   10  C13 UNL     1      10.500  28.599  24.416  1.00  0.00     0.161 C 
ENDROOT
BRANCH   1  11
HETATM   11  C2  UNL     1       8.878  27.031  23.315  1.00  0.00     0.013 C 
HETATM   12  C1  UNL     1       8.735  26.338  21.971  1.00  0.00     0.015 C 
BRANCH  11  13
HETATM   13  C3  UNL     1       8.249  26.160  24.307  1.00  0.00    -0.024 C 
HETATM   14  C4  UNL     1       7.222  25.408  24.059  1.00  0.00    -0.003 C 
BRANCH  14  15
HETATM   15  C5  UNL     1       6.506  25.278  22.783  1.00  0.00     0.219 C 
BRANCH  15  16
HETATM   16  O1  UNL     1       5.932  24.003  22.720  1.00  0.00    -0.256 OA
BRANCH  16  17
HETATM   17  S1  UNL     1       5.445  23.699  21.132  1.00  0.00     0.355 S 
HETATM   18  O2  UNL     1       3.946  23.770  21.037  1.00  0.00    -0.176 OA
HETATM   19  O3  UNL     1       5.860  22.302  20.703  1.00  0.00    -0.176 OA
BRANCH  17  20
HETATM   20  N1  UNL     1       6.107  24.891  20.059  1.00  0.00    -0.306 N 
ATOM     21  H12 UNL     1       6.420  25.815  20.357  1.00  0.00     0.171 HD
ATOM     22  H11 UNL     1       6.135  24.533  19.105  1.00  0.00     0.171 HD
ENDBRANCH  17  20
ENDBRANCH  16  17
ENDBRANCH  15  16
ENDBRANCH  14  15
ENDBRANCH  11  13
ENDBRANCH   1  11
BRANCH   2  23
HETATM   23  O4  UNL     1      12.383  27.003  22.567  1.00  0.00    -0.395 OA
ATOM     24  H4  UNL     1      12.587  26.471  21.807  1.00  0.00     0.210 HD
ENDBRANCH   2  23
TORSDOF 7
ENDMDL
MODEL 2
REMARK VINA RESULT: -5.894376287      3.325      7.527
REMARK  7 active torsions:
REMARK  status: ('A' for Active; 'I' for Inactive)
REMARK    1  A    between atoms: C2_2  and  C3_3 
REMARK    2  A    between atoms: C2_2  and  C6_13 
REMARK    3  A    between atoms: C4_4  and  C5_5 
REMARK    4  A    between atoms: C5_5  and  O1_6 
REMARK    5  A    between atoms: O1_6  and  S1_7 
REMARK    6  A    between atoms: S1_7  and  N1_8 
REMARK    7  A    between atoms: C7_14  and  O4_15 
ROOT
HETATM    1  C6  UNL     1       6.699  24.258  21.345  1.00  0.00     0.053 C 
HETATM    2  C7  UNL     1       5.376  23.597  21.146  1.00  0.00     0.128 C 
HETATM    3  C8  UNL     1       4.749  24.239  19.924  1.00  0.00     0.067 C 
HETATM    4  C9  UNL     1       5.856  24.915  19.167  1.00  0.00     0.157 C 
HETATM    5  O5  UNL     1       6.145  24.315  17.954  1.00  0.00    -0.348 OA
HETATM    6  C10 UNL     1       7.440  23.851  18.005  1.00  0.00     0.158 C 
HETATM    7  C11 UNL     1       7.497  22.491  17.340  1.00  0.00     0.078 C 
HETATM    8  C12 UNL     1       8.370  24.772  17.241  1.00  0.00     0.078 C 
HETATM    9  O6  UNL     1       7.808  23.783  19.341  1.00  0.00    -0.348 OA
HETATM   10  C13 UNL     1       7.094  24.789  19.997  1.00  0.00     0.161 C 
ENDROOT
BRANCH   1  11
HETATM   11  C2  UNL     1       6.595  25.346  22.394  1.00  0.00     0.013 C 
HETATM   12  C1  UNL     1       5.154  25.561  22.821  1.00  0.00     0.015 C 
BRANCH  11  13
HETATM   13  C3  UNL     1       7.355  25.049  23.608  1.00  0.00    -0.024 C 
HETATM   14  C4  UNL     1       8.205  25.868  24.145  1.00  0.00    -0.003 C 
BRANCH  14  15
HETATM   15  C5  UNL     1       8.567  27.209  23.666  1.00  0.00     0.219 C 
BRANCH  15  16
HETATM   16  O1  UNL     1       9.890  27.475  24.038  1.00  0.00    -0.256 OA
BRANCH  16  17
HETATM   17  S1  UNL     1      10.837  27.596  22.646  1.00  0.00     0.355 S 
HETATM   18  O2  UNL     1      12.220  27.078  22.924  1.00  0.00    -0.176 OA
HETATM   19  O3  UNL     1      10.975  29.047  22.217  1.00  0.00    -0.176 OA
BRANCH  17  20
HETATM   20  N1  UNL     1      10.155  26.642  21.367  1.00  0.00    -0.306 N 
ATOM     21  H12 UNL     1       9.238  26.814  20.953  1.00  0.00     0.171 HD
ATOM     22  H11 UNL     1      10.797  25.897  21.098  1.00  0.00     0.171 HD
ENDBRANCH  17  20
ENDBRANCH  16  17
ENDBRANCH  15  16
ENDBRANCH  14  15
ENDBRANCH  11  13
ENDBRANCH   1  11
BRANCH   2  23
HETATM   23  O4  UNL     1       5.631  22.231  20.906  1.00  0.00    -0.395 OA
ATOM     24  H4  UNL     1       5.071  21.736  21.492  1.00  0.00     0.210 HD
ENDBRANCH   2  23
TORSDOF 7
ENDMDL
MODEL 3
REMARK VINA RESULT: -5.621826648      2.654      4.073
REMARK  7 active torsions:
REMARK  status: ('A' for Active; 'I' for Inactive)
REMARK    1  A    between atoms: C2_2  and  C3_3 
REMARK    2  A    between atoms: C2_2  and  C6_13 
REMARK    3  A    between atoms: C4_4  and  C5_5 
REMARK    4  A    between atoms: C5_5  and  O1_6 
REMARK    5  A    between atoms: O1_6  and  S1_7 
REMARK    6  A    between atoms: S1_7  and  N1_8 
REMARK    7  A    between atoms: C7_14  and  O4_15 
ROOT
HETATM    1  C6  UNL     1       7.446  26.326  23.106  1.00  0.00     0.053 C 
HETATM    2  C7  UNL     1       7.653  25.928  24.529  1.00  0.00     0.128 C 
HETATM    3  C8  UNL     1       9.094  25.470  24.645  1.00  0.00     0.067 C 
HETATM    4  C9  UNL     1       9.826  26.017  23.454  1.00  0.00     0.157 C 
HETATM    5  O5  UNL     1      10.749  26.998  23.773  1.00  0.00    -0.348 OA
HETATM    6  C10 UNL     1      10.357  28.167  23.162  1.00  0.00     0.158 C 
HETATM    7  C11 UNL     1      10.578  29.318  24.123  1.00  0.00     0.078 C 
HETATM    8  C12 UNL     1      11.196  28.436  21.929  1.00  0.00     0.078 C 
HETATM    9  O6  UNL     1       9.018  28.035  22.823  1.00  0.00    -0.348 OA
HETATM   10  C13 UNL     1       8.807  26.675  22.579  1.00  0.00     0.161 C 
ENDROOT
BRANCH   1  11
HETATM   11  C2  UNL     1       6.790  25.202  22.331  1.00  0.00     0.013 C 
HETATM   12  C1  UNL     1       6.163  24.183  23.267  1.00  0.00     0.015 C 
BRANCH  11  13
HETATM   13  C3  UNL     1       5.728  25.661  21.437  1.00  0.00    -0.024 C 
HETATM   14  C4  UNL     1       5.492  25.143  20.272  1.00  0.00    -0.003 C 
BRANCH  14  15
HETATM   15  C5  UNL     1       6.212  24.032  19.634  1.00  0.00     0.219 C 
BRANCH  15  16
HETATM   16  O1  UNL     1       6.228  24.246  18.251  1.00  0.00    -0.256 OA
BRANCH  16  17
HETATM   17  S1  UNL     1       7.747  23.822  17.648  1.00  0.00     0.355 S 
HETATM   18  O2  UNL     1       8.029  24.595  16.390  1.00  0.00    -0.176 OA
HETATM   19  O3  UNL     1       7.788  22.345  17.291  1.00  0.00    -0.176 OA
BRANCH  17  20
HETATM   20  N1  UNL     1       8.983  24.207  18.803  1.00  0.00    -0.306 N 
ATOM     21  H12 UNL     1       9.972  24.299  18.571  1.00  0.00     0.171 HD
ATOM     22  H11 UNL     1       8.577  24.325  19.731  1.00  0.00     0.171 HD
ENDBRANCH  17  20
ENDBRANCH  16  17
ENDBRANCH  15  16
ENDBRANCH  14  15
ENDBRANCH  11  13
ENDBRANCH   1  11
BRANCH   2  23
HETATM   23  O4  UNL     1       7.441  27.081  25.314  1.00  0.00    -0.395 OA
ATOM     24  H4  UNL     1       6.502  27.222  25.353  1.00  0.00     0.210 HD
ENDBRANCH   2  23
TORSDOF 7
ENDMDL
MODEL 4
REMARK VINA RESULT: -5.479857893      1.372      1.420
REMARK  7 active torsions:
REMARK  status: ('A' for Active; 'I' for Inactive)
REMARK    1  A    between atoms: C2_2  and  C3_3 
REMARK    2  A    between atoms: C2_2  and  C6_13 
REMARK    3  A    between atoms: C4_4  and  C5_5 
REMARK    4  A    between atoms: C5_5  and  O1_6 
REMARK    5  A    between atoms: O1_6  and  S1_7 
REMARK    6  A    between atoms: S1_7  and  N1_8 
REMARK    7  A    between atoms: C7_14  and  O4_15 
ROOT
HETATM    1  C6  UNL     1      10.432  27.296  23.640  1.00  0.00     0.053 C 
HETATM    2  C7  UNL     1      11.097  27.603  22.341  1.00  0.00     0.128 C 
HETATM    3  C8  UNL     1      11.122  29.114  22.214  1.00  0.00     0.067 C 
HETATM    4  C9  UNL     1      10.904  29.674  23.589  1.00  0.00     0.157 C 
HETATM    5  O5  UNL     1      12.017  30.307  24.113  1.00  0.00    -0.348 OA
HETATM    6  C10 UNL     1      12.408  29.620  25.240  1.00  0.00     0.158 C 
HETATM    7  C11 UNL     1      13.921  29.533  25.260  1.00  0.00     0.078 C 
HETATM    8  C12 UNL     1      11.978  30.357  26.494  1.00  0.00     0.078 C 
HETATM    9  O6  UNL     1      11.824  28.363  25.188  1.00  0.00    -0.348 OA
HETATM   10  C13 UNL     1      10.621  28.516  24.493  1.00  0.00     0.161 C 
ENDROOT
BRANCH   1  11
HETATM   11  C2  UNL     1       8.972  26.957  23.421  1.00  0.00     0.013 C 
HETATM   12  C1  UNL     1       8.747  26.368  22.039  1.00  0.00     0.015 C 
BRANCH  11  13
HETATM   13  C3  UNL     1       8.455  25.984  24.383  1.00  0.00    -0.024 C 
HETATM   14  C4  UNL     1       7.207  25.642  24.463  1.00  0.00    -0.003 C 
BRANCH  14  15
HETATM   15  C5  UNL     1       6.098  26.138  23.637  1.00  0.00     0.219 C 
BRANCH  15  16
HETATM   16  O1  UNL     1       4.894  25.676  24.181  1.00  0.00    -0.256 OA
BRANCH  16  17
HETATM   17  S1  UNL     1       4.562  24.143  23.557  1.00  0.00     0.355 S 
HETATM   18  O2  UNL     1       3.142  23.762  23.872  1.00  0.00    -0.176 OA
HETATM   19  O3  UNL     1       5.463  23.099  24.195  1.00  0.00    -0.176 OA
BRANCH  17  20
HETATM   20  N1  UNL     1       4.747  24.141  21.832  1.00  0.00    -0.306 N 
ATOM     21  H12 UNL     1       4.539  24.942  21.235  1.00  0.00     0.171 HD
ATOM     22  H11 UNL     1       5.090  23.235  21.513  1.00  0.00     0.171 HD
ENDBRANCH  17  20
ENDBRANCH  16  17
ENDBRANCH  15  16
ENDBRANCH  14  15
ENDBRANCH  11  13
ENDBRANCH   1  11
BRANCH   2  23
HETATM   23  O4  UNL     1      12.412  27.097  22.421  1.00  0.00    -0.395 OA
ATOM     24  H4  UNL     1      12.790  27.169  21.553  1.00  0.00     0.210 HD
ENDBRANCH   2  23
TORSDOF 7
ENDMDL
MODEL 5
REMARK VINA RESULT: -5.319014164      2.796      4.672
REMARK  7 active torsions:
REMARK  status: ('A' for Active; 'I' for Inactive)
REMARK    1  A    between atoms: C2_2  and  C3_3 
REMARK    2  A    between atoms: C2_2  and  C6_13 
REMARK    3  A    between atoms: C4_4  and  C5_5 
REMARK    4  A    between atoms: C5_5  and  O1_6 
REMARK    5  A    between atoms: O1_6  and  S1_7 
REMARK    6  A    between atoms: S1_7  and  N1_8 
REMARK    7  A    between atoms: C7_14  and  O4_15 
ROOT
HETATM    1  C6  UNL     1       6.569  25.670  23.125  1.00  0.00     0.053 C 
HETATM    2  C7  UNL     1       6.607  25.848  24.606  1.00  0.00     0.128 C 
HETATM    3  C8  UNL     1       8.008  25.480  25.052  1.00  0.00     0.067 C 
HETATM    4  C9  UNL     1       8.885  25.535  23.834  1.00  0.00     0.157 C 
HETATM    5  O5  UNL     1       9.803  26.569  23.860  1.00  0.00    -0.348 OA
HETATM    6  C10 UNL     1       9.523  27.414  22.809  1.00  0.00     0.158 C 
HETATM    7  C11 UNL     1       9.682  28.846  23.278  1.00  0.00     0.078 C 
HETATM    8  C12 UNL     1      10.501  27.197  21.671  1.00  0.00     0.078 C 
HETATM    9  O6  UNL     1       8.225  27.152  22.395  1.00  0.00    -0.348 OA
HETATM   10  C13 UNL     1       7.992  25.801  22.664  1.00  0.00     0.161 C 
ENDROOT
BRANCH   1  11
HETATM   11  C2  UNL     1       5.960  24.331  22.767  1.00  0.00     0.013 C 
HETATM   12  C1  UNL     1       5.356  23.658  23.988  1.00  0.00     0.015 C 
BRANCH  11  13
HETATM   13  C3  UNL     1       4.895  24.430  21.771  1.00  0.00    -0.024 C 
HETATM   14  C4  UNL     1       5.078  24.256  20.498  1.00  0.00    -0.003 C 
BRANCH  14  15
HETATM   15  C5  UNL     1       6.341  23.935  19.821  1.00  0.00     0.219 C 
BRANCH  15  16
HETATM   16  O1  UNL     1       6.229  24.289  18.472  1.00  0.00    -0.256 OA
BRANCH  16  17
HETATM   17  S1  UNL     1       7.641  23.837  17.666  1.00  0.00     0.355 S 
HETATM   18  O2  UNL     1       7.777  24.627  16.395  1.00  0.00    -0.176 OA
HETATM   19  O3  UNL     1       7.591  22.367  17.282  1.00  0.00    -0.176 OA
BRANCH  17  20
HETATM   20  N1  UNL     1       9.030  24.164  18.653  1.00  0.00    -0.306 N 
ATOM     21  H12 UNL     1       9.265  23.644  19.498  1.00  0.00     0.171 HD
ATOM     22  H11 UNL     1       9.565  24.942  18.266  1.00  0.00     0.171 HD
ENDBRANCH  17  20
ENDBRANCH  16  17
ENDBRANCH  15  16
ENDBRANCH  14  15
ENDBRANCH  11  13
ENDBRANCH   1  11
BRANCH   2  23
HETATM   23  O4  UNL     1       6.354  27.212  24.864  1.00  0.00    -0.395 OA
ATOM     24  H4  UNL     1       6.375  27.324  25.807  1.00  0.00     0.210 HD
ENDBRANCH   2  23
TORSDOF 7
ENDMDL
