MODEL 1
REMARK VINA RESULT: -6.004990166      0.000      0.000
REMARK  9 active torsions:
REMARK  status: ('A' for Active; 'I' for Inactive)
REMARK    1  A    between atoms: O1_2  and  C2_3 
REMARK    2  A    between atoms: N1_5  and  C4_6 
REMARK    3  A    between atoms: C4_6  and  C5_7 
REMARK    4  A    between atoms: N2_12  and  C10_13 
REMARK    5  A    between atoms: C10_13  and  C11_14 
REMARK    6  A    between atoms: C11_14  and  C12_15 
REMARK    7  A    between atoms: C14_18  and  O3_19 
REMARK    8  A    between atoms: C15_21  and  O4_22 
REMARK    9  A    between atoms: C16_24  and  O5_25 
ROOT
HETATM    1  C10 UNL     1       9.047  27.480  23.658  1.00  0.00     0.122 C 
ENDROOT
BRANCH   1   2
HETATM    2  N2  UNL     1       8.173  26.421  23.331  1.00  0.00    -0.384 N 
HETATM    3  C2  UNL     1       7.708  26.382  21.994  1.00  0.00     0.246 C 
HETATM    4  C3  UNL     1       6.255  25.896  21.914  1.00  0.00     0.325 C 
HETATM    5  N1  UNL     1       6.107  24.639  22.619  1.00  0.00     0.094 N 
HETATM    6  C8  UNL     1       6.614  24.672  23.946  1.00  0.00     0.292 C 
HETATM    7  C9  UNL     1       7.309  25.934  24.340  1.00  0.00     0.149 C 
BRANCH   3   8
HETATM    8  O1  UNL     1       8.488  25.694  21.103  1.00  0.00    -0.370 OA
HETATM    9  C1  UNL     1       7.834  25.195  20.005  1.00  0.00     0.204 C 
ENDBRANCH   3   8
BRANCH   5  10
HETATM   10  C4  UNL     1       4.737  24.217  22.514  1.00  0.00     0.276 C 
BRANCH  10  11
HETATM   11  C5  UNL     1       4.299  23.974  21.094  1.00  0.00     0.006 C 
HETATM   12  C6  UNL     1       2.950  23.269  21.085  1.00  0.00     0.011 C 
HETATM   13  C7  UNL     1       5.284  22.983  20.471  1.00  0.00     0.011 C 
ENDBRANCH  10  11
ENDBRANCH   5  10
ENDBRANCH   1   2
BRANCH   1  14
HETATM   14  C11 UNL     1      10.422  27.084  24.056  1.00  0.00     0.054 C 
BRANCH  14  15
HETATM   15  C12 UNL     1      11.507  27.633  23.189  1.00  0.00     0.154 C 
HETATM   16  O2  UNL     1      12.737  27.414  23.808  1.00  0.00    -0.381 OA
HETATM   17  C13 UNL     1      12.866  28.087  25.000  1.00  0.00     0.202 C 
HETATM   18  C14 UNL     1      12.582  29.551  24.949  1.00  0.00     0.173 C 
HETATM   19  C15 UNL     1      11.311  29.886  24.163  1.00  0.00     0.180 C 
HETATM   20  C16 UNL     1      11.411  29.088  22.878  1.00  0.00     0.178 C 
BRANCH  18  21
HETATM   21  O3  UNL     1      12.465  30.048  26.233  1.00  0.00    -0.391 OA
ATOM     22  H3  UNL     1      12.066  30.910  26.208  1.00  0.00     0.210 HD
ENDBRANCH  18  21
BRANCH  19  23
HETATM   23  O4  UNL     1      11.341  31.232  23.826  1.00  0.00    -0.390 OA
ATOM     24  H4  UNL     1      10.477  31.489  23.527  1.00  0.00     0.210 HD
ENDBRANCH  19  23
BRANCH  20  25
HETATM   25  O5  UNL     1      10.484  29.436  21.928  1.00  0.00    -0.390 OA
ATOM     26  H5  UNL     1      10.521  28.947  21.115  1.00  0.00     0.210 HD
ENDBRANCH  20  25
ENDBRANCH  14  15
ENDBRANCH   1  14
TORSDOF 9
ENDMDL
MODEL 2
REMARK VINA RESULT: -5.721582538      1.622      2.692
REMARK  9 active torsions:
REMARK  status: ('A' for Active; 'I' for Inactive)
REMARK    1  A    between atoms: O1_2  and  C2_3 
REMARK    2  A    between atoms: N1_5  and  C4_6 
REMARK    3  A    between atoms: C4_6  and  C5_7 
REMARK    4  A    between atoms: N2_12  and  C10_13 
REMARK    5  A    between atoms: C10_13  and  C11_14 
REMARK    6  A    between atoms: C11_14  and  C12_15 
REMARK    7  A    between atoms: C14_18  and  O3_19 
REMARK    8  A    between atoms: C15_21  and  O4_22 
REMARK    9  A    between atoms: C16_24  and  O5_25 
ROOT
HETATM    1  C10 UNL     1       8.314  26.038  24.433  1.00  0.00     0.122 C 
ENDROOT
BRANCH   1   2
HETATM    2  N2  UNL     1       7.428  25.777  23.366  1.00  0.00    -0.384 N 
HETATM    3  C2  UNL     1       6.523  24.703  23.551  1.00  0.00     0.246 C 
HETATM    4  C3  UNL     1       6.278  23.938  22.243  1.00  0.00     0.325 C 
HETATM    5  N1  UNL     1       5.888  24.855  21.191  1.00  0.00     0.094 N 
HETATM    6  C8  UNL     1       6.777  25.953  21.039  1.00  0.00     0.292 C 
HETATM    7  C9  UNL     1       7.874  26.039  22.049  1.00  0.00     0.149 C 
BRANCH   3   8
HETATM    8  O1  UNL     1       5.331  25.014  24.148  1.00  0.00    -0.370 OA
HETATM    9  C1  UNL     1       4.307  24.130  23.922  1.00  0.00     0.204 C 
ENDBRANCH   3   8
BRANCH   5  10
HETATM   10  C4  UNL     1       5.662  24.099  19.989  1.00  0.00     0.276 C 
BRANCH  10  11
HETATM   11  C5  UNL     1       6.545  24.522  18.847  1.00  0.00     0.006 C 
HETATM   12  C6  UNL     1       6.026  23.926  17.546  1.00  0.00     0.011 C 
HETATM   13  C7  UNL     1       7.921  23.887  19.068  1.00  0.00     0.011 C 
ENDBRANCH  10  11
ENDBRANCH   5  10
ENDBRANCH   1   2
BRANCH   1  14
HETATM   14  C11 UNL     1       9.214  27.206  24.257  1.00  0.00     0.054 C 
BRANCH  14  15
HETATM   15  C12 UNL     1      10.537  26.889  23.641  1.00  0.00     0.154 C 
HETATM   16  O2  UNL     1      11.546  27.194  24.554  1.00  0.00    -0.381 OA
HETATM   17  C13 UNL     1      11.611  28.532  24.859  1.00  0.00     0.202 C 
HETATM   18  C14 UNL     1      11.696  29.456  23.689  1.00  0.00     0.173 C 
HETATM   19  C15 UNL     1      10.705  29.103  22.575  1.00  0.00     0.180 C 
HETATM   20  C16 UNL     1      10.847  27.608  22.371  1.00  0.00     0.178 C 
BRANCH  18  21
HETATM   21  O3  UNL     1      11.467  30.754  24.104  1.00  0.00    -0.391 OA
ATOM     22  H3  UNL     1      11.555  31.346  23.366  1.00  0.00     0.210 HD
ENDBRANCH  18  21
BRANCH  19  23
HETATM   23  O4  UNL     1      11.114  29.728  21.406  1.00  0.00    -0.390 OA
ATOM     24  H4  UNL     1      11.632  29.113  20.900  1.00  0.00     0.210 HD
ENDBRANCH  19  23
BRANCH  20  25
HETATM   25  O5  UNL     1      10.218  27.133  21.248  1.00  0.00    -0.390 OA
ATOM     26  H5  UNL     1      10.786  26.901  20.523  1.00  0.00     0.210 HD
ENDBRANCH  20  25
ENDBRANCH  14  15
ENDBRANCH   1  14
TORSDOF 9
ENDMDL
MODEL 3
REMARK VINA RESULT: -5.363221661      1.465      2.334
REMARK  9 active torsions:
REMARK  status: ('A' for Active; 'I' for Inactive)
REMARK    1  A    between atoms: O1_2  and  C2_3 
REMARK    2  A    between atoms: N1_5  and  C4_6 
REMARK    3  A    between atoms: C4_6  and  C5_7 
REMARK    4  A    between atoms: N2_12  and  C10_13 
REMARK    5  A    between atoms: C10_13  and  C11_14 
REMARK    6  A    between atoms: C11_14  and  C12_15 
REMARK    7  A    between atoms: C14_18  and  O3_19 
REMARK    8  A    between atoms: C15_21  and  O4_22 
REMARK    9  A    between atoms: C16_24  and  O5_25 
ROOT
HETATM    1  C10 UNL     1       9.012  26.143  24.256  1.00  0.00     0.122 C 
ENDROOT
BRANCH   1   2
HETATM    2  N2  UNL     1       8.038  25.950  23.253  1.00  0.00    -0.384 N 
HETATM    3  C2  UNL     1       6.975  25.070  23.571  1.00  0.00     0.246 C 
HETATM    4  C3  UNL     1       6.534  24.250  22.351  1.00  0.00     0.325 C 
HETATM    5  N1  UNL     1       6.249  25.128  21.234  1.00  0.00     0.094 N 
HETATM    6  C8  UNL     1       7.302  26.037  20.946  1.00  0.00     0.292 C 
HETATM    7  C9  UNL     1       8.450  26.017  21.901  1.00  0.00     0.149 C 
BRANCH   3   8
HETATM    8  O1  UNL     1       5.887  25.633  24.183  1.00  0.00    -0.370 OA
HETATM    9  C1  UNL     1       4.719  24.920  24.088  1.00  0.00     0.204 C 
ENDBRANCH   3   8
BRANCH   5  10
HETATM   10  C4  UNL     1       5.834  24.322  20.118  1.00  0.00     0.276 C 
BRANCH  10  11
HETATM   11  C5  UNL     1       6.603  24.613  18.858  1.00  0.00     0.006 C 
HETATM   12  C6  UNL     1       5.898  23.980  17.667  1.00  0.00     0.011 C 
HETATM   13  C7  UNL     1       7.951  23.895  18.965  1.00  0.00     0.011 C 
ENDBRANCH  10  11
ENDBRANCH   5  10
ENDBRANCH   1   2
BRANCH   1  14
HETATM   14  C11 UNL     1       9.668  27.475  24.273  1.00  0.00     0.054 C 
BRANCH  14  15
HETATM   15  C12 UNL     1      10.777  27.640  23.286  1.00  0.00     0.154 C 
HETATM   16  O2  UNL     1      11.957  27.149  23.844  1.00  0.00    -0.381 OA
HETATM   17  C13 UNL     1      12.364  27.856  24.950  1.00  0.00     0.202 C 
HETATM   18  C14 UNL     1      12.469  29.334  24.769  1.00  0.00     0.173 C 
HETATM   19  C15 UNL     1      11.265  29.934  24.037  1.00  0.00     0.180 C 
HETATM   20  C16 UNL     1      11.038  29.037  22.836  1.00  0.00     0.178 C 
BRANCH  18  21
HETATM   21  O3  UNL     1      12.602  29.945  26.000  1.00  0.00    -0.391 OA
ATOM     22  H3  UNL     1      13.392  30.473  26.013  1.00  0.00     0.210 HD
ENDBRANCH  18  21
BRANCH  19  23
HETATM   23  O4  UNL     1      11.616  31.190  23.564  1.00  0.00    -0.390 OA
ATOM     24  H4  UNL     1      11.203  31.321  22.719  1.00  0.00     0.210 HD
ENDBRANCH  19  23
BRANCH  20  25
HETATM   25  O5  UNL     1      10.153  29.544  21.918  1.00  0.00    -0.390 OA
ATOM     26  H5  UNL     1      10.526  30.112  21.254  1.00  0.00     0.210 HD
ENDBRANCH  20  25
ENDBRANCH  14  15
ENDBRANCH   1  14
TORSDOF 9
ENDMDL
MODEL 4
REMARK VINA RESULT: -5.247648735      1.167      1.984
REMARK  9 active torsions:
REMARK  status: ('A' for Active; 'I' for Inactive)
REMARK    1  A    between atoms: O1_2  and  C2_3 
REMARK    2  A    between atoms: N1_5  and  C4_6 
REMARK    3  A    between atoms: C4_6  and  C5_7 
REMARK    4  A    between atoms: N2_12  and  C10_13 
REMARK    5  A    between atoms: C10_13  and  C11_14 
REMARK    6  A    between atoms: C11_14  and  C12_15 
REMARK    7  A    between atoms: C14_18  and  O3_19 
REMARK    8  A    between atoms: C15_21  and  O4_22 
REMARK    9  A    between atoms: C16_24  and  O5_25 
ROOT
HETATM    1  C10 UNL     1       8.883  27.546  23.930  1.00  0.00     0.122 C 
ENDROOT
BRANCH   1   2
HETATM    2  N2  UNL     1       8.003  26.712  23.209  1.00  0.00    -0.384 N 
HETATM    3  C2  UNL     1       7.208  25.826  23.977  1.00  0.00     0.246 C 
HETATM    4  C3  UNL     1       7.009  24.482  23.263  1.00  0.00     0.325 C 
HETATM    5  N1  UNL     1       6.511  24.696  21.919  1.00  0.00     0.094 N 
HETATM    6  C8  UNL     1       7.288  25.618  21.169  1.00  0.00     0.292 C 
HETATM    7  C9  UNL     1       8.393  26.289  21.916  1.00  0.00     0.149 C 
BRANCH   3   8
HETATM    8  O1  UNL     1       6.005  26.315  24.411  1.00  0.00    -0.370 OA
HETATM    9  C1  UNL     1       4.935  25.469  24.266  1.00  0.00     0.204 C 
ENDBRANCH   3   8
BRANCH   5  10
HETATM   10  C4  UNL     1       6.332  23.415  21.291  1.00  0.00     0.276 C 
BRANCH  10  11
HETATM   11  C5  UNL     1       5.189  23.389  20.313  1.00  0.00     0.006 C 
HETATM   12  C6  UNL     1       5.359  24.506  19.293  1.00  0.00     0.011 C 
HETATM   13  C7  UNL     1       3.912  23.731  21.086  1.00  0.00     0.011 C 
ENDBRANCH  10  11
ENDBRANCH   5  10
ENDBRANCH   1   2
BRANCH   1  14
HETATM   14  C11 UNL     1      10.263  27.030  24.111  1.00  0.00     0.054 C 
BRANCH  14  15
HETATM   15  C12 UNL     1      11.267  27.577  23.150  1.00  0.00     0.154 C 
HETATM   16  O2  UNL     1      12.548  27.290  23.620  1.00  0.00    -0.381 OA
HETATM   17  C13 UNL     1      12.834  27.905  24.815  1.00  0.00     0.202 C 
HETATM   18  C14 UNL     1      12.604  29.379  24.853  1.00  0.00     0.173 C 
HETATM   19  C15 UNL     1      11.268  29.792  24.227  1.00  0.00     0.180 C 
HETATM   20  C16 UNL     1      11.195  29.047  22.908  1.00  0.00     0.178 C 
BRANCH  18  21
HETATM   21  O3  UNL     1      12.648  29.824  26.160  1.00  0.00    -0.391 OA
ATOM     22  H3  UNL     1      13.181  30.609  26.214  1.00  0.00     0.210 HD
ENDBRANCH  18  21
BRANCH  19  23
HETATM   23  O4  UNL     1      11.314  31.149  23.941  1.00  0.00    -0.390 OA
ATOM     24  H4  UNL     1      10.634  31.349  23.309  1.00  0.00     0.210 HD
ENDBRANCH  19  23
BRANCH  20  25
HETATM   25  O5  UNL     1      10.184  29.468  22.082  1.00  0.00    -0.390 OA
ATOM     26  H5  UNL     1      10.332  30.292  21.634  1.00  0.00     0.210 HD
ENDBRANCH  20  25
ENDBRANCH  14  15
ENDBRANCH   1  14
TORSDOF 9
ENDMDL
MODEL 5
REMARK VINA RESULT: -5.210559690      2.535      7.710
REMARK  9 active torsions:
REMARK  status: ('A' for Active; 'I' for Inactive)
REMARK    1  A    between atoms: O1_2  and  C2_3 
REMARK    2  A    between atoms: N1_5  and  C4_6 
REMARK    3  A    between atoms: C4_6  and  C5_7 
REMARK    4  A    between atoms: N2_12  and  C10_13 
REMARK    5  A    between atoms: C10_13  and  C11_14 
REMARK    6  A    between atoms: C11_14  and  C12_15 
REMARK    7  A    between atoms: C14_18  and  O3_19 
REMARK    8  A    between atoms: C15_21  and  O4_22 
REMARK    9  A    between atoms: C16_24  and  O5_25 
ROOT
HETATM    1  C10 UNL     1       9.421  26.261  21.124  1.00  0.00     0.122 C 
ENDROOT
BRANCH   1   2
HETATM    2  N2  UNL     1      10.036  26.893  22.227  1.00  0.00    -0.384 N 
HETATM    3  C2  UNL     1       9.227  27.788  22.968  1.00  0.00     0.246 C 
HETATM    4  C3  UNL     1      10.033  28.993  23.472  1.00  0.00     0.325 C 
HETATM    5  N1  UNL     1      11.212  28.545  24.186  1.00  0.00     0.094 N 
HETATM    6  C8  UNL     1      11.996  27.615  23.453  1.00  0.00     0.292 C 
HETATM    7  C9  UNL     1      11.421  27.172  22.148  1.00  0.00     0.149 C 
BRANCH   3   8
HETATM    8  O1  UNL     1       8.502  27.241  23.992  1.00  0.00    -0.370 OA
HETATM    9  C1  UNL     1       8.983  26.057  24.492  1.00  0.00     0.204 C 
ENDBRANCH   3   8
BRANCH   5  10
HETATM   10  C4  UNL     1      11.932  29.702  24.645  1.00  0.00     0.276 C 
BRANCH  10  11
HETATM   11  C5  UNL     1      12.396  29.583  26.072  1.00  0.00     0.006 C 
HETATM   12  C6  UNL     1      11.973  30.818  26.855  1.00  0.00     0.011 C 
HETATM   13  C7  UNL     1      13.927  29.609  26.061  1.00  0.00     0.011 C 
ENDBRANCH  10  11
ENDBRANCH   5  10
ENDBRANCH   1   2
BRANCH   1  14
HETATM   14  C11 UNL     1       8.255  25.398  21.440  1.00  0.00     0.054 C 
BRANCH  14  15
HETATM   15  C12 UNL     1       6.982  25.795  20.766  1.00  0.00     0.154 C 
HETATM   16  O2  UNL     1       6.155  26.425  21.695  1.00  0.00    -0.381 OA
HETATM   17  C13 UNL     1       5.766  25.596  22.720  1.00  0.00     0.202 C 
HETATM   18  C14 UNL     1       5.158  24.298  22.304  1.00  0.00     0.173 C 
HETATM   19  C15 UNL     1       5.939  23.603  21.184  1.00  0.00     0.180 C 
HETATM   20  C16 UNL     1       6.203  24.681  20.151  1.00  0.00     0.178 C 
BRANCH  18  21
HETATM   21  O3  UNL     1       5.079  23.451  23.393  1.00  0.00    -0.391 OA
ATOM     22  H3  UNL     1       4.781  22.594  23.112  1.00  0.00     0.210 HD
ENDBRANCH  18  21
BRANCH  19  23
HETATM   23  O4  UNL     1       5.117  22.651  20.598  1.00  0.00    -0.390 OA
ATOM     24  H4  UNL     1       5.212  22.710  19.655  1.00  0.00     0.210 HD
ENDBRANCH  19  23
BRANCH  20  25
HETATM   25  O5  UNL     1       6.681  24.207  18.956  1.00  0.00    -0.390 OA
ATOM     26  H5  UNL     1       6.704  23.261  18.866  1.00  0.00     0.210 HD
ENDBRANCH  20  25
ENDBRANCH  14  15
ENDBRANCH   1  14
TORSDOF 9
ENDMDL
