MODEL 1
REMARK VINA RESULT: -5.798391917      0.000      0.000
REMARK  8 active torsions:
REMARK  status: ('A' for Active; 'I' for Inactive)
REMARK    1  A    between atoms: C2_2  and  C3_3 
REMARK    2  A    between atoms: C3_3  and  N1_4 
REMARK    3  A    between atoms: C7_10  and  C8_11 
REMARK    4  A    between atoms: C8_11  and  O2_12 
REMARK    5  A    between atoms: C9_14  and  O3_15 
REMARK    6  A    between atoms: C10_17  and  O4_18 
REMARK    7  A    between atoms: C12_21  and  O5_22 
REMARK    8  A    between atoms: O5_22  and  C13_23 
ROOT
HETATM    1  N1  UNL     1      10.700  27.825  23.835  1.00  0.00    -0.387 N 
HETATM    2  C4  UNL     1      10.200  28.374  22.627  1.00  0.00     0.142 C 
HETATM    3  C5  UNL     1      10.099  27.215  21.623  1.00  0.00     0.145 C 
HETATM    4  N2  UNL     1       9.168  26.322  22.063  1.00  0.00    -0.356 N 
HETATM    5  C6  UNL     1       7.923  26.068  21.718  1.00  0.00     0.158 C 
HETATM    6  O1  UNL     1       7.209  25.312  22.657  1.00  0.00    -0.326 OA
HETATM    7  C7  UNL     1       5.926  25.552  22.911  1.00  0.00     0.186 C 
HETATM    8  C9  UNL     1       4.848  24.593  22.370  1.00  0.00     0.189 C 
HETATM    9  C10 UNL     1       4.991  24.434  20.822  1.00  0.00     0.218 C 
HETATM   10  C11 UNL     1       6.226  24.989  20.428  1.00  0.00    -0.109 C 
HETATM   11  C12 UNL     1       7.535  25.548  20.299  1.00  0.00     0.264 C 
HETATM   12  C15 UNL     1       9.597  25.676  23.273  1.00  0.00     0.169 C 
HETATM   13  C16 UNL     1      10.206  26.596  24.282  1.00  0.00     0.078 C 
ENDROOT
BRANCH  11  14
HETATM   14  O5  UNL     1       8.507  24.682  19.791  1.00  0.00    -0.367 OA
BRANCH  14  15
HETATM   15  C13 UNL     1       8.043  23.773  18.884  1.00  0.00     0.165 C 
HETATM   16  C14 UNL     1       8.279  24.186  17.440  1.00  0.00     0.033 C 
ENDBRANCH  14  15
ENDBRANCH  11  14
BRANCH   7  17
HETATM   17  C8  UNL     1       5.741  25.420  24.440  1.00  0.00     0.199 C 
BRANCH  17  18
HETATM   18  O2  UNL     1       4.400  25.336  24.771  1.00  0.00    -0.398 OA
ATOM     19  H2  UNL     1       4.257  25.589  25.675  1.00  0.00     0.209 HD
ENDBRANCH  17  18
ENDBRANCH   7  17
BRANCH   8  20
HETATM   20  O3  UNL     1       5.043  23.385  23.011  1.00  0.00    -0.389 OA
ATOM     21  H3  UNL     1       5.413  22.795  22.365  1.00  0.00     0.210 HD
ENDBRANCH   8  20
BRANCH   9  22
HETATM   22  O4  UNL     1       4.787  23.041  20.614  1.00  0.00    -0.381 OA
ATOM     23  H4  UNL     1       5.411  22.828  19.931  1.00  0.00     0.211 HD
ENDBRANCH   9  22
BRANCH   1  24
HETATM   24  C3  UNL     1      11.959  28.276  24.284  1.00  0.00     0.148 C 
BRANCH  24  25
HETATM   25  C2  UNL     1      11.979  29.596  24.919  1.00  0.00    -0.018 C 
HETATM   26  C1  UNL     1      12.786  29.826  25.949  1.00  0.00     0.008 C 
ENDBRANCH  24  25
ENDBRANCH   1  24
TORSDOF 8
ENDMDL
MODEL 2
REMARK VINA RESULT: -5.383805324      1.411      3.809
REMARK  8 active torsions:
REMARK  status: ('A' for Active; 'I' for Inactive)
REMARK    1  A    between atoms: C2_2  and  C3_3 
REMARK    2  A    between atoms: C3_3  and  N1_4 
REMARK    3  A    between atoms: C7_10  and  C8_11 
REMARK    4  A    between atoms: C8_11  and  O2_12 
REMARK    5  A    between atoms: C9_14  and  O3_15 
REMARK    6  A    between atoms: C10_17  and  O4_18 
REMARK    7  A    between atoms: C12_21  and  O5_22 
REMARK    8  A    between atoms: O5_22  and  C13_23 
ROOT
HETATM    1  N1  UNL     1      10.616  26.987  23.617  1.00  0.00    -0.387 N 
HETATM    2  C4  UNL     1      10.205  25.835  24.331  1.00  0.00     0.142 C 
HETATM    3  C5  UNL     1       8.693  25.979  24.571  1.00  0.00     0.145 C 
HETATM    4  N2  UNL     1       8.046  25.951  23.372  1.00  0.00    -0.356 N 
HETATM    5  C6  UNL     1       7.350  25.028  22.740  1.00  0.00     0.158 C 
HETATM    6  O1  UNL     1       7.155  25.287  21.377  1.00  0.00    -0.326 OA
HETATM    7  C7  UNL     1       7.185  24.313  20.474  1.00  0.00     0.186 C 
HETATM    8  C9  UNL     1       5.871  23.814  19.844  1.00  0.00     0.189 C 
HETATM    9  C10 UNL     1       4.865  23.380  20.958  1.00  0.00     0.218 C 
HETATM   10  C11 UNL     1       5.352  23.834  22.200  1.00  0.00    -0.109 C 
HETATM   11  C12 UNL     1       6.017  24.448  23.307  1.00  0.00     0.264 C 
HETATM   12  C15 UNL     1       8.367  27.104  22.578  1.00  0.00     0.169 C 
HETATM   13  C16 UNL     1       9.818  27.466  22.574  1.00  0.00     0.078 C 
ENDROOT
BRANCH  11  14
HETATM   14  O5  UNL     1       5.280  25.428  23.977  1.00  0.00    -0.367 OA
BRANCH  14  15
HETATM   15  C13 UNL     1       3.925  25.295  23.871  1.00  0.00     0.165 C 
HETATM   16  C14 UNL     1       3.384  24.055  24.564  1.00  0.00     0.033 C 
ENDBRANCH  14  15
ENDBRANCH  11  14
BRANCH   7  17
HETATM   17  C8  UNL     1       7.947  24.865  19.247  1.00  0.00     0.199 C 
BRANCH  17  18
HETATM   18  O2  UNL     1       9.081  24.115  18.990  1.00  0.00    -0.398 OA
ATOM     19  H2  UNL     1       9.123  23.356  19.560  1.00  0.00     0.209 HD
ENDBRANCH  17  18
ENDBRANCH   7  17
BRANCH   8  20
HETATM   20  O3  UNL     1       5.367  24.869  19.106  1.00  0.00    -0.389 OA
ATOM     21  H3  UNL     1       5.043  25.504  19.734  1.00  0.00     0.210 HD
ENDBRANCH   8  20
BRANCH   9  22
HETATM   22  O4  UNL     1       3.621  23.896  20.498  1.00  0.00    -0.381 OA
ATOM     23  H4  UNL     1       3.294  23.206  19.933  1.00  0.00     0.211 HD
ENDBRANCH   9  22
BRANCH   1  24
HETATM   24  C3  UNL     1      11.528  27.857  24.252  1.00  0.00     0.148 C 
BRANCH  24  25
HETATM   25  C2  UNL     1      11.411  29.275  23.904  1.00  0.00    -0.018 C 
HETATM   26  C1  UNL     1      11.966  30.198  24.681  1.00  0.00     0.008 C 
ENDBRANCH  24  25
ENDBRANCH   1  24
TORSDOF 8
ENDMDL
MODEL 3
REMARK VINA RESULT: -2.727125672      0.996      1.061
REMARK  8 active torsions:
REMARK  status: ('A' for Active; 'I' for Inactive)
REMARK    1  A    between atoms: C2_2  and  C3_3 
REMARK    2  A    between atoms: C3_3  and  N1_4 
REMARK    3  A    between atoms: C7_10  and  C8_11 
REMARK    4  A    between atoms: C8_11  and  O2_12 
REMARK    5  A    between atoms: C9_14  and  O3_15 
REMARK    6  A    between atoms: C10_17  and  O4_18 
REMARK    7  A    between atoms: C12_21  and  O5_22 
REMARK    8  A    between atoms: O5_22  and  C13_23 
ROOT
HETATM    1  N1  UNL     1      11.256  28.051  24.041  1.00  0.00    -0.387 N 
HETATM    2  C4  UNL     1      10.594  28.711  22.975  1.00  0.00     0.142 C 
HETATM    3  C5  UNL     1      10.332  27.650  21.894  1.00  0.00     0.145 C 
HETATM    4  N2  UNL     1       9.462  26.721  22.381  1.00  0.00    -0.356 N 
HETATM    5  C6  UNL     1       8.177  26.501  22.199  1.00  0.00     0.158 C 
HETATM    6  O1  UNL     1       7.595  25.662  23.159  1.00  0.00    -0.326 OA
HETATM    7  C7  UNL     1       6.367  25.878  23.617  1.00  0.00     0.186 C 
HETATM    8  C9  UNL     1       5.208  24.975  23.153  1.00  0.00     0.189 C 
HETATM    9  C10 UNL     1       5.122  24.962  21.593  1.00  0.00     0.218 C 
HETATM   10  C11 UNL     1       6.295  25.549  21.077  1.00  0.00    -0.109 C 
HETATM   11  C12 UNL     1       7.579  26.117  20.810  1.00  0.00     0.264 C 
HETATM   12  C15 UNL     1      10.052  25.965  23.450  1.00  0.00     0.169 C 
HETATM   13  C16 UNL     1      10.814  26.786  24.441  1.00  0.00     0.078 C 
ENDROOT
BRANCH  11  14
HETATM   14  O5  UNL     1       8.454  25.300  20.088  1.00  0.00    -0.367 OA
BRANCH  14  15
HETATM   15  C13 UNL     1       7.869  24.581  19.087  1.00  0.00     0.165 C 
HETATM   16  C14 UNL     1       8.808  23.580  18.433  1.00  0.00     0.033 C 
ENDBRANCH  14  15
ENDBRANCH  11  14
BRANCH   7  17
HETATM   17  C8  UNL     1       6.404  25.605  25.139  1.00  0.00     0.199 C 
BRANCH  17  18
HETATM   18  O2  UNL     1       7.659  25.867  25.658  1.00  0.00    -0.398 OA
ATOM     19  H2  UNL     1       8.064  25.072  25.983  1.00  0.00     0.209 HD
ENDBRANCH  17  18
ENDBRANCH   7  17
BRANCH   8  20
HETATM   20  O3  UNL     1       5.476  23.712  23.646  1.00  0.00    -0.389 OA
ATOM     21  H3  UNL     1       5.977  23.264  22.974  1.00  0.00     0.210 HD
ENDBRANCH   8  20
BRANCH   9  22
HETATM   22  O4  UNL     1       4.870  23.594  21.290  1.00  0.00    -0.381 OA
ATOM     23  H4  UNL     1       4.969  23.557  20.346  1.00  0.00     0.211 HD
ENDBRANCH   9  22
BRANCH   1  24
HETATM   24  C3  UNL     1      12.574  28.457  24.342  1.00  0.00     0.148 C 
BRANCH  24  25
HETATM   25  C2  UNL     1      12.702  29.654  25.175  1.00  0.00    -0.018 C 
HETATM   26  C1  UNL     1      13.672  29.734  26.079  1.00  0.00     0.008 C 
ENDBRANCH  24  25
ENDBRANCH   1  24
TORSDOF 8
ENDMDL
