MODEL 1
REMARK VINA RESULT: -6.724982437      0.000      0.000
REMARK  10 active torsions:
REMARK  status: ('A' for Active; 'I' for Inactive)
REMARK    1  A    between atoms: O1_2  and  C2_3 
REMARK    2  A    between atoms: C5_6  and  O2_7 
REMARK    3  A    between atoms: C6_9  and  N1_10 
REMARK    4  A    between atoms: N1_10  and  C8_12 
REMARK    5  A    between atoms: C8_12  and  O3_13 
REMARK    6  A    between atoms: O3_13  and  C9_14 
REMARK    7  A    between atoms: C9_14  and  C10_15 
REMARK    8  A    between atoms: C10_15  and  O4_16 
REMARK    9  A    between atoms: C15_23  and  C16_24 
REMARK   10  A    between atoms: C16_24  and  O5_25 
ROOT
HETATM    1  C2  UNL     1       6.322  24.783  19.392  1.00  0.00     0.158 C 
HETATM    2  C3  UNL     1       7.771  25.070  19.720  1.00  0.00     0.073 C 
HETATM    3  C4  UNL     1       7.884  25.080  21.228  1.00  0.00     0.256 C 
HETATM    4  C5  UNL     1       8.627  26.328  21.605  1.00  0.00     0.185 C 
HETATM    5  C6  UNL     1       9.146  26.354  23.009  1.00  0.00     0.255 C 
HETATM    6  C11 UNL     1       8.186  26.803  24.037  1.00  0.00     0.038 C 
HETATM    7  C12 UNL     1       6.736  26.620  23.698  1.00  0.00     0.004 C 
HETATM    8  C13 UNL     1       6.286  25.230  24.095  1.00  0.00     0.030 C 
HETATM    9  C14 UNL     1       6.462  24.237  22.937  1.00  0.00     0.273 C 
HETATM   10  N2  UNL     1       6.551  25.003  21.746  1.00  0.00     0.105 N 
HETATM   11  C15 UNL     1       5.628  24.755  20.710  1.00  0.00     0.275 C 
ENDROOT
BRANCH   5  12
HETATM   12  N1  UNL     1      10.369  27.128  23.001  1.00  0.00     0.114 N 
HETATM   13  C7  UNL     1      10.126  28.527  22.705  1.00  0.00     0.313 C 
BRANCH  12  14
HETATM   14  C8  UNL     1      11.090  27.096  24.258  1.00  0.00     0.440 C 
BRANCH  14  15
HETATM   15  O3  UNL     1      12.393  27.448  24.143  1.00  0.00    -0.360 OA
BRANCH  15  16
HETATM   16  C9  UNL     1      12.928  28.302  25.033  1.00  0.00     0.196 C 
BRANCH  16  17
HETATM   17  C10 UNL     1      12.339  29.661  25.180  1.00  0.00     0.190 C 
BRANCH  17  18
HETATM   18  O4  UNL     1      12.412  30.248  26.409  1.00  0.00    -0.399 OA
ATOM     19  H4  UNL     1      11.622  30.652  26.749  1.00  0.00     0.209 HD
ENDBRANCH  17  18
ENDBRANCH  16  17
ENDBRANCH  15  16
ENDBRANCH  14  15
ENDBRANCH  12  14
ENDBRANCH   5  12
BRANCH   4  20
HETATM   20  O2  UNL     1       9.748  26.378  20.744  1.00  0.00    -0.391 OA
ATOM     21  H2  UNL     1       9.826  27.287  20.479  1.00  0.00     0.210 HD
ENDBRANCH   4  20
BRANCH   1  22
HETATM   22  O1  UNL     1       6.299  23.605  18.687  1.00  0.00    -0.388 OA
HETATM   23  C1  UNL     1       7.266  23.617  17.697  1.00  0.00     0.202 C 
ENDBRANCH   1  22
BRANCH  11  24
HETATM   24  C16 UNL     1       4.780  23.539  20.883  1.00  0.00     0.202 C 
BRANCH  24  25
HETATM   25  O5  UNL     1       5.543  22.389  20.696  1.00  0.00    -0.399 OA
ATOM     26  H5  UNL     1       5.301  21.727  21.334  1.00  0.00     0.209 HD
ENDBRANCH  24  25
ENDBRANCH  11  24
TORSDOF 10
ENDMDL
MODEL 2
REMARK VINA RESULT: -5.857905009      1.294      1.640
REMARK  10 active torsions:
REMARK  status: ('A' for Active; 'I' for Inactive)
REMARK    1  A    between atoms: O1_2  and  C2_3 
REMARK    2  A    between atoms: C5_6  and  O2_7 
REMARK    3  A    between atoms: C6_9  and  N1_10 
REMARK    4  A    between atoms: N1_10  and  C8_12 
REMARK    5  A    between atoms: C8_12  and  O3_13 
REMARK    6  A    between atoms: O3_13  and  C9_14 
REMARK    7  A    between atoms: C9_14  and  C10_15 
REMARK    8  A    between atoms: C10_15  and  O4_16 
REMARK    9  A    between atoms: C15_23  and  C16_24 
REMARK   10  A    between atoms: C16_24  and  O5_25 
ROOT
HETATM    1  C2  UNL     1       5.941  24.677  19.542  1.00  0.00     0.158 C 
HETATM    2  C3  UNL     1       7.277  25.048  20.147  1.00  0.00     0.073 C 
HETATM    3  C4  UNL     1       7.138  24.890  21.644  1.00  0.00     0.256 C 
HETATM    4  C5  UNL     1       7.672  26.144  22.271  1.00  0.00     0.185 C 
HETATM    5  C6  UNL     1       7.946  26.048  23.740  1.00  0.00     0.255 C 
HETATM    6  C11 UNL     1       6.788  26.287  24.623  1.00  0.00     0.038 C 
HETATM    7  C12 UNL     1       5.441  26.020  24.018  1.00  0.00     0.004 C 
HETATM    8  C13 UNL     1       5.082  24.559  24.185  1.00  0.00     0.030 C 
HETATM    9  C14 UNL     1       5.551  23.730  22.981  1.00  0.00     0.273 C 
HETATM   10  N2  UNL     1       5.754  24.636  21.909  1.00  0.00     0.105 N 
HETATM   11  C15 UNL     1       5.046  24.434  20.708  1.00  0.00     0.275 C 
ENDROOT
BRANCH   5  12
HETATM   12  N1  UNL     1       9.065  26.922  24.025  1.00  0.00     0.114 N 
HETATM   13  C7  UNL     1      10.334  26.225  23.948  1.00  0.00     0.313 C 
BRANCH  12  14
HETATM   14  C8  UNL     1       9.166  28.055  23.127  1.00  0.00     0.440 C 
BRANCH  14  15
HETATM   15  O3  UNL     1      10.437  28.328  22.743  1.00  0.00    -0.360 OA
BRANCH  15  16
HETATM   16  C9  UNL     1      10.900  29.587  22.839  1.00  0.00     0.196 C 
BRANCH  16  17
HETATM   17  C10 UNL     1      11.574  30.018  24.094  1.00  0.00     0.190 C 
BRANCH  17  18
HETATM   18  O4  UNL     1      12.138  29.048  24.870  1.00  0.00    -0.399 OA
ATOM     19  H4  UNL     1      11.766  28.175  24.817  1.00  0.00     0.209 HD
ENDBRANCH  17  18
ENDBRANCH  16  17
ENDBRANCH  15  16
ENDBRANCH  14  15
ENDBRANCH  12  14
ENDBRANCH   5  12
BRANCH   4  20
HETATM   20  O2  UNL     1       8.909  26.393  21.630  1.00  0.00    -0.391 OA
ATOM     21  H2  UNL     1       8.729  27.061  20.979  1.00  0.00     0.210 HD
ENDBRANCH   4  20
BRANCH   1  22
HETATM   22  O1  UNL     1       6.160  23.594  18.727  1.00  0.00    -0.388 OA
HETATM   23  C1  UNL     1       7.161  23.872  17.813  1.00  0.00     0.202 C 
ENDBRANCH   1  22
BRANCH  11  24
HETATM   24  C16 UNL     1       4.314  23.136  20.604  1.00  0.00     0.202 C 
BRANCH  24  25
HETATM   25  O5  UNL     1       2.969  23.316  20.920  1.00  0.00    -0.399 OA
ATOM     26  H5  UNL     1       2.451  22.601  20.569  1.00  0.00     0.209 HD
ENDBRANCH  24  25
ENDBRANCH  11  24
TORSDOF 10
ENDMDL
MODEL 3
REMARK VINA RESULT: -5.221861619      1.595      3.206
REMARK  10 active torsions:
REMARK  status: ('A' for Active; 'I' for Inactive)
REMARK    1  A    between atoms: O1_2  and  C2_3 
REMARK    2  A    between atoms: C5_6  and  O2_7 
REMARK    3  A    between atoms: C6_9  and  N1_10 
REMARK    4  A    between atoms: N1_10  and  C8_12 
REMARK    5  A    between atoms: C8_12  and  O3_13 
REMARK    6  A    between atoms: O3_13  and  C9_14 
REMARK    7  A    between atoms: C9_14  and  C10_15 
REMARK    8  A    between atoms: C10_15  and  O4_16 
REMARK    9  A    between atoms: C15_23  and  C16_24 
REMARK   10  A    between atoms: C16_24  and  O5_25 
ROOT
HETATM    1  C2  UNL     1       5.664  23.791  23.442  1.00  0.00     0.158 C 
HETATM    2  C3  UNL     1       6.327  25.033  23.997  1.00  0.00     0.073 C 
HETATM    3  C4  UNL     1       7.009  25.720  22.836  1.00  0.00     0.256 C 
HETATM    4  C5  UNL     1       8.411  26.031  23.270  1.00  0.00     0.185 C 
HETATM    5  C6  UNL     1       9.137  27.013  22.404  1.00  0.00     0.255 C 
HETATM    6  C11 UNL     1       9.801  26.446  21.214  1.00  0.00     0.038 C 
HETATM    7  C12 UNL     1       9.224  25.160  20.697  1.00  0.00     0.004 C 
HETATM    8  C13 UNL     1       8.086  25.454  19.743  1.00  0.00     0.030 C 
HETATM    9  C14 UNL     1       6.742  25.512  20.482  1.00  0.00     0.273 C 
HETATM   10  N2  UNL     1       6.918  24.832  21.715  1.00  0.00     0.105 N 
HETATM   11  C15 UNL     1       6.081  23.739  22.012  1.00  0.00     0.275 C 
ENDROOT
BRANCH   5  12
HETATM   12  N1  UNL     1      10.044  27.751  23.259  1.00  0.00     0.114 N 
HETATM   13  C7  UNL     1      11.406  27.268  23.154  1.00  0.00     0.313 C 
BRANCH  12  14
HETATM   14  C8  UNL     1      10.091  29.171  22.973  1.00  0.00     0.440 C 
BRANCH  14  15
HETATM   15  O3  UNL     1      11.334  29.701  23.073  1.00  0.00    -0.360 OA
BRANCH  15  16
HETATM   16  C9  UNL     1      11.647  30.452  24.144  1.00  0.00     0.196 C 
BRANCH  16  17
HETATM   17  C10 UNL     1      12.338  29.816  25.299  1.00  0.00     0.190 C 
BRANCH  17  18
HETATM   18  O4  UNL     1      12.236  30.434  26.511  1.00  0.00    -0.399 OA
ATOM     19  H4  UNL     1      13.034  30.543  27.015  1.00  0.00     0.209 HD
ENDBRANCH  17  18
ENDBRANCH  16  17
ENDBRANCH  15  16
ENDBRANCH  14  15
ENDBRANCH  12  14
ENDBRANCH   5  12
BRANCH   4  20
HETATM   20  O2  UNL     1       8.290  26.615  24.554  1.00  0.00    -0.391 OA
ATOM     21  H2  UNL     1       7.408  26.965  24.593  1.00  0.00     0.210 HD
ENDBRANCH   4  20
BRANCH   1  22
HETATM   22  O1  UNL     1       4.315  23.929  23.659  1.00  0.00    -0.388 OA
HETATM   23  C1  UNL     1       4.067  25.017  24.477  1.00  0.00     0.202 C 
ENDBRANCH   1  22
BRANCH  11  24
HETATM   24  C16 UNL     1       4.926  23.544  21.087  1.00  0.00     0.202 C 
BRANCH  24  25
HETATM   25  O5  UNL     1       5.264  22.646  20.078  1.00  0.00    -0.399 OA
ATOM     26  H5  UNL     1       5.817  23.070  19.431  1.00  0.00     0.209 HD
ENDBRANCH  24  25
ENDBRANCH  11  24
TORSDOF 10
ENDMDL
MODEL 4
REMARK VINA RESULT: -3.850106541      2.030      3.607
REMARK  10 active torsions:
REMARK  status: ('A' for Active; 'I' for Inactive)
REMARK    1  A    between atoms: O1_2  and  C2_3 
REMARK    2  A    between atoms: C5_6  and  O2_7 
REMARK    3  A    between atoms: C6_9  and  N1_10 
REMARK    4  A    between atoms: N1_10  and  C8_12 
REMARK    5  A    between atoms: C8_12  and  O3_13 
REMARK    6  A    between atoms: O3_13  and  C9_14 
REMARK    7  A    between atoms: C9_14  and  C10_15 
REMARK    8  A    between atoms: C10_15  and  O4_16 
REMARK    9  A    between atoms: C15_23  and  C16_24 
REMARK   10  A    between atoms: C16_24  and  O5_25 
ROOT
HETATM    1  C2  UNL     1       4.309  23.511  23.236  1.00  0.00     0.158 C 
HETATM    2  C3  UNL     1       5.266  24.579  23.721  1.00  0.00     0.073 C 
HETATM    3  C4  UNL     1       5.866  25.219  22.490  1.00  0.00     0.256 C 
HETATM    4  C5  UNL     1       7.352  25.255  22.693  1.00  0.00     0.185 C 
HETATM    5  C6  UNL     1       8.096  26.158  21.758  1.00  0.00     0.255 C 
HETATM    6  C11 UNL     1       8.447  25.572  20.450  1.00  0.00     0.038 C 
HETATM    7  C12 UNL     1       7.573  24.443  19.985  1.00  0.00     0.004 C 
HETATM    8  C13 UNL     1       6.369  24.994  19.251  1.00  0.00     0.030 C 
HETATM    9  C14 UNL     1       5.192  25.228  20.210  1.00  0.00     0.273 C 
HETATM   10  N2  UNL     1       5.439  24.443  21.366  1.00  0.00     0.105 N 
HETATM   11  C15 UNL     1       4.477  23.490  21.755  1.00  0.00     0.275 C 
ENDROOT
BRANCH   5  12
HETATM   12  N1  UNL     1       9.245  26.668  22.476  1.00  0.00     0.114 N 
HETATM   13  C7  UNL     1      10.450  26.632  21.671  1.00  0.00     0.313 C 
BRANCH  12  14
HETATM   14  C8  UNL     1       9.094  28.038  22.924  1.00  0.00     0.440 C 
BRANCH  14  15
HETATM   15  O3  UNL     1      10.093  28.854  22.512  1.00  0.00    -0.360 OA
BRANCH  15  16
HETATM   16  C9  UNL     1      10.637  29.724  23.382  1.00  0.00     0.196 C 
BRANCH  16  17
HETATM   17  C10 UNL     1      11.722  29.260  24.289  1.00  0.00     0.190 C 
BRANCH  17  18
HETATM   18  O4  UNL     1      12.103  30.100  25.294  1.00  0.00    -0.399 OA
ATOM     19  H4  UNL     1      12.107  31.032  25.108  1.00  0.00     0.209 HD
ENDBRANCH  17  18
ENDBRANCH  16  17
ENDBRANCH  15  16
ENDBRANCH  14  15
ENDBRANCH  12  14
ENDBRANCH   5  12
BRANCH   4  20
HETATM   20  O2  UNL     1       7.545  25.759  24.002  1.00  0.00    -0.391 OA
ATOM     21  H2  UNL     1       7.674  24.995  24.553  1.00  0.00     0.210 HD
ENDBRANCH   4  20
BRANCH   1  22
HETATM   22  O1  UNL     1       3.060  23.861  23.685  1.00  0.00    -0.388 OA
HETATM   23  C1  UNL     1       3.155  24.581  24.863  1.00  0.00     0.202 C 
ENDBRANCH   1  22
BRANCH  11  24
HETATM   24  C16 UNL     1       3.172  23.562  21.032  1.00  0.00     0.202 C 
BRANCH  24  25
HETATM   25  O5  UNL     1       2.237  22.729  21.643  1.00  0.00    -0.399 OA
ATOM     26  H5  UNL     1       2.654  21.928  21.939  1.00  0.00     0.209 HD
ENDBRANCH  24  25
ENDBRANCH  11  24
TORSDOF 10
ENDMDL
MODEL 5
REMARK VINA RESULT: -3.672394532      1.509      2.049
REMARK  10 active torsions:
REMARK  status: ('A' for Active; 'I' for Inactive)
REMARK    1  A    between atoms: O1_2  and  C2_3 
REMARK    2  A    between atoms: C5_6  and  O2_7 
REMARK    3  A    between atoms: C6_9  and  N1_10 
REMARK    4  A    between atoms: N1_10  and  C8_12 
REMARK    5  A    between atoms: C8_12  and  O3_13 
REMARK    6  A    between atoms: O3_13  and  C9_14 
REMARK    7  A    between atoms: C9_14  and  C10_15 
REMARK    8  A    between atoms: C10_15  and  O4_16 
REMARK    9  A    between atoms: C15_23  and  C16_24 
REMARK   10  A    between atoms: C16_24  and  O5_25 
ROOT
HETATM    1  C2  UNL     1       5.324  24.741  21.373  1.00  0.00     0.158 C 
HETATM    2  C3  UNL     1       6.774  24.896  20.968  1.00  0.00     0.073 C 
HETATM    3  C4  UNL     1       7.546  25.218  22.228  1.00  0.00     0.256 C 
HETATM    4  C5  UNL     1       8.408  26.408  21.923  1.00  0.00     0.185 C 
HETATM    5  C6  UNL     1       9.499  26.667  22.916  1.00  0.00     0.255 C 
HETATM    6  C11 UNL     1       9.108  27.452  24.103  1.00  0.00     0.038 C 
HETATM    7  C12 UNL     1       7.655  27.396  24.472  1.00  0.00     0.004 C 
HETATM    8  C13 UNL     1       7.396  26.197  25.360  1.00  0.00     0.030 C 
HETATM    9  C14 UNL     1       7.014  24.963  24.531  1.00  0.00     0.273 C 
HETATM   10  N2  UNL     1       6.582  25.433  23.264  1.00  0.00     0.105 N 
HETATM   11  C15 UNL     1       5.289  25.092  22.820  1.00  0.00     0.275 C 
ENDROOT
BRANCH   5  12
HETATM   12  N1  UNL     1      10.608  27.252  22.192  1.00  0.00     0.114 N 
HETATM   13  C7  UNL     1      10.439  28.678  21.995  1.00  0.00     0.313 C 
BRANCH  12  14
HETATM   14  C8  UNL     1      11.890  27.079  22.847  1.00  0.00     0.440 C 
BRANCH  14  15
HETATM   15  O3  UNL     1      11.867  27.382  24.167  1.00  0.00    -0.360 OA
BRANCH  15  16
HETATM   16  C9  UNL     1      12.846  28.143  24.688  1.00  0.00     0.196 C 
BRANCH  16  17
HETATM   17  C10 UNL     1      12.497  29.445  25.318  1.00  0.00     0.190 C 
BRANCH  17  18
HETATM   18  O4  UNL     1      12.181  30.480  24.488  1.00  0.00    -0.399 OA
ATOM     19  H4  UNL     1      12.657  31.294  24.603  1.00  0.00     0.209 HD
ENDBRANCH  17  18
ENDBRANCH  16  17
ENDBRANCH  15  16
ENDBRANCH  14  15
ENDBRANCH  12  14
ENDBRANCH   5  12
BRANCH   4  20
HETATM   20  O2  UNL     1       9.030  26.119  20.685  1.00  0.00    -0.391 OA
ATOM     21  H2  UNL     1       9.028  25.172  20.613  1.00  0.00     0.210 HD
ENDBRANCH   4  20
BRANCH   1  22
HETATM   22  O1  UNL     1       4.961  23.452  21.068  1.00  0.00    -0.388 OA
HETATM   23  C1  UNL     1       3.610  23.389  20.774  1.00  0.00     0.202 C 
ENDBRANCH   1  22
BRANCH  11  24
HETATM   24  C16 UNL     1       4.578  24.067  23.640  1.00  0.00     0.202 C 
BRANCH  24  25
HETATM   25  O5  UNL     1       3.570  24.667  24.392  1.00  0.00    -0.399 OA
ATOM     26  H5  UNL     1       3.729  24.533  25.319  1.00  0.00     0.209 HD
ENDBRANCH  24  25
ENDBRANCH  11  24
TORSDOF 10
ENDMDL
