MODEL 1
REMARK VINA RESULT: -5.780431952      0.000      0.000
REMARK  9 active torsions:
REMARK  status: ('A' for Active; 'I' for Inactive)
REMARK    1  A    between atoms: N1_1  and  C1_4 
REMARK    2  A    between atoms: C2_9  and  N4_10 
REMARK    3  A    between atoms: N4_10  and  N5_12 
REMARK    4  A    between atoms: C3_15  and  C4_16 
REMARK    5  A    between atoms: C4_16  and  N6_17 
REMARK    6  A    between atoms: N6_17  and  C5_20 
REMARK    7  A    between atoms: C5_20  and  C6_21 
REMARK    8  A    between atoms: C6_21  and  O1_22 
REMARK    9  A    between atoms: O1_22  and  C7_23 
ROOT
HETATM    1  N6  UNL     1      36.785  11.443  19.821  1.00  0.00    -0.070 N 
ATOM      2  H61 UNL     1      36.526  12.406  19.607  1.00  0.00     0.277 HD
ATOM      3  H62 UNL     1      36.641  11.028  18.900  1.00  0.00     0.277 HD
ENDROOT
BRANCH   1   4
HETATM    4  C4  UNL     1      35.900  10.870  20.790  1.00  0.00     0.272 C 
BRANCH   4   5
HETATM    5  C3  UNL     1      34.449  11.070  20.460  1.00  0.00     0.227 C 
HETATM    6  C2  UNL     1      33.857  12.072  21.384  1.00  0.00     0.142 C 
HETATM    7  N3  UNL     1      32.441  12.188  21.400  1.00  0.00    -0.283 N 
HETATM    8  N2  UNL     1      31.664  11.100  21.009  1.00  0.00    -0.264 N 
ATOM      9  H3  UNL     1      31.999  13.059  21.694  1.00  0.00     0.188 HD
HETATM   10  C1  UNL     1      32.308   9.903  20.603  1.00  0.00     0.232 C 
ATOM     11  H2  UNL     1      30.647  11.163  21.014  1.00  0.00     0.190 HD
HETATM   12  O2  UNL     1      33.695   9.882  20.620  1.00  0.00    -0.306 OA
BRANCH   6  13
HETATM   13  N4  UNL     1      34.609  12.819  22.151  1.00  0.00    -0.292 N 
ATOM     14  H4  UNL     1      35.278  12.383  22.787  1.00  0.00     0.187 HD
BRANCH  13  15
HETATM   15  N5  UNL     1      34.501  14.200  22.104  1.00  0.00    -0.344 N 
ATOM     16  H52 UNL     1      34.513  14.665  21.195  1.00  0.00     0.176 HD
ATOM     17  H51 UNL     1      34.411  14.738  22.966  1.00  0.00     0.176 HD
ENDBRANCH  13  15
ENDBRANCH   6  13
BRANCH  10  18
HETATM   18  N1  UNL     1      31.620   8.851  20.227  1.00  0.00    -0.364 N 
ATOM     19  H12 UNL     1      31.371   8.120  20.894  1.00  0.00     0.159 HD
ATOM     20  H11 UNL     1      31.316   8.733  19.260  1.00  0.00     0.159 HD
ENDBRANCH  10  18
ENDBRANCH   4   5
ENDBRANCH   1   4
BRANCH   1  21
HETATM   21  C5  UNL     1      38.158  11.350  20.225  1.00  0.00     0.259 C 
BRANCH  21  22
HETATM   22  C6  UNL     1      38.882  10.341  19.353  1.00  0.00     0.205 C 
BRANCH  22  23
HETATM   23  O1  UNL     1      39.326  10.856  18.140  1.00  0.00    -0.332 OA
BRANCH  23  24
HETATM   24  C7  UNL     1      40.256  11.821  17.918  1.00  0.00     0.174 A 
HETATM   25  N7  UNL     1      39.945  13.115  17.752  1.00  0.00    -0.331 N 
HETATM   26  C8  UNL     1      40.888  14.061  17.532  1.00  0.00     0.184 A 
ATOM     27  H7  UNL     1      38.966  13.396  17.794  1.00  0.00     0.168 HD
HETATM   28  N8  UNL     1      42.203  13.733  17.470  1.00  0.00    -0.337 N 
HETATM   29  C9  UNL     1      42.567  12.449  17.629  1.00  0.00     0.138 A 
ATOM     30  H8  UNL     1      42.907  14.451  17.304  1.00  0.00     0.168 HD
HETATM   31  N9  UNL     1      43.790  11.881  17.609  1.00  0.00    -0.337 N 
HETATM   32  C11 UNL     1      41.589  11.484  17.854  1.00  0.00     0.129 A 
HETATM   33  C10 UNL     1      43.573  10.577  17.820  1.00  0.00     0.182 A 
ATOM     34  H9  UNL     1      44.687  12.345  17.465  1.00  0.00     0.168 HD
HETATM   35  N10 UNL     1      42.266  10.325  17.968  1.00  0.00    -0.346 N 
ATOM     36  H10 UNL     1      41.852   9.409  18.139  1.00  0.00     0.167 HD
ENDBRANCH  23  24
ENDBRANCH  22  23
ENDBRANCH  21  22
ENDBRANCH   1  21
TORSDOF 9
ENDMDL
MODEL 2
REMARK VINA RESULT: -5.664055943      0.481      1.861
REMARK  9 active torsions:
REMARK  status: ('A' for Active; 'I' for Inactive)
REMARK    1  A    between atoms: N1_1  and  C1_4 
REMARK    2  A    between atoms: C2_9  and  N4_10 
REMARK    3  A    between atoms: N4_10  and  N5_12 
REMARK    4  A    between atoms: C3_15  and  C4_16 
REMARK    5  A    between atoms: C4_16  and  N6_17 
REMARK    6  A    between atoms: N6_17  and  C5_20 
REMARK    7  A    between atoms: C5_20  and  C6_21 
REMARK    8  A    between atoms: C6_21  and  O1_22 
REMARK    9  A    between atoms: O1_22  and  C7_23 
ROOT
HETATM    1  N6  UNL     1      36.771  11.445  19.550  1.00  0.00    -0.070 N 
ATOM      2  H61 UNL     1      36.445  12.348  19.205  1.00  0.00     0.277 HD
ATOM      3  H62 UNL     1      36.637  10.890  18.705  1.00  0.00     0.277 HD
ENDROOT
BRANCH   1   4
HETATM    4  C4  UNL     1      35.947  10.969  20.619  1.00  0.00     0.272 C 
BRANCH   4   5
HETATM    5  C3  UNL     1      34.478  11.151  20.362  1.00  0.00     0.227 C 
HETATM    6  C2  UNL     1      33.914  12.120  21.337  1.00  0.00     0.142 C 
HETATM    7  N3  UNL     1      32.499  12.210  21.422  1.00  0.00    -0.283 N 
HETATM    8  N2  UNL     1      31.723  11.118  21.040  1.00  0.00    -0.264 N 
ATOM      9  H3  UNL     1      32.056  13.065  21.759  1.00  0.00     0.188 HD
HETATM   10  C1  UNL     1      32.366   9.944  20.575  1.00  0.00     0.232 C 
ATOM     11  H2  UNL     1      30.706  11.163  21.094  1.00  0.00     0.190 HD
HETATM   12  O2  UNL     1      33.753   9.946  20.526  1.00  0.00    -0.306 OA
BRANCH   6  13
HETATM   13  N4  UNL     1      34.689  12.860  22.088  1.00  0.00    -0.292 N 
ATOM     14  H4  UNL     1      35.430  12.425  22.639  1.00  0.00     0.187 HD
BRANCH  13  15
HETATM   15  N5  UNL     1      34.508  14.233  22.137  1.00  0.00    -0.344 N 
ATOM     16  H52 UNL     1      34.119  14.709  21.323  1.00  0.00     0.176 HD
ATOM     17  H51 UNL     1      34.761  14.755  22.977  1.00  0.00     0.176 HD
ENDBRANCH  13  15
ENDBRANCH   6  13
BRANCH  10  18
HETATM   18  N1  UNL     1      31.679   8.889  20.203  1.00  0.00    -0.364 N 
ATOM     19  H12 UNL     1      31.079   8.917  19.379  1.00  0.00     0.159 HD
ATOM     20  H11 UNL     1      31.726   8.013  20.725  1.00  0.00     0.159 HD
ENDBRANCH  10  18
ENDBRANCH   4   5
ENDBRANCH   1   4
BRANCH   1  21
HETATM   21  C5  UNL     1      38.156  11.499  19.922  1.00  0.00     0.259 C 
BRANCH  21  22
HETATM   22  C6  UNL     1      38.937  10.457  19.143  1.00  0.00     0.205 C 
BRANCH  22  23
HETATM   23  O1  UNL     1      39.607  10.964  18.034  1.00  0.00    -0.332 OA
BRANCH  23  24
HETATM   24  C7  UNL     1      40.916  11.305  17.917  1.00  0.00     0.174 A 
HETATM   25  N7  UNL     1      41.916  10.414  17.995  1.00  0.00    -0.331 N 
HETATM   26  C8  UNL     1      43.215  10.775  17.876  1.00  0.00     0.184 A 
ATOM     27  H7  UNL     1      41.690   9.431  18.148  1.00  0.00     0.168 HD
HETATM   28  N8  UNL     1      43.562  12.071  17.670  1.00  0.00    -0.337 N 
HETATM   29  C9  UNL     1      42.597  13.003  17.585  1.00  0.00     0.138 A 
ATOM     30  H8  UNL     1      44.542  12.335  17.581  1.00  0.00     0.168 HD
HETATM   31  N9  UNL     1      42.686  14.334  17.389  1.00  0.00    -0.337 N 
HETATM   32  C11 UNL     1      41.265  12.620  17.709  1.00  0.00     0.129 A 
HETATM   33  C10 UNL     1      41.421  14.772  17.391  1.00  0.00     0.182 A 
ATOM     34  H9  UNL     1      43.534  14.887  17.264  1.00  0.00     0.168 HD
HETATM   35  N10 UNL     1      40.563  13.763  17.581  1.00  0.00    -0.346 N 
ATOM     36  H10 UNL     1      39.548  13.845  17.622  1.00  0.00     0.167 HD
ENDBRANCH  23  24
ENDBRANCH  22  23
ENDBRANCH  21  22
ENDBRANCH   1  21
TORSDOF 9
ENDMDL
MODEL 3
REMARK VINA RESULT: -5.484467974      1.658      2.038
REMARK  9 active torsions:
REMARK  status: ('A' for Active; 'I' for Inactive)
REMARK    1  A    between atoms: N1_1  and  C1_4 
REMARK    2  A    between atoms: C2_9  and  N4_10 
REMARK    3  A    between atoms: N4_10  and  N5_12 
REMARK    4  A    between atoms: C3_15  and  C4_16 
REMARK    5  A    between atoms: C4_16  and  N6_17 
REMARK    6  A    between atoms: N6_17  and  C5_20 
REMARK    7  A    between atoms: C5_20  and  C6_21 
REMARK    8  A    between atoms: C6_21  and  O1_22 
REMARK    9  A    between atoms: O1_22  and  C7_23 
ROOT
HETATM    1  N6  UNL     1      37.093  11.543  20.367  1.00  0.00    -0.070 N 
ATOM      2  H61 UNL     1      36.833  12.440  19.956  1.00  0.00     0.277 HD
ATOM      3  H62 UNL     1      36.658  10.921  19.685  1.00  0.00     0.277 HD
ENDROOT
BRANCH   1   4
HETATM    4  C4  UNL     1      36.512  11.379  21.665  1.00  0.00     0.272 C 
BRANCH   4   5
HETATM    5  C3  UNL     1      35.029  11.144  21.626  1.00  0.00     0.227 C 
HETATM    6  C2  UNL     1      34.731   9.746  22.034  1.00  0.00     0.142 C 
HETATM    7  N3  UNL     1      33.417   9.264  21.797  1.00  0.00    -0.283 N 
HETATM    8  N2  UNL     1      32.650   9.843  20.788  1.00  0.00    -0.264 N 
ATOM      9  H3  UNL     1      33.038   8.503  22.360  1.00  0.00     0.188 HD
HETATM   10  C1  UNL     1      33.204  10.900  20.022  1.00  0.00     0.232 C 
ATOM     11  H2  UNL     1      31.705   9.510  20.602  1.00  0.00     0.190 HD
HETATM   12  O2  UNL     1      34.496  11.305  20.324  1.00  0.00    -0.306 OA
BRANCH   6  13
HETATM   13  N4  UNL     1      35.644   8.990  22.589  1.00  0.00    -0.292 N 
ATOM     14  H4  UNL     1      36.613   9.305  22.625  1.00  0.00     0.187 HD
BRANCH  13  15
HETATM   15  N5  UNL     1      35.297   7.762  23.130  1.00  0.00    -0.344 N 
ATOM     16  H52 UNL     1      34.414   7.676  23.633  1.00  0.00     0.176 HD
ATOM     17  H51 UNL     1      35.919   6.960  23.023  1.00  0.00     0.176 HD
ENDBRANCH  13  15
ENDBRANCH   6  13
BRANCH  10  18
HETATM   18  N1  UNL     1      32.522  11.477  19.060  1.00  0.00    -0.364 N 
ATOM     19  H12 UNL     1      31.660  11.984  19.259  1.00  0.00     0.159 HD
ATOM     20  H11 UNL     1      32.834  11.437  18.090  1.00  0.00     0.159 HD
ENDBRANCH  10  18
ENDBRANCH   4   5
ENDBRANCH   1   4
BRANCH   1  21
HETATM   21  C5  UNL     1      38.518  11.374  20.389  1.00  0.00     0.259 C 
BRANCH  21  22
HETATM   22  C6  UNL     1      38.928  10.349  19.349  1.00  0.00     0.205 C 
BRANCH  22  23
HETATM   23  O1  UNL     1      39.338  10.901  18.140  1.00  0.00    -0.332 OA
BRANCH  23  24
HETATM   24  C7  UNL     1      40.278  11.857  17.920  1.00  0.00     0.174 A 
HETATM   25  N7  UNL     1      39.981  13.155  17.760  1.00  0.00    -0.331 N 
HETATM   26  C8  UNL     1      40.933  14.091  17.542  1.00  0.00     0.184 A 
ATOM     27  H7  UNL     1      39.005  13.447  17.805  1.00  0.00     0.168 HD
HETATM   28  N8  UNL     1      42.245  13.749  17.474  1.00  0.00    -0.337 N 
HETATM   29  C9  UNL     1      42.595  12.461  17.627  1.00  0.00     0.138 A 
ATOM     30  H8  UNL     1      42.956  14.461  17.310  1.00  0.00     0.168 HD
HETATM   31  N9  UNL     1      43.812  11.880  17.602  1.00  0.00    -0.337 N 
HETATM   32  C11 UNL     1      41.608  11.506  17.852  1.00  0.00     0.129 A 
HETATM   33  C10 UNL     1      43.581  10.577  17.809  1.00  0.00     0.182 A 
ATOM     34  H9  UNL     1      44.713  12.334  17.458  1.00  0.00     0.168 HD
HETATM   35  N10 UNL     1      42.272  10.339  17.959  1.00  0.00    -0.346 N 
ATOM     36  H10 UNL     1      41.849   9.427  18.127  1.00  0.00     0.167 HD
ENDBRANCH  23  24
ENDBRANCH  22  23
ENDBRANCH  21  22
ENDBRANCH   1  21
TORSDOF 9
ENDMDL
MODEL 4
REMARK VINA RESULT: -5.482442530      4.793      7.150
REMARK  9 active torsions:
REMARK  status: ('A' for Active; 'I' for Inactive)
REMARK    1  A    between atoms: N1_1  and  C1_4 
REMARK    2  A    between atoms: C2_9  and  N4_10 
REMARK    3  A    between atoms: N4_10  and  N5_12 
REMARK    4  A    between atoms: C3_15  and  C4_16 
REMARK    5  A    between atoms: C4_16  and  N6_17 
REMARK    6  A    between atoms: N6_17  and  C5_20 
REMARK    7  A    between atoms: C5_20  and  C6_21 
REMARK    8  A    between atoms: C6_21  and  O1_22 
REMARK    9  A    between atoms: O1_22  and  C7_23 
ROOT
HETATM    1  N6  UNL     1      40.446   8.079  20.327  1.00  0.00    -0.070 N 
ATOM      2  H61 UNL     1      41.119   8.351  19.610  1.00  0.00     0.277 HD
ATOM      3  H62 UNL     1      40.978   8.343  21.156  1.00  0.00     0.277 HD
ENDROOT
BRANCH   1   4
HETATM    4  C4  UNL     1      40.198   6.669  20.297  1.00  0.00     0.272 C 
BRANCH   4   5
HETATM    5  C3  UNL     1      40.676   6.009  19.036  1.00  0.00     0.227 C 
HETATM    6  C2  UNL     1      39.552   5.282  18.392  1.00  0.00     0.142 C 
HETATM    7  N3  UNL     1      39.874   4.379  17.343  1.00  0.00    -0.283 N 
HETATM    8  N2  UNL     1      41.147   3.815  17.297  1.00  0.00    -0.264 N 
ATOM      9  H3  UNL     1      39.181   4.147  16.632  1.00  0.00     0.188 HD
HETATM   10  C1  UNL     1      42.089   4.158  18.300  1.00  0.00     0.232 C 
ATOM     11  H2  UNL     1      41.397   3.165  16.553  1.00  0.00     0.190 HD
HETATM   12  O2  UNL     1      41.686   5.048  19.285  1.00  0.00    -0.306 OA
BRANCH   6  13
HETATM   13  N4  UNL     1      38.314   5.465  18.775  1.00  0.00    -0.292 N 
ATOM     14  H4  UNL     1      37.851   6.357  18.591  1.00  0.00     0.187 HD
BRANCH  13  15
HETATM   15  N5  UNL     1      37.628   4.454  19.429  1.00  0.00    -0.344 N 
ATOM     16  H52 UNL     1      37.739   3.493  19.104  1.00  0.00     0.176 HD
ATOM     17  H51 UNL     1      37.024   4.672  20.221  1.00  0.00     0.176 HD
ENDBRANCH  13  15
ENDBRANCH   6  13
BRANCH  10  18
HETATM   18  N1  UNL     1      43.301   3.654  18.300  1.00  0.00    -0.364 N 
ATOM     19  H12 UNL     1      43.817   3.526  17.429  1.00  0.00     0.159 HD
ATOM     20  H11 UNL     1      43.762   3.377  19.167  1.00  0.00     0.159 HD
ENDBRANCH  10  18
ENDBRANCH   4   5
ENDBRANCH   1   4
BRANCH   1  21
HETATM   21  C5  UNL     1      39.236   8.841  20.220  1.00  0.00     0.259 C 
BRANCH  21  22
HETATM   22  C6  UNL     1      39.564  10.271  19.829  1.00  0.00     0.205 C 
BRANCH  22  23
HETATM   23  O1  UNL     1      40.124  10.397  18.562  1.00  0.00    -0.332 OA
BRANCH  23  24
HETATM   24  C7  UNL     1      41.316  10.945  18.213  1.00  0.00     0.174 A 
HETATM   25  N7  UNL     1      42.459  10.244  18.164  1.00  0.00    -0.331 N 
HETATM   26  C8  UNL     1      43.637  10.810  17.813  1.00  0.00     0.184 A 
ATOM     27  H7  UNL     1      42.439   9.252  18.399  1.00  0.00     0.168 HD
HETATM   28  N8  UNL     1      43.710  12.126  17.492  1.00  0.00    -0.337 N 
HETATM   29  C9  UNL     1      42.593  12.873  17.526  1.00  0.00     0.138 A 
ATOM     30  H8  UNL     1      44.602  12.545  17.228  1.00  0.00     0.168 HD
HETATM   31  N9  UNL     1      42.411  14.181  17.255  1.00  0.00    -0.337 N 
HETATM   32  C11 UNL     1      41.387  12.281  17.888  1.00  0.00     0.129 A 
HETATM   33  C10 UNL     1      41.104  14.398  17.448  1.00  0.00     0.182 A 
ATOM     34  H9  UNL     1      43.116  14.859  16.965  1.00  0.00     0.168 HD
HETATM   35  N10 UNL     1      40.480  13.276  17.826  1.00  0.00    -0.346 N 
ATOM     36  H10 UNL     1      39.486  13.188  18.031  1.00  0.00     0.167 HD
ENDBRANCH  23  24
ENDBRANCH  22  23
ENDBRANCH  21  22
ENDBRANCH   1  21
TORSDOF 9
ENDMDL
MODEL 5
REMARK VINA RESULT: -5.463307591      1.281      2.444
REMARK  9 active torsions:
REMARK  status: ('A' for Active; 'I' for Inactive)
REMARK    1  A    between atoms: N1_1  and  C1_4 
REMARK    2  A    between atoms: C2_9  and  N4_10 
REMARK    3  A    between atoms: N4_10  and  N5_12 
REMARK    4  A    between atoms: C3_15  and  C4_16 
REMARK    5  A    between atoms: C4_16  and  N6_17 
REMARK    6  A    between atoms: N6_17  and  C5_20 
REMARK    7  A    between atoms: C5_20  and  C6_21 
REMARK    8  A    between atoms: C6_21  and  O1_22 
REMARK    9  A    between atoms: O1_22  and  C7_23 
ROOT
HETATM    1  N6  UNL     1      36.879  11.636  20.406  1.00  0.00    -0.070 N 
ATOM      2  H61 UNL     1      37.651  11.647  21.073  1.00  0.00     0.277 HD
ATOM      3  H62 UNL     1      36.609  12.619  20.455  1.00  0.00     0.277 HD
ENDROOT
BRANCH   1   4
HETATM    4  C4  UNL     1      35.819  10.784  20.854  1.00  0.00     0.272 C 
BRANCH   4   5
HETATM    5  C3  UNL     1      34.870  11.465  21.799  1.00  0.00     0.227 C 
HETATM    6  C2  UNL     1      33.519  11.543  21.184  1.00  0.00     0.142 C 
HETATM    7  N3  UNL     1      32.565  12.389  21.810  1.00  0.00    -0.283 N 
HETATM    8  N2  UNL     1      33.008  13.458  22.586  1.00  0.00    -0.264 N 
ATOM      9  H3  UNL     1      31.567  12.216  21.693  1.00  0.00     0.188 HD
HETATM   10  C1  UNL     1      34.403  13.673  22.731  1.00  0.00     0.232 C 
ATOM     11  H2  UNL     1      32.340  14.076  23.043  1.00  0.00     0.190 HD
HETATM   12  O2  UNL     1      35.260  12.796  22.082  1.00  0.00    -0.306 OA
BRANCH   6  13
HETATM   13  N4  UNL     1      33.220  10.860  20.108  1.00  0.00    -0.292 N 
ATOM     14  H4  UNL     1      33.575   9.911  19.993  1.00  0.00     0.187 HD
BRANCH  13  15
HETATM   15  N5  UNL     1      32.422  11.422  19.124  1.00  0.00    -0.344 N 
ATOM     16  H52 UNL     1      31.489  11.039  18.967  1.00  0.00     0.176 HD
ATOM     17  H51 UNL     1      32.767  12.205  18.568  1.00  0.00     0.176 HD
ENDBRANCH  13  15
ENDBRANCH   6  13
BRANCH  10  18
HETATM   18  N1  UNL     1      34.870  14.666  23.451  1.00  0.00    -0.364 N 
ATOM     19  H12 UNL     1      34.710  15.636  23.176  1.00  0.00     0.159 HD
ATOM     20  H11 UNL     1      35.403  14.499  24.305  1.00  0.00     0.159 HD
ENDBRANCH  10  18
ENDBRANCH   4   5
ENDBRANCH   1   4
BRANCH   1  21
HETATM   21  C5  UNL     1      37.331  11.286  19.091  1.00  0.00     0.259 C 
BRANCH  21  22
HETATM   22  C6  UNL     1      38.707  10.649  19.175  1.00  0.00     0.205 C 
BRANCH  22  23
HETATM   23  O1  UNL     1      39.509  10.887  18.064  1.00  0.00    -0.332 OA
BRANCH  23  24
HETATM   24  C7  UNL     1      40.419  11.877  17.872  1.00  0.00     0.174 A 
HETATM   25  N7  UNL     1      40.081  13.169  17.740  1.00  0.00    -0.331 N 
HETATM   26  C8  UNL     1      41.004  14.140  17.548  1.00  0.00     0.184 A 
ATOM     27  H7  UNL     1      39.096  13.427  17.786  1.00  0.00     0.168 HD
HETATM   28  N8  UNL     1      42.326  13.841  17.481  1.00  0.00    -0.337 N 
HETATM   29  C9  UNL     1      42.717  12.562  17.606  1.00  0.00     0.138 A 
ATOM     30  H8  UNL     1      43.015  14.579  17.336  1.00  0.00     0.168 HD
HETATM   31  N9  UNL     1      43.951  12.021  17.574  1.00  0.00    -0.337 N 
HETATM   32  C11 UNL     1      41.759  11.571  17.802  1.00  0.00     0.129 A 
HETATM   33  C10 UNL     1      43.761  10.707  17.749  1.00  0.00     0.182 A 
ATOM     34  H9  UNL     1      44.839  12.507  17.445  1.00  0.00     0.168 HD
HETATM   35  N10 UNL     1      42.460  10.424  17.887  1.00  0.00    -0.346 N 
ATOM     36  H10 UNL     1      42.066   9.495  18.031  1.00  0.00     0.167 HD
ENDBRANCH  23  24
ENDBRANCH  22  23
ENDBRANCH  21  22
ENDBRANCH   1  21
TORSDOF 9
ENDMDL
