MODEL 1
REMARK VINA RESULT: -4.675324880      0.000      0.000
REMARK  11 active torsions:
REMARK  status: ('A' for Active; 'I' for Inactive)
REMARK    1  A    between atoms: N1_2  and  C2_4 
REMARK    2  A    between atoms: N3_8  and  C4_10 
REMARK    3  A    between atoms: C4_10  and  C5_11 
REMARK    4  A    between atoms: C5_11  and  O1_12 
REMARK    5  A    between atoms: O1_12  and  C6_13 
REMARK    6  A    between atoms: C6_13  and  C7_14 
REMARK    7  A    between atoms: C7_14  and  O2_15 
REMARK    8  A    between atoms: C9_18  and  N4_19 
REMARK    9  A    between atoms: N7_28  and  C12_29 
REMARK   10  A    between atoms: C12_29  and  C13_30 
REMARK   11  A    between atoms: C13_30  and  O3_31 
ROOT
HETATM    1  C2  UNL     1      42.164  15.190  17.246  1.00  0.00     0.683 A 
HETATM    2  N2  UNL     1      41.185  14.286  17.405  1.00  0.00    -0.176 N 
ATOM      3  H2  UNL     1      40.225  14.554  17.191  1.00  0.00     0.186 HD
HETATM    4  C3  UNL     1      41.437  13.023  17.844  1.00  0.00     0.134 A 
HETATM    5  N3  UNL     1      40.493  12.158  17.995  1.00  0.00    -0.373 N 
ATOM      6  H3  UNL     1      40.735  11.225  18.327  1.00  0.00     0.161 HD
HETATM    7  C8  UNL     1      42.727  12.673  18.127  1.00  0.00     0.097 A 
HETATM    8  C9  UNL     1      43.002  11.409  18.569  1.00  0.00     0.117 A 
HETATM    9  N5  UNL     1      44.272  11.073  18.846  1.00  0.00    -0.338 N 
ATOM     10  H5  UNL     1      44.495  10.134  19.177  1.00  0.00     0.168 HD
HETATM   11  C10 UNL     1      45.249  11.986  18.682  1.00  0.00     0.183 A 
HETATM   12  N6  UNL     1      44.989  13.232  18.249  1.00  0.00    -0.337 N 
ATOM     13  H6  UNL     1      45.758  13.893  18.141  1.00  0.00     0.168 HD
HETATM   14  C11 UNL     1      43.733  13.630  17.954  1.00  0.00     0.142 A 
HETATM   15  N7  UNL     1      43.442  14.870  17.517  1.00  0.00    -0.165 N 
ENDROOT
BRANCH   5  16
HETATM   16  C4  UNL     1      39.106  12.453  17.716  1.00  0.00     0.147 C 
BRANCH  16  17
HETATM   17  C5  UNL     1      38.237  11.507  18.520  1.00  0.00     0.187 C 
BRANCH  17  18
HETATM   18  O1  UNL     1      38.826  10.257  18.657  1.00  0.00    -0.387 OA
BRANCH  18  19
HETATM   19  C6  UNL     1      38.670   9.844  19.968  1.00  0.00     0.193 C 
BRANCH  19  20
HETATM   20  C7  UNL     1      39.206   8.451  20.202  1.00  0.00     0.190 C 
BRANCH  20  21
HETATM   21  O2  UNL     1      40.285   8.246  19.346  1.00  0.00    -0.399 OA
ATOM     22  H2  UNL     1      40.586   7.351  19.453  1.00  0.00     0.209 HD
ENDBRANCH  20  21
ENDBRANCH  19  20
ENDBRANCH  18  19
ENDBRANCH  17  18
ENDBRANCH  16  17
ENDBRANCH   5  16
BRANCH   1  23
HETATM   23  N1  UNL     1      41.864  16.364  16.829  1.00  0.00    -0.230 N 
HETATM   24  C1  UNL     1      41.483  16.708  15.502  1.00  0.00     0.165 C 
ATOM     25  H1  UNL     1      41.902  17.121  17.511  1.00  0.00     0.177 HD
ENDBRANCH   1  23
BRANCH   8  26
HETATM   26  N4  UNL     1      42.018  10.579  18.705  1.00  0.00    -0.385 N 
ATOM     27  H42 UNL     1      41.080  10.880  18.967  1.00  0.00     0.157 HD
ATOM     28  H41 UNL     1      42.196   9.587  18.541  1.00  0.00     0.157 HD
ENDBRANCH   8  26
BRANCH  15  29
HETATM   29  C12 UNL     1      44.519  15.798  17.363  1.00  0.00     0.175 C 
BRANCH  29  30
HETATM   30  C13 UNL     1      45.085  15.861  15.972  1.00  0.00     0.185 C 
BRANCH  30  31
HETATM   31  O3  UNL     1      45.884  14.796  15.640  1.00  0.00    -0.399 OA
ATOM     32  H3  UNL     1      46.738  15.039  15.305  1.00  0.00     0.209 HD
ENDBRANCH  30  31
ENDBRANCH  29  30
ENDBRANCH  15  29
TORSDOF 11
ENDMDL
MODEL 2
REMARK VINA RESULT: -4.570271701      5.077     10.180
REMARK  11 active torsions:
REMARK  status: ('A' for Active; 'I' for Inactive)
REMARK    1  A    between atoms: N1_2  and  C2_4 
REMARK    2  A    between atoms: N3_8  and  C4_10 
REMARK    3  A    between atoms: C4_10  and  C5_11 
REMARK    4  A    between atoms: C5_11  and  O1_12 
REMARK    5  A    between atoms: O1_12  and  C6_13 
REMARK    6  A    between atoms: C6_13  and  C7_14 
REMARK    7  A    between atoms: C7_14  and  O2_15 
REMARK    8  A    between atoms: C9_18  and  N4_19 
REMARK    9  A    between atoms: N7_28  and  C12_29 
REMARK   10  A    between atoms: C12_29  and  C13_30 
REMARK   11  A    between atoms: C13_30  and  O3_31 
ROOT
HETATM    1  C2  UNL     1      45.712  16.009  15.898  1.00  0.00     0.683 A 
HETATM    2  N2  UNL     1      46.913  16.255  15.351  1.00  0.00    -0.176 N 
ATOM      3  H2  UNL     1      47.576  15.487  15.245  1.00  0.00     0.186 HD
HETATM    4  C3  UNL     1      47.272  17.500  14.935  1.00  0.00     0.134 A 
HETATM    5  N3  UNL     1      48.427  17.731  14.411  1.00  0.00    -0.373 N 
ATOM      6  H3  UNL     1      48.646  18.683  14.116  1.00  0.00     0.161 HD
HETATM    7  C8  UNL     1      46.377  18.523  15.081  1.00  0.00     0.097 A 
HETATM    8  C9  UNL     1      46.718  19.781  14.670  1.00  0.00     0.117 A 
HETATM    9  N5  UNL     1      45.835  20.780  14.818  1.00  0.00    -0.338 N 
ATOM     10  H5  UNL     1      46.072  21.726  14.516  1.00  0.00     0.168 HD
HETATM   11  C10 UNL     1      44.631  20.524  15.366  1.00  0.00     0.183 A 
HETATM   12  N6  UNL     1      44.287  19.290  15.775  1.00  0.00    -0.337 N 
ATOM     13  H6  UNL     1      43.366  19.141  16.187  1.00  0.00     0.168 HD
HETATM   14  C11 UNL     1      45.132  18.245  15.653  1.00  0.00     0.142 A 
HETATM   15  N7  UNL     1      44.814  16.998  16.052  1.00  0.00    -0.165 N 
ENDROOT
BRANCH   5  16
HETATM   16  C4  UNL     1      49.425  16.703  14.223  1.00  0.00     0.147 C 
BRANCH  16  17
HETATM   17  C5  UNL     1      50.673  17.337  13.644  1.00  0.00     0.187 C 
BRANCH  17  18
HETATM   18  O1  UNL     1      50.651  18.721  13.764  1.00  0.00    -0.387 OA
BRANCH  18  19
HETATM   19  C6  UNL     1      51.381  19.260  12.721  1.00  0.00     0.193 C 
BRANCH  19  20
HETATM   20  C7  UNL     1      51.361  18.386  11.489  1.00  0.00     0.190 C 
BRANCH  20  21
HETATM   21  O2  UNL     1      50.724  19.084  10.466  1.00  0.00    -0.399 OA
ATOM     22  H2  UNL     1      51.302  19.103   9.712  1.00  0.00     0.209 HD
ENDBRANCH  20  21
ENDBRANCH  19  20
ENDBRANCH  18  19
ENDBRANCH  17  18
ENDBRANCH  16  17
ENDBRANCH   5  16
BRANCH   1  23
HETATM   23  N1  UNL     1      45.432  14.815  16.270  1.00  0.00    -0.230 N 
HETATM   24  C1  UNL     1      45.836  14.203  17.488  1.00  0.00     0.165 C 
ATOM     25  H1  UNL     1      44.868  14.252  15.633  1.00  0.00     0.177 HD
ENDBRANCH   1  23
BRANCH   8  26
HETATM   26  N4  UNL     1      47.890  19.961  14.151  1.00  0.00    -0.385 N 
ATOM     27  H42 UNL     1      48.123  19.653  13.207  1.00  0.00     0.157 HD
ATOM     28  H41 UNL     1      48.602  20.429  14.712  1.00  0.00     0.157 HD
ENDBRANCH   8  26
BRANCH  15  29
HETATM   29  C12 UNL     1      43.523  16.785  16.629  1.00  0.00     0.175 C 
BRANCH  29  30
HETATM   30  C13 UNL     1      42.431  16.546  15.623  1.00  0.00     0.185 C 
BRANCH  30  31
HETATM   31  O3  UNL     1      42.657  15.480  14.790  1.00  0.00    -0.399 OA
ATOM     32  H3  UNL     1      42.822  14.661  15.241  1.00  0.00     0.209 HD
ENDBRANCH  30  31
ENDBRANCH  29  30
ENDBRANCH  15  29
TORSDOF 11
ENDMDL
MODEL 3
REMARK VINA RESULT: -4.431004541      5.011     10.001
REMARK  11 active torsions:
REMARK  status: ('A' for Active; 'I' for Inactive)
REMARK    1  A    between atoms: N1_2  and  C2_4 
REMARK    2  A    between atoms: N3_8  and  C4_10 
REMARK    3  A    between atoms: C4_10  and  C5_11 
REMARK    4  A    between atoms: C5_11  and  O1_12 
REMARK    5  A    between atoms: O1_12  and  C6_13 
REMARK    6  A    between atoms: C6_13  and  C7_14 
REMARK    7  A    between atoms: C7_14  and  O2_15 
REMARK    8  A    between atoms: C9_18  and  N4_19 
REMARK    9  A    between atoms: N7_28  and  C12_29 
REMARK   10  A    between atoms: C12_29  and  C13_30 
REMARK   11  A    between atoms: C13_30  and  O3_31 
ROOT
HETATM    1  C2  UNL     1      45.291  16.261  16.040  1.00  0.00     0.683 A 
HETATM    2  N2  UNL     1      46.466  16.795  15.672  1.00  0.00    -0.176 N 
ATOM      3  H2  UNL     1      47.291  16.197  15.633  1.00  0.00     0.186 HD
HETATM    4  C3  UNL     1      46.589  18.112  15.352  1.00  0.00     0.134 A 
HETATM    5  N3  UNL     1      47.720  18.620  15.000  1.00  0.00    -0.373 N 
ATOM      6  H3  UNL     1      47.758  19.613  14.770  1.00  0.00     0.161 HD
HETATM    7  C8  UNL     1      45.477  18.905  15.407  1.00  0.00     0.097 A 
HETATM    8  C9  UNL     1      45.579  20.231  15.090  1.00  0.00     0.117 A 
HETATM    9  N5  UNL     1      44.484  21.005  15.147  1.00  0.00    -0.338 N 
ATOM     10  H5  UNL     1      44.541  21.996  14.913  1.00  0.00     0.168 HD
HETATM   11  C10 UNL     1      43.308  20.460  15.516  1.00  0.00     0.183 A 
HETATM   12  N6  UNL     1      43.198  19.157  15.832  1.00  0.00    -0.337 N 
ATOM     13  H6  UNL     1      42.288  18.787  16.107  1.00  0.00     0.168 HD
HETATM   14  C11 UNL     1      44.263  18.329  15.792  1.00  0.00     0.142 A 
HETATM   15  N7  UNL     1      44.183  17.021  16.102  1.00  0.00    -0.165 N 
ENDROOT
BRANCH   5  16
HETATM   16  C4  UNL     1      48.937  17.846  14.917  1.00  0.00     0.147 C 
BRANCH  16  17
HETATM   17  C5  UNL     1      50.109  18.744  15.257  1.00  0.00     0.187 C 
BRANCH  17  18
HETATM   18  O1  UNL     1      49.767  20.088  15.180  1.00  0.00    -0.387 OA
BRANCH  18  19
HETATM   19  C6  UNL     1      50.665  20.718  14.337  1.00  0.00     0.193 C 
BRANCH  19  20
HETATM   20  C7  UNL     1      50.215  20.699  12.895  1.00  0.00     0.190 C 
BRANCH  20  21
HETATM   21  O2  UNL     1      48.823  20.730  12.870  1.00  0.00    -0.399 OA
ATOM     22  H2  UNL     1      48.548  21.563  12.505  1.00  0.00     0.209 HD
ENDBRANCH  20  21
ENDBRANCH  19  20
ENDBRANCH  18  19
ENDBRANCH  17  18
ENDBRANCH  16  17
ENDBRANCH   5  16
BRANCH   1  23
HETATM   23  N1  UNL     1      45.239  15.013  16.329  1.00  0.00    -0.230 N 
HETATM   24  C1  UNL     1      45.859  14.388  17.446  1.00  0.00     0.165 C 
ATOM     25  H1  UNL     1      44.703  14.414  15.701  1.00  0.00     0.177 HD
ENDBRANCH   1  23
BRANCH   8  26
HETATM   26  N4  UNL     1      46.737  20.692  14.743  1.00  0.00    -0.385 N 
ATOM     27  H42 UNL     1      46.879  21.664  14.469  1.00  0.00     0.157 HD
ATOM     28  H41 UNL     1      47.534  20.055  14.747  1.00  0.00     0.157 HD
ENDBRANCH   8  26
BRANCH  15  29
HETATM   29  C12 UNL     1      42.909  16.497  16.488  1.00  0.00     0.175 C 
BRANCH  29  30
HETATM   30  C13 UNL     1      42.049  16.058  15.336  1.00  0.00     0.185 C 
BRANCH  30  31
HETATM   31  O3  UNL     1      42.713  15.324  14.385  1.00  0.00    -0.399 OA
ATOM     32  H3  UNL     1      43.178  14.571  14.730  1.00  0.00     0.209 HD
ENDBRANCH  30  31
ENDBRANCH  29  30
ENDBRANCH  15  29
TORSDOF 11
ENDMDL
MODEL 4
REMARK VINA RESULT: -4.402242603      2.432      5.974
REMARK  11 active torsions:
REMARK  status: ('A' for Active; 'I' for Inactive)
REMARK    1  A    between atoms: N1_2  and  C2_4 
REMARK    2  A    between atoms: N3_8  and  C4_10 
REMARK    3  A    between atoms: C4_10  and  C5_11 
REMARK    4  A    between atoms: C5_11  and  O1_12 
REMARK    5  A    between atoms: O1_12  and  C6_13 
REMARK    6  A    between atoms: C6_13  and  C7_14 
REMARK    7  A    between atoms: C7_14  and  O2_15 
REMARK    8  A    between atoms: C9_18  and  N4_19 
REMARK    9  A    between atoms: N7_28  and  C12_29 
REMARK   10  A    between atoms: C12_29  and  C13_30 
REMARK   11  A    between atoms: C13_30  and  O3_31 
ROOT
HETATM    1  C2  UNL     1      43.364  13.299  17.708  1.00  0.00     0.683 A 
HETATM    2  N2  UNL     1      44.081  14.305  17.184  1.00  0.00    -0.176 N 
ATOM      3  H2  UNL     1      43.647  14.911  16.487  1.00  0.00     0.186 HD
HETATM    4  C3  UNL     1      45.369  14.541  17.554  1.00  0.00     0.134 A 
HETATM    5  N3  UNL     1      46.052  15.509  17.047  1.00  0.00    -0.373 N 
ATOM      6  H3  UNL     1      47.014  15.643  17.359  1.00  0.00     0.161 HD
HETATM    7  C8  UNL     1      45.941  13.725  18.489  1.00  0.00     0.097 A 
HETATM    8  C9  UNL     1      47.233  13.944  18.875  1.00  0.00     0.117 A 
HETATM    9  N5  UNL     1      47.789  13.138  19.793  1.00  0.00    -0.338 N 
ATOM     10  H5  UNL     1      48.753  13.287  20.093  1.00  0.00     0.168 HD
HETATM   11  C10 UNL     1      47.063  12.130  20.315  1.00  0.00     0.183 A 
HETATM   12  N6  UNL     1      45.791  11.906  19.941  1.00  0.00    -0.337 N 
ATOM     13  H6  UNL     1      45.278  11.130  20.361  1.00  0.00     0.168 HD
HETATM   14  C11 UNL     1      45.177  12.682  19.023  1.00  0.00     0.142 A 
HETATM   15  N7  UNL     1      43.905  12.481  18.630  1.00  0.00    -0.165 N 
ENDROOT
BRANCH   5  16
HETATM   16  C4  UNL     1      45.517  16.414  16.056  1.00  0.00     0.147 C 
BRANCH  16  17
HETATM   17  C5  UNL     1      44.851  17.575  16.767  1.00  0.00     0.187 C 
BRANCH  17  18
HETATM   18  O1  UNL     1      43.487  17.366  16.928  1.00  0.00    -0.387 OA
BRANCH  18  19
HETATM   19  C6  UNL     1      42.867  17.575  15.710  1.00  0.00     0.193 C 
BRANCH  19  20
HETATM   20  C7  UNL     1      41.816  16.533  15.410  1.00  0.00     0.190 C 
BRANCH  20  21
HETATM   21  O2  UNL     1      42.454  15.390  14.936  1.00  0.00    -0.399 OA
ATOM     22  H2  UNL     1      42.905  15.612  14.129  1.00  0.00     0.209 HD
ENDBRANCH  20  21
ENDBRANCH  19  20
ENDBRANCH  18  19
ENDBRANCH  17  18
ENDBRANCH  16  17
ENDBRANCH   5  16
BRANCH   1  23
HETATM   23  N1  UNL     1      42.155  13.128  17.319  1.00  0.00    -0.230 N 
HETATM   24  C1  UNL     1      41.018  13.844  17.784  1.00  0.00     0.165 C 
ATOM     25  H1  UNL     1      41.994  12.412  16.611  1.00  0.00     0.177 HD
ENDBRANCH   1  23
BRANCH   8  26
HETATM   26  N4  UNL     1      47.877  14.929  18.336  1.00  0.00    -0.385 N 
ATOM     27  H42 UNL     1      48.893  15.008  18.379  1.00  0.00     0.157 HD
ATOM     28  H41 UNL     1      47.341  15.650  17.850  1.00  0.00     0.157 HD
ENDBRANCH   8  26
BRANCH  15  29
HETATM   29  C12 UNL     1      43.182  11.396  19.217  1.00  0.00     0.175 C 
BRANCH  29  30
HETATM   30  C13 UNL     1      43.210  10.128  18.410  1.00  0.00     0.185 C 
BRANCH  30  31
HETATM   31  O3  UNL     1      42.122   9.958  17.592  1.00  0.00    -0.399 OA
ATOM     32  H3  UNL     1      41.506  10.681  17.606  1.00  0.00     0.209 HD
ENDBRANCH  30  31
ENDBRANCH  29  30
ENDBRANCH  15  29
TORSDOF 11
ENDMDL
MODEL 5
REMARK VINA RESULT: -4.363127271      4.698      7.144
REMARK  11 active torsions:
REMARK  status: ('A' for Active; 'I' for Inactive)
REMARK    1  A    between atoms: N1_2  and  C2_4 
REMARK    2  A    between atoms: N3_8  and  C4_10 
REMARK    3  A    between atoms: C4_10  and  C5_11 
REMARK    4  A    between atoms: C5_11  and  O1_12 
REMARK    5  A    between atoms: O1_12  and  C6_13 
REMARK    6  A    between atoms: C6_13  and  C7_14 
REMARK    7  A    between atoms: C7_14  and  O2_15 
REMARK    8  A    between atoms: C9_18  and  N4_19 
REMARK    9  A    between atoms: N7_28  and  C12_29 
REMARK   10  A    between atoms: C12_29  and  C13_30 
REMARK   11  A    between atoms: C13_30  and  O3_31 
ROOT
HETATM    1  C2  UNL     1      38.466  11.469  19.809  1.00  0.00     0.683 A 
HETATM    2  N2  UNL     1      37.124  11.496  19.811  1.00  0.00    -0.176 N 
ATOM      3  H2  UNL     1      36.641  12.108  19.154  1.00  0.00     0.186 HD
HETATM    4  C3  UNL     1      36.390  10.732  20.665  1.00  0.00     0.134 A 
HETATM    5  N3  UNL     1      35.102  10.762  20.662  1.00  0.00    -0.373 N 
ATOM      6  H3  UNL     1      34.599  10.169  21.323  1.00  0.00     0.161 HD
HETATM    7  C8  UNL     1      37.047   9.914  21.541  1.00  0.00     0.097 A 
HETATM    8  C9  UNL     1      36.329   9.139  22.407  1.00  0.00     0.117 A 
HETATM    9  N5  UNL     1      36.981   8.339  23.266  1.00  0.00    -0.338 N 
ATOM     10  H5  UNL     1      36.461   7.753  23.919  1.00  0.00     0.168 HD
HETATM   11  C10 UNL     1      38.328   8.317  23.257  1.00  0.00     0.183 A 
HETATM   12  N6  UNL     1      39.044   9.077  22.409  1.00  0.00    -0.337 N 
ATOM     13  H6  UNL     1      40.062   9.031  22.437  1.00  0.00     0.168 HD
HETATM   14  C11 UNL     1      38.446   9.901  21.523  1.00  0.00     0.142 A 
HETATM   15  N7  UNL     1      39.136  10.673  20.662  1.00  0.00    -0.165 N 
ENDROOT
BRANCH   5  16
HETATM   16  C4  UNL     1      34.337  11.598  19.766  1.00  0.00     0.147 C 
BRANCH  16  17
HETATM   17  C5  UNL     1      33.022  10.909  19.462  1.00  0.00     0.187 C 
BRANCH  17  18
HETATM   18  O1  UNL     1      32.940   9.664  20.071  1.00  0.00    -0.387 OA
BRANCH  18  19
HETATM   19  C6  UNL     1      31.747   9.597  20.766  1.00  0.00     0.193 C 
BRANCH  19  20
HETATM   20  C7  UNL     1      31.372   8.181  21.136  1.00  0.00     0.190 C 
BRANCH  20  21
HETATM   21  O2  UNL     1      31.353   7.414  19.974  1.00  0.00    -0.399 OA
ATOM     22  H2  UNL     1      31.874   7.858  19.315  1.00  0.00     0.209 HD
ENDBRANCH  20  21
ENDBRANCH  19  20
ENDBRANCH  18  19
ENDBRANCH  17  18
ENDBRANCH  16  17
ENDBRANCH   5  16
BRANCH   1  23
HETATM   23  N1  UNL     1      39.102  12.212  18.981  1.00  0.00    -0.230 N 
HETATM   24  C1  UNL     1      38.848  12.315  17.585  1.00  0.00     0.165 C 
ATOM     25  H1  UNL     1      39.858  12.783  19.357  1.00  0.00     0.177 HD
ENDBRANCH   1  23
BRANCH   8  26
HETATM   26  N4  UNL     1      35.037   9.205  22.365  1.00  0.00    -0.385 N 
ATOM     27  H42 UNL     1      34.444   8.768  23.070  1.00  0.00     0.157 HD
ATOM     28  H41 UNL     1      34.603   9.717  21.596  1.00  0.00     0.157 HD
ENDBRANCH   8  26
BRANCH  15  29
HETATM   29  C12 UNL     1      40.564  10.610  20.698  1.00  0.00     0.175 C 
BRANCH  29  30
HETATM   30  C13 UNL     1      41.158   9.574  19.784  1.00  0.00     0.185 C 
BRANCH  30  31
HETATM   31  O3  UNL     1      41.347  10.002  18.494  1.00  0.00    -0.399 OA
ATOM     32  H3  UNL     1      42.152  10.488  18.359  1.00  0.00     0.209 HD
ENDBRANCH  30  31
ENDBRANCH  29  30
ENDBRANCH  15  29
TORSDOF 11
ENDMDL
