MODEL 1
REMARK VINA RESULT: -6.760528765      0.000      0.000
REMARK  4 active torsions:
REMARK  status: ('A' for Active; 'I' for Inactive)
REMARK       I    between atoms: N1_2  and  C2_4 
REMARK       I    between atoms: C2_4  and  N2_5 
REMARK       I    between atoms: C2_4  and  N5_11 
REMARK    1  A    between atoms: N2_5  and  N3_7 
REMARK       I    between atoms: N3_7  and  C3_8 
REMARK    2  A    between atoms: N5_11  and  N6_13 
REMARK       I    between atoms: N6_13  and  C4_15 
REMARK    3  A    between atoms: C4_15  and  C5_17 
REMARK    4  A    between atoms: C5_17  and  N7_18 
ROOT
HETATM    1  C1  UNL     1      37.934   5.132 107.486  1.00  0.00     0.121 C 
HETATM    2  N1  UNL     1      38.018   5.081 106.138  1.00  0.00    -0.345 N 
ATOM      3  H1  UNL     1      38.985   5.296 105.896  1.00  0.00     0.167 HD
HETATM    4  C2  UNL     1      37.443   4.891 105.111  1.00  0.00     0.223 C 
HETATM    5  N2  UNL     1      36.047   4.550 104.918  1.00  0.00    -0.198 N 
ATOM      6  H2  UNL     1      35.791   3.582 105.112  1.00  0.00     0.205 HD
HETATM    7  N5  UNL     1      38.170   4.961 103.853  1.00  0.00    -0.266 N 
ATOM      8  H5  UNL     1      38.028   5.704 103.169  1.00  0.00     0.190 HD
ENDROOT
BRANCH   7   9
HETATM    9  N6  UNL     1      39.081   3.918 103.667  1.00  0.00    -0.263 N 
HETATM   10  C4  UNL     1      39.756   3.833 102.421  1.00  0.00     0.275 C 
HETATM   11  O2  UNL     1      39.527   4.704 101.530  1.00  0.00    -0.265 OA
ATOM     12  H6  UNL     1      39.256   3.237 104.407  1.00  0.00     0.190 HD
BRANCH  10  13
HETATM   13  C5  UNL     1      40.731   2.758 102.108  1.00  0.00     0.162 C 
BRANCH  13  14
HETATM   14  N7  UNL     1      40.102   1.634 101.554  1.00  0.00    -0.385 N 
HETATM   15  C6  UNL     1      38.734   1.395 101.859  1.00  0.00     0.122 C 
HETATM   16  C7  UNL     1      38.861   0.411 103.040  1.00  0.00     0.021 C 
HETATM   17  C8  UNL     1      40.003  -0.470 102.564  1.00  0.00     0.021 C 
HETATM   18  C9  UNL     1      40.787   0.392 101.576  1.00  0.00     0.122 C 
ENDBRANCH  13  14
ENDBRANCH  10  13
ENDBRANCH   7   9
BRANCH   5  19
HETATM   19  N3  UNL     1      35.071   5.341 104.523  1.00  0.00    -0.265 NA
HETATM   20  C3  UNL     1      34.067   6.156 104.106  1.00  0.00     0.424 C 
HETATM   21  N4  UNL     1      33.107   6.656 105.100  1.00  0.00    -0.024 NA
HETATM   22  O1  UNL     1      33.819   6.577 102.932  1.00  0.00    -0.232 OA
ENDBRANCH   5  19
TORSDOF 4
ENDMDL
MODEL 2
REMARK VINA RESULT: -6.094833699      1.158      1.465
REMARK  4 active torsions:
REMARK  status: ('A' for Active; 'I' for Inactive)
REMARK       I    between atoms: N1_2  and  C2_4 
REMARK       I    between atoms: C2_4  and  N2_5 
REMARK       I    between atoms: C2_4  and  N5_11 
REMARK    1  A    between atoms: N2_5  and  N3_7 
REMARK       I    between atoms: N3_7  and  C3_8 
REMARK    2  A    between atoms: N5_11  and  N6_13 
REMARK       I    between atoms: N6_13  and  C4_15 
REMARK    3  A    between atoms: C4_15  and  C5_17 
REMARK    4  A    between atoms: C5_17  and  N7_18 
ROOT
HETATM    1  C1  UNL     1      37.813   3.143 106.849  1.00  0.00     0.121 C 
HETATM    2  N1  UNL     1      37.963   3.876 105.723  1.00  0.00    -0.345 N 
ATOM      3  H1  UNL     1      38.900   4.276 105.757  1.00  0.00     0.167 HD
HETATM    4  C2  UNL     1      37.467   4.253 104.707  1.00  0.00     0.223 C 
HETATM    5  N2  UNL     1      36.143   3.958 104.196  1.00  0.00    -0.198 N 
ATOM      6  H2  UNL     1      36.016   3.034 103.784  1.00  0.00     0.205 HD
HETATM    7  N5  UNL     1      38.232   5.092 103.798  1.00  0.00    -0.266 N 
ATOM      8  H5  UNL     1      38.018   6.076 103.635  1.00  0.00     0.190 HD
ENDROOT
BRANCH   7   9
HETATM    9  N6  UNL     1      39.288   4.427 103.169  1.00  0.00    -0.263 N 
HETATM   10  C4  UNL     1      38.975   3.368 102.275  1.00  0.00     0.275 C 
HETATM   11  O2  UNL     1      37.762   3.072 102.065  1.00  0.00    -0.265 OA
ATOM     12  H6  UNL     1      40.256   4.696 103.346  1.00  0.00     0.190 HD
BRANCH  10  13
HETATM   13  C5  UNL     1      40.017   2.583 101.566  1.00  0.00     0.162 C 
BRANCH  13  14
HETATM   14  N7  UNL     1      40.414   1.462 102.307  1.00  0.00    -0.385 N 
HETATM   15  C6  UNL     1      41.258   0.498 101.691  1.00  0.00     0.122 C 
HETATM   16  C7  UNL     1      40.219  -0.530 101.195  1.00  0.00     0.021 C 
HETATM   17  C8  UNL     1      39.261  -0.569 102.373  1.00  0.00     0.021 C 
HETATM   18  C9  UNL     1      39.439   0.775 103.077  1.00  0.00     0.122 C 
ENDBRANCH  13  14
ENDBRANCH  10  13
ENDBRANCH   7   9
BRANCH   5  19
HETATM   19  N3  UNL     1      35.083   4.742 104.200  1.00  0.00    -0.265 NA
HETATM   20  C3  UNL     1      33.987   5.543 104.197  1.00  0.00     0.424 C 
HETATM   21  N4  UNL     1      33.962   6.705 105.098  1.00  0.00    -0.024 NA
HETATM   22  O1  UNL     1      32.929   5.443 103.499  1.00  0.00    -0.232 OA
ENDBRANCH   5  19
TORSDOF 4
ENDMDL
MODEL 3
REMARK VINA RESULT: -5.969557254      1.383      1.769
REMARK  4 active torsions:
REMARK  status: ('A' for Active; 'I' for Inactive)
REMARK       I    between atoms: N1_2  and  C2_4 
REMARK       I    between atoms: C2_4  and  N2_5 
REMARK       I    between atoms: C2_4  and  N5_11 
REMARK    1  A    between atoms: N2_5  and  N3_7 
REMARK       I    between atoms: N3_7  and  C3_8 
REMARK    2  A    between atoms: N5_11  and  N6_13 
REMARK       I    between atoms: N6_13  and  C4_15 
REMARK    3  A    between atoms: C4_15  and  C5_17 
REMARK    4  A    between atoms: C5_17  and  N7_18 
ROOT
HETATM    1  C1  UNL     1      37.739   5.215 107.538  1.00  0.00     0.121 C 
HETATM    2  N1  UNL     1      37.761   5.009 106.202  1.00  0.00    -0.345 N 
ATOM      3  H1  UNL     1      38.708   5.222 105.889  1.00  0.00     0.167 HD
HETATM    4  C2  UNL     1      37.146   4.685 105.234  1.00  0.00     0.223 C 
HETATM    5  N2  UNL     1      35.754   4.286 105.153  1.00  0.00    -0.198 N 
ATOM      6  H2  UNL     1      35.540   3.340 105.469  1.00  0.00     0.205 HD
HETATM    7  N5  UNL     1      37.810   4.629 103.942  1.00  0.00    -0.266 N 
ATOM      8  H5  UNL     1      37.611   5.283 103.185  1.00  0.00     0.190 HD
ENDROOT
BRANCH   7   9
HETATM    9  N6  UNL     1      38.746   3.597 103.832  1.00  0.00    -0.263 N 
HETATM   10  C4  UNL     1      38.267   2.282 103.586  1.00  0.00     0.275 C 
HETATM   11  O2  UNL     1      37.022   2.089 103.460  1.00  0.00    -0.265 OA
ATOM     12  H6  UNL     1      39.744   3.783 103.925  1.00  0.00     0.190 HD
BRANCH  10  13
HETATM   13  C5  UNL     1      39.170   1.109 103.469  1.00  0.00     0.162 C 
BRANCH  13  14
HETATM   14  N7  UNL     1      39.543   0.874 102.138  1.00  0.00    -0.385 N 
HETATM   15  C6  UNL     1      39.851  -0.455 101.738  1.00  0.00     0.122 C 
HETATM   16  C7  UNL     1      41.387  -0.461 101.890  1.00  0.00     0.021 C 
HETATM   17  C8  UNL     1      41.740   0.911 101.344  1.00  0.00     0.021 C 
HETATM   18  C9  UNL     1      40.477   1.752 101.529  1.00  0.00     0.122 C 
ENDBRANCH  13  14
ENDBRANCH  10  13
ENDBRANCH   7   9
BRANCH   5  19
HETATM   19  N3  UNL     1      34.734   4.998 104.719  1.00  0.00    -0.265 NA
HETATM   20  C3  UNL     1      33.682   5.725 104.264  1.00  0.00     0.424 C 
HETATM   21  N4  UNL     1      33.303   6.946 104.990  1.00  0.00    -0.024 NA
HETATM   22  O1  UNL     1      32.938   5.506 103.255  1.00  0.00    -0.232 OA
ENDBRANCH   5  19
TORSDOF 4
ENDMDL
MODEL 4
REMARK VINA RESULT: -5.840249081      2.864      7.529
REMARK  4 active torsions:
REMARK  status: ('A' for Active; 'I' for Inactive)
REMARK       I    between atoms: N1_2  and  C2_4 
REMARK       I    between atoms: C2_4  and  N2_5 
REMARK       I    between atoms: C2_4  and  N5_11 
REMARK    1  A    between atoms: N2_5  and  N3_7 
REMARK       I    between atoms: N3_7  and  C3_8 
REMARK    2  A    between atoms: N5_11  and  N6_13 
REMARK       I    between atoms: N6_13  and  C4_15 
REMARK    3  A    between atoms: C4_15  and  C5_17 
REMARK    4  A    between atoms: C5_17  and  N7_18 
ROOT
HETATM    1  C1  UNL     1      38.877  -0.892 102.599  1.00  0.00     0.121 C 
HETATM    2  N1  UNL     1      39.558   0.183 102.142  1.00  0.00    -0.345 N 
ATOM      3  H1  UNL     1      38.861   0.868 101.849  1.00  0.00     0.167 HD
HETATM    4  C2  UNL     1      40.625   0.672 101.937  1.00  0.00     0.223 C 
HETATM    5  N2  UNL     1      41.933   0.098 102.186  1.00  0.00    -0.198 N 
ATOM      6  H2  UNL     1      42.245   0.097 103.158  1.00  0.00     0.205 HD
HETATM    7  N5  UNL     1      40.711   2.020 101.398  1.00  0.00    -0.266 N 
ATOM      8  H5  UNL     1      41.038   2.222 100.454  1.00  0.00     0.190 HD
ENDROOT
BRANCH   7   9
HETATM    9  N6  UNL     1      40.302   3.013 102.292  1.00  0.00    -0.263 N 
HETATM   10  C4  UNL     1      38.909   3.246 102.443  1.00  0.00     0.275 C 
HETATM   11  O2  UNL     1      38.088   2.544 101.783  1.00  0.00    -0.265 OA
ATOM     12  H6  UNL     1      40.985   3.555 102.822  1.00  0.00     0.190 HD
BRANCH  10  13
HETATM   13  C5  UNL     1      38.364   4.287 103.351  1.00  0.00     0.162 C 
BRANCH  13  14
HETATM   14  N7  UNL     1      37.776   3.723 104.491  1.00  0.00    -0.385 N 
HETATM   15  C6  UNL     1      37.273   4.588 105.501  1.00  0.00     0.122 C 
HETATM   16  C7  UNL     1      38.472   4.639 106.471  1.00  0.00     0.021 C 
HETATM   17  C8  UNL     1      38.922   3.189 106.455  1.00  0.00     0.021 C 
HETATM   18  C9  UNL     1      38.426   2.631 105.122  1.00  0.00     0.122 C 
ENDBRANCH  13  14
ENDBRANCH  10  13
ENDBRANCH   7   9
BRANCH   5  19
HETATM   19  N3  UNL     1      42.767  -0.422 101.309  1.00  0.00    -0.265 NA
HETATM   20  C3  UNL     1      43.626  -0.949 100.399  1.00  0.00     0.424 C 
HETATM   21  N4  UNL     1      44.215  -2.268 100.669  1.00  0.00    -0.024 NA
HETATM   22  O1  UNL     1      44.015  -0.457  99.292  1.00  0.00    -0.232 OA
ENDBRANCH   5  19
TORSDOF 4
ENDMDL
MODEL 5
REMARK VINA RESULT: -5.743838058      2.727      7.051
REMARK  4 active torsions:
REMARK  status: ('A' for Active; 'I' for Inactive)
REMARK       I    between atoms: N1_2  and  C2_4 
REMARK       I    between atoms: C2_4  and  N2_5 
REMARK       I    between atoms: C2_4  and  N5_11 
REMARK    1  A    between atoms: N2_5  and  N3_7 
REMARK       I    between atoms: N3_7  and  C3_8 
REMARK    2  A    between atoms: N5_11  and  N6_13 
REMARK       I    between atoms: N6_13  and  C4_15 
REMARK    3  A    between atoms: C4_15  and  C5_17 
REMARK    4  A    between atoms: C5_17  and  N7_18 
ROOT
HETATM    1  C1  UNL     1      40.019   4.561 101.908  1.00  0.00     0.121 C 
HETATM    2  N1  UNL     1      39.727   3.431 102.590  1.00  0.00    -0.345 N 
ATOM      3  H1  UNL     1      39.495   3.716 103.542  1.00  0.00     0.167 HD
HETATM    4  C2  UNL     1      39.625   2.245 102.553  1.00  0.00     0.223 C 
HETATM    5  N2  UNL     1      39.848   1.364 101.423  1.00  0.00    -0.198 N 
ATOM      6  H2  UNL     1      39.107   1.337 100.722  1.00  0.00     0.205 HD
HETATM    7  N5  UNL     1      39.199   1.519 103.739  1.00  0.00    -0.266 N 
ATOM      8  H5  UNL     1      39.819   0.908 104.270  1.00  0.00     0.190 HD
ENDROOT
BRANCH   7   9
HETATM    9  N6  UNL     1      37.863   1.737 104.086  1.00  0.00    -0.263 N 
HETATM   10  C4  UNL     1      37.569   2.797 104.985  1.00  0.00     0.275 C 
HETATM   11  O2  UNL     1      38.513   3.516 105.427  1.00  0.00    -0.265 OA
ATOM     12  H6  UNL     1      37.120   1.151 103.705  1.00  0.00     0.190 HD
BRANCH  10  13
HETATM   13  C5  UNL     1      36.188   3.107 105.435  1.00  0.00     0.162 C 
BRANCH  13  14
HETATM   14  N7  UNL     1      35.335   3.359 104.352  1.00  0.00    -0.385 N 
HETATM   15  C6  UNL     1      35.792   4.200 103.301  1.00  0.00     0.122 C 
HETATM   16  C7  UNL     1      35.207   5.561 103.735  1.00  0.00     0.021 C 
HETATM   17  C8  UNL     1      33.832   5.143 104.226  1.00  0.00     0.021 C 
HETATM   18  C9  UNL     1      33.976   3.673 104.615  1.00  0.00     0.122 C 
ENDBRANCH  13  14
ENDBRANCH  10  13
ENDBRANCH   7   9
BRANCH   5  19
HETATM   19  N3  UNL     1      40.891   0.593 101.195  1.00  0.00    -0.265 NA
HETATM   20  C3  UNL     1      41.961  -0.207 100.952  1.00  0.00     0.424 C 
HETATM   21  N4  UNL     1      43.194   0.014 101.721  1.00  0.00    -0.024 NA
HETATM   22  O1  UNL     1      42.067  -1.167 100.125  1.00  0.00    -0.232 OA
ENDBRANCH   5  19
TORSDOF 4
ENDMDL
