MODEL 1
REMARK VINA RESULT: -7.954614560      0.000      0.000
REMARK  5 active torsions:
REMARK  status: ('A' for Active; 'I' for Inactive)
REMARK    1  A    between atoms: C2_2  and  C3_3 
REMARK    2  A    between atoms: C3_3  and  C4_4 
REMARK    3  A    between atoms: C4_4  and  C5_5 
REMARK    4  A    between atoms: N1_7  and  N2_9 
REMARK       I    between atoms: C7_11  and  N3_12 
REMARK       I    between atoms: C7_11  and  N6_17 
REMARK       I    between atoms: N6_17  and  C9_18 
REMARK    5  A    between atoms: N8_21  and  N9_23 
ROOT
HETATM    1  C5  UNL     1      39.382   3.491 102.801  1.00  0.00     0.000 C 
HETATM    2  C6  UNL     1      40.805   3.119 102.841  1.00  0.00     0.065 C 
HETATM    3  N1  UNL     1      38.993   4.653 103.195  1.00  0.00    -0.306 N 
ATOM      4  H1  UNL     1      39.651   5.345 103.552  1.00  0.00     0.186 HD
ENDROOT
BRANCH   3   5
HETATM    5  N2  UNL     1      37.619   4.921 103.109  1.00  0.00    -0.259 N 
HETATM    6  C7  UNL     1      36.891   5.074 104.227  1.00  0.00     0.280 C 
HETATM    7  N3  UNL     1      35.526   5.340 103.893  1.00  0.00    -0.291 N 
HETATM    8  N6  UNL     1      37.532   4.965 105.391  1.00  0.00    -0.317 NA
HETATM    9  C8  UNL     1      34.521   4.650 104.243  1.00  0.00     0.204 C 
ATOM     10  H3  UNL     1      35.343   6.163 103.319  1.00  0.00     0.172 HD
HETATM   11  N4  UNL     1      34.656   3.489 105.039  1.00  0.00    -0.066 NA
HETATM   12  N5  UNL     1      33.221   5.050 103.827  1.00  0.00    -0.066 NA
HETATM   13  C9  UNL     1      38.177   4.854 106.567  1.00  0.00     0.408 C 
HETATM   14  N7  UNL     1      39.616   4.587 106.628  1.00  0.00    -0.025 NA
HETATM   15  O1  UNL     1      37.696   4.951 107.740  1.00  0.00    -0.234 OA
ATOM     16  H2  UNL     1      37.172   4.998 102.195  1.00  0.00     0.191 HD
ENDBRANCH   3   5
BRANCH   1  17
HETATM   17  C4  UNL     1      38.381   2.535 102.294  1.00  0.00     0.059 C 
BRANCH  17  18
HETATM   18  C3  UNL     1      38.353   1.331 103.231  1.00  0.00     0.059 C 
BRANCH  18  19
HETATM   19  C2  UNL     1      38.984   0.198 102.531  1.00  0.00    -0.001 C 
HETATM   20  C1  UNL     1      38.559  -1.167 102.924  1.00  0.00     0.065 C 
HETATM   21  N8  UNL     1      39.860   0.405 101.615  1.00  0.00    -0.316 N 
ATOM     22  H8  UNL     1      40.121   1.362 101.379  1.00  0.00     0.185 HD
BRANCH  21  23
HETATM   23  N9  UNL     1      40.459  -0.650 100.940  1.00  0.00    -0.345 N 
ATOM     24  H92 UNL     1      40.036  -1.575 101.016  1.00  0.00     0.176 HD
ATOM     25  H91 UNL     1      41.300  -0.511 100.381  1.00  0.00     0.176 HD
ENDBRANCH  21  23
ENDBRANCH  18  19
ENDBRANCH  17  18
ENDBRANCH   1  17
TORSDOF 5
ENDMDL
MODEL 2
REMARK VINA RESULT: -7.148127759      1.042      1.241
REMARK  5 active torsions:
REMARK  status: ('A' for Active; 'I' for Inactive)
REMARK    1  A    between atoms: C2_2  and  C3_3 
REMARK    2  A    between atoms: C3_3  and  C4_4 
REMARK    3  A    between atoms: C4_4  and  C5_5 
REMARK    4  A    between atoms: N1_7  and  N2_9 
REMARK       I    between atoms: C7_11  and  N3_12 
REMARK       I    between atoms: C7_11  and  N6_17 
REMARK       I    between atoms: N6_17  and  C9_18 
REMARK    5  A    between atoms: N8_21  and  N9_23 
ROOT
HETATM    1  C5  UNL     1      40.069   3.630 102.663  1.00  0.00     0.000 C 
HETATM    2  C6  UNL     1      41.510   3.422 102.876  1.00  0.00     0.065 C 
HETATM    3  N1  UNL     1      39.450   4.601 103.239  1.00  0.00    -0.306 N 
ATOM      4  H1  UNL     1      39.933   5.248 103.862  1.00  0.00     0.186 HD
ENDROOT
BRANCH   3   5
HETATM    5  N2  UNL     1      38.080   4.725 102.966  1.00  0.00    -0.259 N 
HETATM    6  C7  UNL     1      37.200   4.834 103.975  1.00  0.00     0.280 C 
HETATM    7  N3  UNL     1      35.871   4.951 103.458  1.00  0.00    -0.291 N 
HETATM    8  N6  UNL     1      37.689   4.821 105.215  1.00  0.00    -0.317 NA
HETATM    9  C8  UNL     1      34.901   4.171 103.704  1.00  0.00     0.204 C 
ATOM     10  H3  UNL     1      35.686   5.735 102.834  1.00  0.00     0.172 HD
HETATM   11  N4  UNL     1      35.042   3.052 104.556  1.00  0.00    -0.066 NA
HETATM   12  N5  UNL     1      33.634   4.426 103.109  1.00  0.00    -0.066 NA
HETATM   13  C9  UNL     1      38.182   4.807 106.468  1.00  0.00     0.408 C 
HETATM   14  N7  UNL     1      39.620   4.689 106.724  1.00  0.00    -0.025 NA
HETATM   15  O1  UNL     1      37.544   4.886 107.565  1.00  0.00    -0.234 OA
ATOM     16  H2  UNL     1      37.752   4.732 102.001  1.00  0.00     0.191 HD
ENDBRANCH   3   5
BRANCH   1  17
HETATM   17  C4  UNL     1      39.315   2.728 101.772  1.00  0.00     0.059 C 
BRANCH  17  18
HETATM   18  C3  UNL     1      39.963   1.349 101.828  1.00  0.00     0.059 C 
BRANCH  18  19
HETATM   19  C2  UNL     1      39.061   0.454 102.574  1.00  0.00    -0.001 C 
HETATM   20  C1  UNL     1      38.153   1.076 103.567  1.00  0.00     0.065 C 
HETATM   21  N8  UNL     1      39.070  -0.811 102.353  1.00  0.00    -0.316 N 
ATOM     22  H8  UNL     1      39.713  -1.193 101.660  1.00  0.00     0.185 HD
BRANCH  21  23
HETATM   23  N9  UNL     1      38.222  -1.668 103.040  1.00  0.00    -0.345 N 
ATOM     24  H92 UNL     1      37.301  -1.859 102.643  1.00  0.00     0.176 HD
ATOM     25  H91 UNL     1      38.503  -2.100 103.919  1.00  0.00     0.176 HD
ENDBRANCH  21  23
ENDBRANCH  18  19
ENDBRANCH  17  18
ENDBRANCH   1  17
TORSDOF 5
ENDMDL
MODEL 3
REMARK VINA RESULT: -7.137643850      2.033      5.437
REMARK  5 active torsions:
REMARK  status: ('A' for Active; 'I' for Inactive)
REMARK    1  A    between atoms: C2_2  and  C3_3 
REMARK    2  A    between atoms: C3_3  and  C4_4 
REMARK    3  A    between atoms: C4_4  and  C5_5 
REMARK    4  A    between atoms: N1_7  and  N2_9 
REMARK       I    between atoms: C7_11  and  N3_12 
REMARK       I    between atoms: C7_11  and  N6_17 
REMARK       I    between atoms: N6_17  and  C9_18 
REMARK    5  A    between atoms: N8_21  and  N9_23 
ROOT
HETATM    1  C5  UNL     1      35.645   4.375 103.759  1.00  0.00     0.000 C 
HETATM    2  C6  UNL     1      34.907   5.598 104.115  1.00  0.00     0.065 C 
HETATM    3  N1  UNL     1      36.644   4.420 102.948  1.00  0.00    -0.306 N 
ATOM      4  H1  UNL     1      36.949   5.294 102.523  1.00  0.00     0.186 HD
ENDROOT
BRANCH   3   5
HETATM    5  N2  UNL     1      37.290   3.205 102.678  1.00  0.00    -0.259 N 
HETATM    6  C7  UNL     1      38.477   2.933 103.244  1.00  0.00     0.280 C 
HETATM    7  N3  UNL     1      38.939   1.646 102.827  1.00  0.00    -0.291 N 
HETATM    8  N6  UNL     1      38.990   3.857 104.058  1.00  0.00    -0.317 NA
HETATM    9  C8  UNL     1      40.028   1.400 102.223  1.00  0.00     0.204 C 
ATOM     10  H3  UNL     1      38.337   0.849 103.034  1.00  0.00     0.172 HD
HETATM   11  N4  UNL     1      40.941   2.425 101.886  1.00  0.00    -0.066 NA
HETATM   12  N5  UNL     1      40.345   0.057 101.875  1.00  0.00    -0.066 NA
HETATM   13  C9  UNL     1      39.509   4.789 104.879  1.00  0.00     0.408 C 
HETATM   14  N7  UNL     1      38.805   6.044 105.154  1.00  0.00    -0.025 NA
HETATM   15  O1  UNL     1      40.611   4.754 105.512  1.00  0.00    -0.234 OA
ATOM     16  H2  UNL     1      36.859   2.527 102.050  1.00  0.00     0.191 HD
ENDBRANCH   3   5
BRANCH   1  17
HETATM   17  C4  UNL     1      35.253   3.078 104.341  1.00  0.00     0.059 C 
BRANCH  17  18
HETATM   18  C3  UNL     1      34.904   3.300 105.809  1.00  0.00     0.059 C 
BRANCH  18  19
HETATM   19  C2  UNL     1      36.126   3.746 106.502  1.00  0.00    -0.001 C 
HETATM   20  C1  UNL     1      37.223   2.760 106.652  1.00  0.00     0.065 C 
HETATM   21  N8  UNL     1      36.222   4.948 106.944  1.00  0.00    -0.316 N 
ATOM     22  H8  UNL     1      35.441   5.591 106.817  1.00  0.00     0.185 HD
BRANCH  21  23
HETATM   23  N9  UNL     1      37.367   5.388 107.592  1.00  0.00    -0.345 N 
ATOM     24  H92 UNL     1      38.082   5.865 107.042  1.00  0.00     0.176 HD
ATOM     25  H91 UNL     1      37.499   5.242 108.593  1.00  0.00     0.176 HD
ENDBRANCH  21  23
ENDBRANCH  18  19
ENDBRANCH  17  18
ENDBRANCH   1  17
TORSDOF 5
ENDMDL
MODEL 4
REMARK VINA RESULT: -6.838597006      1.911      3.172
REMARK  5 active torsions:
REMARK  status: ('A' for Active; 'I' for Inactive)
REMARK    1  A    between atoms: C2_2  and  C3_3 
REMARK    2  A    between atoms: C3_3  and  C4_4 
REMARK    3  A    between atoms: C4_4  and  C5_5 
REMARK    4  A    between atoms: N1_7  and  N2_9 
REMARK       I    between atoms: C7_11  and  N3_12 
REMARK       I    between atoms: C7_11  and  N6_17 
REMARK       I    between atoms: N6_17  and  C9_18 
REMARK    5  A    between atoms: N8_21  and  N9_23 
ROOT
HETATM    1  C5  UNL     1      38.104   1.674 103.066  1.00  0.00     0.000 C 
HETATM    2  C6  UNL     1      38.952   0.535 103.453  1.00  0.00     0.065 C 
HETATM    3  N1  UNL     1      37.033   1.953 103.723  1.00  0.00    -0.306 N 
ATOM      4  H1  UNL     1      36.735   1.395 104.522  1.00  0.00     0.186 HD
ENDROOT
BRANCH   3   5
HETATM    5  N2  UNL     1      36.297   3.064 103.286  1.00  0.00    -0.259 N 
HETATM    6  C7  UNL     1      36.163   4.138 104.081  1.00  0.00     0.280 C 
HETATM    7  N3  UNL     1      35.379   5.140 103.426  1.00  0.00    -0.291 N 
HETATM    8  N6  UNL     1      36.755   4.091 105.274  1.00  0.00    -0.317 NA
HETATM    9  C8  UNL     1      34.291   5.636 103.851  1.00  0.00     0.204 C 
ATOM     10  H3  UNL     1      35.727   5.489 102.534  1.00  0.00     0.172 HD
HETATM   11  N4  UNL     1      33.716   5.229 105.077  1.00  0.00    -0.066 NA
HETATM   12  N5  UNL     1      33.629   6.630 103.079  1.00  0.00    -0.066 NA
HETATM   13  C9  UNL     1      37.352   4.045 106.480  1.00  0.00     0.408 C 
HETATM   14  N7  UNL     1      38.126   2.877 106.906  1.00  0.00    -0.025 NA
HETATM   15  O1  UNL     1      37.352   4.931 107.392  1.00  0.00    -0.234 OA
ATOM     16  H2  UNL     1      35.863   3.056 102.363  1.00  0.00     0.191 HD
ENDBRANCH   3   5
BRANCH   1  17
HETATM   17  C4  UNL     1      38.482   2.521 101.919  1.00  0.00     0.059 C 
BRANCH  17  18
HETATM   18  C3  UNL     1      39.862   3.109 102.195  1.00  0.00     0.059 C 
BRANCH  18  19
HETATM   19  C2  UNL     1      39.705   4.191 103.183  1.00  0.00    -0.001 C 
HETATM   20  C1  UNL     1      39.155   5.480 102.700  1.00  0.00     0.065 C 
HETATM   21  N8  UNL     1      40.030   4.003 104.411  1.00  0.00    -0.316 N 
ATOM     22  H8  UNL     1      40.404   3.099 104.697  1.00  0.00     0.185 HD
BRANCH  21  23
HETATM   23  N9  UNL     1      39.881   5.008 105.357  1.00  0.00    -0.345 N 
ATOM     24  H92 UNL     1      40.661   5.201 105.985  1.00  0.00     0.176 HD
ATOM     25  H91 UNL     1      39.016   5.543 105.429  1.00  0.00     0.176 HD
ENDBRANCH  21  23
ENDBRANCH  18  19
ENDBRANCH  17  18
ENDBRANCH   1  17
TORSDOF 5
ENDMDL
MODEL 5
REMARK VINA RESULT: -6.554142167      2.000      5.232
REMARK  5 active torsions:
REMARK  status: ('A' for Active; 'I' for Inactive)
REMARK    1  A    between atoms: C2_2  and  C3_3 
REMARK    2  A    between atoms: C3_3  and  C4_4 
REMARK    3  A    between atoms: C4_4  and  C5_5 
REMARK    4  A    between atoms: N1_7  and  N2_9 
REMARK       I    between atoms: C7_11  and  N3_12 
REMARK       I    between atoms: C7_11  and  N6_17 
REMARK       I    between atoms: N6_17  and  C9_18 
REMARK    5  A    between atoms: N8_21  and  N9_23 
ROOT
HETATM    1  C5  UNL     1      35.638   4.197 103.933  1.00  0.00     0.000 C 
HETATM    2  C6  UNL     1      34.927   5.450 104.236  1.00  0.00     0.065 C 
HETATM    3  N1  UNL     1      36.463   4.128 102.947  1.00  0.00    -0.306 N 
ATOM      4  H1  UNL     1      36.644   4.930 102.344  1.00  0.00     0.186 HD
ENDROOT
BRANCH   3   5
HETATM    5  N2  UNL     1      37.100   2.896 102.744  1.00  0.00    -0.259 N 
HETATM    6  C7  UNL     1      38.353   2.704 103.187  1.00  0.00     0.280 C 
HETATM    7  N3  UNL     1      38.791   1.380 102.870  1.00  0.00    -0.291 N 
HETATM    8  N6  UNL     1      38.939   3.723 103.816  1.00  0.00    -0.317 NA
HETATM    9  C8  UNL     1      39.804   1.073 102.169  1.00  0.00     0.204 C 
ATOM     10  H3  UNL     1      38.237   0.609 103.242  1.00  0.00     0.172 HD
HETATM   11  N4  UNL     1      40.644   2.059 101.604  1.00  0.00    -0.066 NA
HETATM   12  N5  UNL     1      40.107  -0.298 101.945  1.00  0.00    -0.066 NA
HETATM   13  C9  UNL     1      39.533   4.751 104.452  1.00  0.00     0.408 C 
HETATM   14  N7  UNL     1      38.838   6.024 104.662  1.00  0.00    -0.025 NA
HETATM   15  O1  UNL     1      40.704   4.801 104.943  1.00  0.00    -0.234 OA
ATOM     16  H2  UNL     1      36.611   2.144 102.258  1.00  0.00     0.191 HD
ENDBRANCH   3   5
BRANCH   1  17
HETATM   17  C4  UNL     1      35.420   3.002 104.768  1.00  0.00     0.059 C 
BRANCH  17  18
HETATM   18  C3  UNL     1      35.475   3.426 106.232  1.00  0.00     0.059 C 
BRANCH  18  19
HETATM   19  C2  UNL     1      36.893   3.566 106.610  1.00  0.00    -0.001 C 
HETATM   20  C1  UNL     1      37.305   4.842 107.242  1.00  0.00     0.065 C 
HETATM   21  N8  UNL     1      37.721   2.608 106.399  1.00  0.00    -0.316 N 
ATOM     22  H8  UNL     1      37.390   1.749 105.961  1.00  0.00     0.185 HD
BRANCH  21  23
HETATM   23  N9  UNL     1      39.057   2.720 106.756  1.00  0.00    -0.345 N 
ATOM     24  H92 UNL     1      39.293   2.743 107.748  1.00  0.00     0.176 HD
ATOM     25  H91 UNL     1      39.790   2.777 106.049  1.00  0.00     0.176 HD
ENDBRANCH  21  23
ENDBRANCH  18  19
ENDBRANCH  17  18
ENDBRANCH   1  17
TORSDOF 5
ENDMDL
