MODEL 1
REMARK VINA RESULT: -6.502672730      0.000      0.000
REMARK  4 active torsions:
REMARK  status: ('A' for Active; 'I' for Inactive)
REMARK       I    between atoms: C2_2  and  N1_4 
REMARK    1  A    between atoms: N1_4  and  C3_6 
REMARK    2  A    between atoms: C4_7  and  N2_8 
REMARK    3  A    between atoms: C6_13  and  C7_14 
REMARK    4  A    between atoms: C8_17  and  N5_18 
ROOT
HETATM    1  C3  UNL     1      36.707   3.394 104.094  1.00  0.00     0.117 C 
HETATM    2  C4  UNL     1      36.671   4.840 104.597  1.00  0.00     0.123 C 
HETATM    3  C6  UNL     1      37.806   4.878 105.571  1.00  0.00     0.142 C 
HETATM    4  C8  UNL     1      38.762   3.819 105.108  1.00  0.00     0.209 C 
HETATM    5  C9  UNL     1      38.157   3.222 103.830  1.00  0.00     0.004 C 
HETATM    6  C10 UNL     1      38.613   1.781 103.811  1.00  0.00     0.019 C 
HETATM    7  C11 UNL     1      38.684   4.020 102.686  1.00  0.00     0.019 C 
ENDROOT
BRANCH   1   8
HETATM    8  N1  UNL     1      35.843   3.325 102.977  1.00  0.00    -0.354 N 
HETATM    9  C2  UNL     1      34.458   3.095 102.983  1.00  0.00     0.214 C 
HETATM   10  C1  UNL     1      33.606   3.034 101.789  1.00  0.00     0.117 C 
HETATM   11  O1  UNL     1      33.901   2.930 104.099  1.00  0.00    -0.274 OA
ATOM     12  H1  UNL     1      36.275   3.457 102.062  1.00  0.00     0.162 HD
ENDBRANCH   1   8
BRANCH   2  13
HETATM   13  N2  UNL     1      35.404   5.199 105.143  1.00  0.00    -0.359 N 
HETATM   14  C5  UNL     1      34.654   5.996 104.430  1.00  0.00     0.197 C 
HETATM   15  N3  UNL     1      35.026   6.505 103.177  1.00  0.00    -0.067 NA
HETATM   16  N4  UNL     1      33.392   6.352 104.977  1.00  0.00    -0.067 NA
ATOM     17  H2  UNL     1      35.098   4.849 106.051  1.00  0.00     0.162 HD
ENDBRANCH   2  13
BRANCH   3  18
HETATM   18  C7  UNL     1      37.368   4.662 106.958  1.00  0.00     0.181 C 
HETATM   19  O2  UNL     1      37.326   3.504 107.414  1.00  0.00    -0.648 OA
HETATM   20  O3  UNL     1      37.005   5.723 107.755  1.00  0.00    -0.648 OA
ENDBRANCH   3  18
BRANCH   4  21
HETATM   21  N5  UNL     1      40.081   4.342 104.872  1.00  0.00    -0.073 N 
ATOM     22  H53 UNL     1      40.099   4.938 104.044  1.00  0.00     0.274 HD
ATOM     23  H52 UNL     1      40.335   5.035 105.575  1.00  0.00     0.274 HD
ATOM     24  H51 UNL     1      40.784   3.605 104.810  1.00  0.00     0.274 HD
ENDBRANCH   4  21
TORSDOF 4
ENDMDL
MODEL 2
REMARK VINA RESULT: -6.496583027      2.003      3.457
REMARK  4 active torsions:
REMARK  status: ('A' for Active; 'I' for Inactive)
REMARK       I    between atoms: C2_2  and  N1_4 
REMARK    1  A    between atoms: N1_4  and  C3_6 
REMARK    2  A    between atoms: C4_7  and  N2_8 
REMARK    3  A    between atoms: C6_13  and  C7_14 
REMARK    4  A    between atoms: C8_17  and  N5_18 
ROOT
HETATM    1  C3  UNL     1      37.934   3.243 104.620  1.00  0.00     0.117 C 
HETATM    2  C4  UNL     1      36.636   3.979 104.278  1.00  0.00     0.123 C 
HETATM    3  C6  UNL     1      36.065   4.284 105.627  1.00  0.00     0.142 C 
HETATM    4  C8  UNL     1      37.243   4.350 106.552  1.00  0.00     0.209 C 
HETATM    5  C9  UNL     1      38.486   4.121 105.681  1.00  0.00     0.004 C 
HETATM    6  C10 UNL     1      39.486   3.439 106.587  1.00  0.00     0.019 C 
HETATM    7  C11 UNL     1      38.940   5.461 105.210  1.00  0.00     0.019 C 
ENDROOT
BRANCH   1   8
HETATM    8  N1  UNL     1      38.679   3.143 103.422  1.00  0.00    -0.354 N 
HETATM    9  C2  UNL     1      39.267   1.991 102.878  1.00  0.00     0.214 C 
HETATM   10  C1  UNL     1      40.032   1.944 101.626  1.00  0.00     0.117 C 
HETATM   11  O1  UNL     1      39.128   0.912 103.511  1.00  0.00    -0.274 OA
ATOM     12  H1  UNL     1      38.803   4.007 102.894  1.00  0.00     0.162 HD
ENDBRANCH   1   8
BRANCH   2  13
HETATM   13  N2  UNL     1      35.782   3.218 103.427  1.00  0.00    -0.359 N 
HETATM   14  C5  UNL     1      34.804   3.857 102.843  1.00  0.00     0.197 C 
HETATM   15  N3  UNL     1      34.557   5.228 103.009  1.00  0.00    -0.067 NA
HETATM   16  N4  UNL     1      33.953   3.097 101.996  1.00  0.00    -0.067 NA
ATOM     17  H2  UNL     1      35.929   2.220 103.281  1.00  0.00     0.162 HD
ENDBRANCH   2  13
BRANCH   3  18
HETATM   18  C7  UNL     1      35.075   3.285 106.061  1.00  0.00     0.181 C 
HETATM   19  O2  UNL     1      35.357   2.507 106.990  1.00  0.00    -0.648 OA
HETATM   20  O3  UNL     1      33.845   3.203 105.450  1.00  0.00    -0.648 OA
ENDBRANCH   3  18
BRANCH   4  21
HETATM   21  N5  UNL     1      37.316   5.604 107.254  1.00  0.00    -0.073 N 
ATOM     22  H53 UNL     1      38.016   6.218 106.839  1.00  0.00     0.274 HD
ATOM     23  H52 UNL     1      36.484   6.169 107.086  1.00  0.00     0.274 HD
ATOM     24  H51 UNL     1      37.480   5.479 108.252  1.00  0.00     0.274 HD
ENDBRANCH   4  21
TORSDOF 4
ENDMDL
MODEL 3
REMARK VINA RESULT: -6.185287285      2.222      3.733
REMARK  4 active torsions:
REMARK  status: ('A' for Active; 'I' for Inactive)
REMARK       I    between atoms: C2_2  and  N1_4 
REMARK    1  A    between atoms: N1_4  and  C3_6 
REMARK    2  A    between atoms: C4_7  and  N2_8 
REMARK    3  A    between atoms: C6_13  and  C7_14 
REMARK    4  A    between atoms: C8_17  and  N5_18 
ROOT
HETATM    1  C3  UNL     1      36.822   4.565 104.711  1.00  0.00     0.117 C 
HETATM    2  C4  UNL     1      36.522   3.134 104.255  1.00  0.00     0.123 C 
HETATM    3  C6  UNL     1      37.889   2.537 104.127  1.00  0.00     0.142 C 
HETATM    4  C8  UNL     1      38.751   3.310 105.079  1.00  0.00     0.209 C 
HETATM    5  C9  UNL     1      37.827   4.319 105.774  1.00  0.00     0.004 C 
HETATM    6  C10 UNL     1      38.702   5.513 106.082  1.00  0.00     0.019 C 
HETATM    7  C11 UNL     1      37.294   3.651 106.996  1.00  0.00     0.019 C 
ENDROOT
BRANCH   1   8
HETATM    8  N1  UNL     1      35.591   5.134 105.114  1.00  0.00    -0.354 N 
HETATM    9  C2  UNL     1      34.727   5.927 104.344  1.00  0.00     0.214 C 
HETATM   10  C1  UNL     1      33.456   6.494 104.816  1.00  0.00     0.117 C 
HETATM   11  O1  UNL     1      35.063   6.172 103.157  1.00  0.00    -0.274 OA
ATOM     12  H1  UNL     1      35.300   4.947 106.074  1.00  0.00     0.162 HD
ENDBRANCH   1   8
BRANCH   2  13
HETATM   13  N2  UNL     1      35.739   3.089 103.065  1.00  0.00    -0.359 N 
HETATM   14  C5  UNL     1      34.443   3.000 103.211  1.00  0.00     0.197 C 
HETATM   15  N3  UNL     1      33.799   2.947 104.456  1.00  0.00    -0.067 NA
HETATM   16  N4  UNL     1      33.663   2.956 102.024  1.00  0.00    -0.067 NA
ATOM     17  H2  UNL     1      36.170   3.126 102.142  1.00  0.00     0.162 HD
ENDBRANCH   2  13
BRANCH   3  18
HETATM   18  C7  UNL     1      38.401   2.588 102.749  1.00  0.00     0.181 C 
HETATM   19  O2  UNL     1      38.464   1.540 102.080  1.00  0.00    -0.648 OA
HETATM   20  O3  UNL     1      38.810   3.779 102.194  1.00  0.00    -0.648 OA
ENDBRANCH   3  18
BRANCH   4  21
HETATM   21  N5  UNL     1      39.411   2.458 106.032  1.00  0.00    -0.073 N 
ATOM     22  H53 UNL     1      38.969   2.520 106.950  1.00  0.00     0.274 HD
ATOM     23  H52 UNL     1      39.231   1.474 105.833  1.00  0.00     0.274 HD
ATOM     24  H51 UNL     1      40.411   2.645 106.091  1.00  0.00     0.274 HD
ENDBRANCH   4  21
TORSDOF 4
ENDMDL
MODEL 4
REMARK VINA RESULT: -4.477865906      2.039      4.358
REMARK  4 active torsions:
REMARK  status: ('A' for Active; 'I' for Inactive)
REMARK       I    between atoms: C2_2  and  N1_4 
REMARK    1  A    between atoms: N1_4  and  C3_6 
REMARK    2  A    between atoms: C4_7  and  N2_8 
REMARK    3  A    between atoms: C6_13  and  C7_14 
REMARK    4  A    between atoms: C8_17  and  N5_18 
ROOT
HETATM    1  C3  UNL     1      38.768   4.662 104.032  1.00  0.00     0.117 C 
HETATM    2  C4  UNL     1      37.576   4.118 104.826  1.00  0.00     0.123 C 
HETATM    3  C6  UNL     1      36.634   3.683 103.747  1.00  0.00     0.142 C 
HETATM    4  C8  UNL     1      37.502   3.364 102.567  1.00  0.00     0.209 C 
HETATM    5  C9  UNL     1      38.950   3.588 103.024  1.00  0.00     0.004 C 
HETATM    6  C10 UNL     1      39.695   4.027 101.784  1.00  0.00     0.019 C 
HETATM    7  C11 UNL     1      39.438   2.290 103.573  1.00  0.00     0.019 C 
ENDROOT
BRANCH   1   8
HETATM    8  N1  UNL     1      39.822   4.856 104.955  1.00  0.00    -0.354 N 
HETATM    9  C2  UNL     1      40.046   4.159 106.152  1.00  0.00     0.214 C 
HETATM   10  C1  UNL     1      41.162   4.404 107.076  1.00  0.00     0.117 C 
HETATM   11  O1  UNL     1      39.230   3.253 106.460  1.00  0.00    -0.274 OA
ATOM     12  H1  UNL     1      40.495   5.587 104.724  1.00  0.00     0.162 HD
ENDBRANCH   1   8
BRANCH   2  13
HETATM   13  N2  UNL     1      37.039   5.077 105.734  1.00  0.00    -0.359 N 
HETATM   14  C5  UNL     1      36.187   4.641 106.622  1.00  0.00     0.197 C 
HETATM   15  N3  UNL     1      35.782   3.301 106.724  1.00  0.00    -0.067 NA
HETATM   16  N4  UNL     1      35.653   5.597 107.527  1.00  0.00    -0.067 NA
ATOM     17  H2  UNL     1      37.309   6.059 105.692  1.00  0.00     0.162 HD
ENDBRANCH   2  13
BRANCH   3  18
HETATM   18  C7  UNL     1      35.623   4.704 103.433  1.00  0.00     0.181 C 
HETATM   19  O2  UNL     1      35.968   5.895 103.328  1.00  0.00    -0.648 OA
HETATM   20  O3  UNL     1      34.304   4.357 103.255  1.00  0.00    -0.648 OA
ENDBRANCH   3  18
BRANCH   4  21
HETATM   21  N5  UNL     1      37.302   2.022 102.089  1.00  0.00    -0.073 N 
ATOM     22  H53 UNL     1      36.926   2.020 101.141  1.00  0.00     0.274 HD
ATOM     23  H52 UNL     1      38.192   1.558 101.911  1.00  0.00     0.274 HD
ATOM     24  H51 UNL     1      36.718   1.471 102.718  1.00  0.00     0.274 HD
ENDBRANCH   4  21
TORSDOF 4
ENDMDL
MODEL 5
REMARK VINA RESULT: -4.461771994      2.717      3.735
REMARK  4 active torsions:
REMARK  status: ('A' for Active; 'I' for Inactive)
REMARK       I    between atoms: C2_2  and  N1_4 
REMARK    1  A    between atoms: N1_4  and  C3_6 
REMARK    2  A    between atoms: C4_7  and  N2_8 
REMARK    3  A    between atoms: C6_13  and  C7_14 
REMARK    4  A    between atoms: C8_17  and  N5_18 
ROOT
HETATM    1  C3  UNL     1      39.014   2.145 103.734  1.00  0.00     0.117 C 
HETATM    2  C4  UNL     1      37.929   3.189 104.017  1.00  0.00     0.123 C 
HETATM    3  C6  UNL     1      38.681   4.479 103.917  1.00  0.00     0.142 C 
HETATM    4  C8  UNL     1      39.830   4.200 102.995  1.00  0.00     0.209 C 
HETATM    5  C9  UNL     1      39.677   2.740 102.548  1.00  0.00     0.004 C 
HETATM    6  C10 UNL     1      41.087   2.246 102.318  1.00  0.00     0.019 C 
HETATM    7  C11 UNL     1      38.849   2.750 101.308  1.00  0.00     0.019 C 
ENDROOT
BRANCH   1   8
HETATM    8  N1  UNL     1      38.355   0.908 103.545  1.00  0.00    -0.354 N 
HETATM    9  C2  UNL     1      38.922  -0.301 103.112  1.00  0.00     0.214 C 
HETATM   10  C1  UNL     1      38.188  -1.561 102.933  1.00  0.00     0.117 C 
HETATM   11  O1  UNL     1      40.154  -0.309 102.860  1.00  0.00    -0.274 OA
ATOM     12  H1  UNL     1      37.355   0.894 103.745  1.00  0.00     0.162 HD
ENDBRANCH   1   8
BRANCH   2  13
HETATM   13  N2  UNL     1      37.274   2.975 105.264  1.00  0.00    -0.359 N 
HETATM   14  C5  UNL     1      35.970   3.053 105.271  1.00  0.00     0.197 C 
HETATM   15  N3  UNL     1      35.198   3.332 104.133  1.00  0.00    -0.067 NA
HETATM   16  N4  UNL     1      35.318   2.840 106.515  1.00  0.00    -0.067 NA
ATOM     17  H2  UNL     1      37.800   2.770 106.113  1.00  0.00     0.162 HD
ENDBRANCH   2  13
BRANCH   3  18
HETATM   18  C7  UNL     1      39.128   4.975 105.228  1.00  0.00     0.181 C 
HETATM   19  O2  UNL     1      38.321   5.568 105.967  1.00  0.00    -0.648 OA
HETATM   20  O3  UNL     1      40.427   4.791 105.644  1.00  0.00    -0.648 OA
ENDBRANCH   3  18
BRANCH   4  21
HETATM   21  N5  UNL     1      39.856   5.096 101.870  1.00  0.00    -0.073 N 
ATOM     22  H53 UNL     1      40.567   4.816 101.193  1.00  0.00     0.274 HD
ATOM     23  H52 UNL     1      39.026   4.983 101.289  1.00  0.00     0.274 HD
ATOM     24  H51 UNL     1      39.979   6.068 102.153  1.00  0.00     0.274 HD
ENDBRANCH   4  21
TORSDOF 4
ENDMDL
