MODEL 1
REMARK VINA RESULT: -10.482092519      0.000      0.000
REMARK  12 active torsions:
REMARK  status: ('A' for Active; 'I' for Inactive)
REMARK    1  A    between atoms: C6_8  and  C7_9 
REMARK    2  A    between atoms: N3_12  and  C8_13 
REMARK    3  A    between atoms: C12_19  and  C13_20 
REMARK    4  A    between atoms: C13_20  and  C14_21 
REMARK    5  A    between atoms: C14_21  and  C15_22 
REMARK    6  A    between atoms: C15_22  and  O1_23 
REMARK    7  A    between atoms: N5_30  and  C21_31 
REMARK    8  A    between atoms: C21_31  and  C22_32 
REMARK    9  A    between atoms: C22_32  and  C23_33 
REMARK   10  A    between atoms: C23_33  and  C24_34 
REMARK   11  A    between atoms: C24_34  and  C25_35 
REMARK   12  A    between atoms: C26_37  and  C27_38 
ROOT
HETATM    1  C1  UNL     1      12.465   3.014  15.154  1.00  0.00     0.069 C 
HETATM    2  C2  UNL     1      12.944   3.843  13.972  1.00  0.00     0.019 A 
HETATM    3  N1  UNL     1      14.292   4.075  13.843  1.00  0.00    -0.345 N 
ATOM      4  H1  UNL     1      14.951   3.722  14.536  1.00  0.00     0.167 HD
HETATM    5  C3  UNL     1      14.729   4.792  12.763  1.00  0.00     0.110 A 
HETATM    6  C4  UNL     1      13.866   5.271  11.824  1.00  0.00    -0.013 A 
HETATM    7  C5  UNL     1      12.539   5.063  11.936  1.00  0.00     0.026 A 
HETATM    8  C6  UNL     1      12.075   4.308  13.069  1.00  0.00     0.017 A 
HETATM    9  C16 UNL     1      14.299   5.813  10.460  1.00  0.00     0.042 C 
HETATM   10  C17 UNL     1      15.060   4.670   9.789  1.00  0.00     0.007 C 
HETATM   11  C18 UNL     1      16.231   4.126  10.422  1.00  0.00     0.025 C 
HETATM   12  C19 UNL     1      16.940   4.898  11.512  1.00  0.00     0.081 C 
HETATM   13  C20 UNL     1      17.444   6.164  10.931  1.00  0.00     0.032 C 
HETATM   14  N5  UNL     1      16.157   5.017  12.742  1.00  0.00    -0.362 N 
ENDROOT
BRANCH   8  15
HETATM   15  C7  UNL     1      10.657   3.998  12.957  1.00  0.00     0.086 A 
HETATM   16  N2  UNL     1      10.057   2.927  13.554  1.00  0.00    -0.281 N 
HETATM   17  N3  UNL     1       8.764   2.918  13.232  1.00  0.00    -0.225 N 
ATOM     18  H2  UNL     1      10.524   2.243  14.149  1.00  0.00     0.189 HD
HETATM   19  N4  UNL     1       8.528   3.931  12.469  1.00  0.00    -0.285 N 
HETATM   20  C12 UNL     1       9.686   4.651  12.270  1.00  0.00     0.056 A 
ATOM     21  H4  UNL     1       7.617   4.164  12.071  1.00  0.00     0.188 HD
BRANCH  17  22
HETATM   22  C8  UNL     1       7.879   1.853  13.741  1.00  0.00     0.060 C 
HETATM   23  C9  UNL     1       6.439   2.263  13.455  1.00  0.00     0.041 C 
HETATM   24  C10 UNL     1       7.988   1.675  15.216  1.00  0.00     0.041 C 
HETATM   25  C11 UNL     1       8.116   0.541  13.049  1.00  0.00     0.041 C 
ENDBRANCH  17  22
BRANCH  20  26
HETATM   26  C13 UNL     1       9.760   5.965  11.657  1.00  0.00     0.063 C 
BRANCH  26  27
HETATM   27  C14 UNL     1       9.293   6.189  10.274  1.00  0.00     0.032 C 
BRANCH  27  28
HETATM   28  C15 UNL     1      10.607   6.520   9.510  1.00  0.00     0.164 C 
BRANCH  28  29
HETATM   29  O1  UNL     1      10.848   7.855   9.409  1.00  0.00    -0.401 OA
ATOM     30  H1  UNL     1      10.650   8.333  10.206  1.00  0.00     0.209 HD
ENDBRANCH  28  29
ENDBRANCH  27  28
ENDBRANCH  26  27
ENDBRANCH  20  26
ENDBRANCH   8  15
BRANCH  14  31
HETATM   31  C21 UNL     1      16.750   5.355  13.979  1.00  0.00     0.125 C 
BRANCH  31  32
HETATM   32  C22 UNL     1      18.097   4.659  14.230  1.00  0.00     0.031 C 
BRANCH  32  33
HETATM   33  C23 UNL     1      18.018   3.933  15.598  1.00  0.00     0.088 C 
BRANCH  33  34
HETATM   34  C24 UNL     1      18.460   4.294  16.667  1.00  0.00    -0.134 C 
BRANCH  34  35
HETATM   35  C25 UNL     1      18.791   5.097  17.810  1.00  0.00     0.085 A 
HETATM   36  S1  UNL     1      19.660   6.563  17.963  1.00  0.00    -0.074 SA
HETATM   37  C26 UNL     1      19.639   6.778  19.648  1.00  0.00     0.092 A 
HETATM   38  C28 UNL     1      18.952   5.689  20.069  1.00  0.00     0.068 A 
HETATM   39  C29 UNL     1      18.499   4.814  19.152  1.00  0.00     0.142 A 
HETATM   40  F4  UNL     1      17.807   3.671  19.489  1.00  0.00    -0.204 F 
BRANCH  37  41
HETATM   41  C27 UNL     1      20.209   7.892  20.487  1.00  0.00     0.423 C 
HETATM   42  F1  UNL     1      19.656   9.067  20.092  1.00  0.00    -0.166 F 
HETATM   43  F2  UNL     1      20.068   7.708  21.820  1.00  0.00    -0.166 F 
HETATM   44  F3  UNL     1      21.572   7.960  20.169  1.00  0.00    -0.166 F 
ENDBRANCH  37  41
ENDBRANCH  34  35
ENDBRANCH  33  34
ENDBRANCH  32  33
ENDBRANCH  31  32
ENDBRANCH  14  31
TORSDOF 12
ENDMDL
MODEL 2
REMARK VINA RESULT: -10.141051763      0.817      1.284
REMARK  12 active torsions:
REMARK  status: ('A' for Active; 'I' for Inactive)
REMARK    1  A    between atoms: C6_8  and  C7_9 
REMARK    2  A    between atoms: N3_12  and  C8_13 
REMARK    3  A    between atoms: C12_19  and  C13_20 
REMARK    4  A    between atoms: C13_20  and  C14_21 
REMARK    5  A    between atoms: C14_21  and  C15_22 
REMARK    6  A    between atoms: C15_22  and  O1_23 
REMARK    7  A    between atoms: N5_30  and  C21_31 
REMARK    8  A    between atoms: C21_31  and  C22_32 
REMARK    9  A    between atoms: C22_32  and  C23_33 
REMARK   10  A    between atoms: C23_33  and  C24_34 
REMARK   11  A    between atoms: C24_34  and  C25_35 
REMARK   12  A    between atoms: C26_37  and  C27_38 
ROOT
HETATM    1  C1  UNL     1      12.249   3.115  15.230  1.00  0.00     0.069 C 
HETATM    2  C2  UNL     1      12.761   3.884  14.022  1.00  0.00     0.019 A 
HETATM    3  N1  UNL     1      14.112   4.120  13.925  1.00  0.00    -0.345 N 
ATOM      4  H1  UNL     1      14.750   3.808  14.656  1.00  0.00     0.167 HD
HETATM    5  C3  UNL     1      14.579   4.782  12.823  1.00  0.00     0.110 A 
HETATM    6  C4  UNL     1      13.745   5.205  11.834  1.00  0.00    -0.013 A 
HETATM    7  C5  UNL     1      12.416   4.994  11.913  1.00  0.00     0.026 A 
HETATM    8  C6  UNL     1      11.920   4.296  13.068  1.00  0.00     0.017 A 
HETATM    9  C16 UNL     1      14.220   5.679  10.458  1.00  0.00     0.042 C 
HETATM   10  C17 UNL     1      15.008   4.507   9.873  1.00  0.00     0.007 C 
HETATM   11  C18 UNL     1      16.162   4.006  10.571  1.00  0.00     0.025 C 
HETATM   12  C19 UNL     1      16.830   4.838  11.641  1.00  0.00     0.081 C 
HETATM   13  C20 UNL     1      17.345   6.076  11.012  1.00  0.00     0.032 C 
HETATM   14  N5  UNL     1      16.006   5.016  12.837  1.00  0.00    -0.362 N 
ENDROOT
BRANCH   8  15
HETATM   15  C7  UNL     1      10.508   3.971  12.927  1.00  0.00     0.086 A 
HETATM   16  N2  UNL     1       9.908   2.891  13.508  1.00  0.00    -0.281 N 
HETATM   17  N3  UNL     1       8.621   2.868  13.161  1.00  0.00    -0.225 N 
ATOM     18  H2  UNL     1      10.370   2.211  14.112  1.00  0.00     0.189 HD
HETATM   19  N4  UNL     1       8.390   3.881  12.395  1.00  0.00    -0.285 N 
HETATM   20  C12 UNL     1       9.544   4.614  12.221  1.00  0.00     0.056 A 
ATOM     21  H4  UNL     1       7.485   4.105  11.979  1.00  0.00     0.188 HD
BRANCH  17  22
HETATM   22  C8  UNL     1       7.739   1.792  13.649  1.00  0.00     0.060 C 
HETATM   23  C9  UNL     1       7.957   1.652  15.151  1.00  0.00     0.041 C 
HETATM   24  C10 UNL     1       8.062   0.469  13.045  1.00  0.00     0.041 C 
HETATM   25  C11 UNL     1       6.286   2.110  13.435  1.00  0.00     0.041 C 
ENDBRANCH  17  22
BRANCH  20  26
HETATM   26  C13 UNL     1       9.615   5.931  11.613  1.00  0.00     0.063 C 
BRANCH  26  27
HETATM   27  C14 UNL     1       9.140   6.160  10.234  1.00  0.00     0.032 C 
BRANCH  27  28
HETATM   28  C15 UNL     1       7.628   6.467  10.430  1.00  0.00     0.164 C 
BRANCH  28  29
HETATM   29  O1  UNL     1       7.384   7.339  11.446  1.00  0.00    -0.401 OA
ATOM     30  H1  UNL     1       8.166   7.782  11.755  1.00  0.00     0.209 HD
ENDBRANCH  28  29
ENDBRANCH  27  28
ENDBRANCH  26  27
ENDBRANCH  20  26
ENDBRANCH   8  15
BRANCH  14  31
HETATM   31  C21 UNL     1      16.557   5.422  14.074  1.00  0.00     0.125 C 
BRANCH  31  32
HETATM   32  C22 UNL     1      17.218   4.281  14.862  1.00  0.00     0.031 C 
BRANCH  32  33
HETATM   33  C23 UNL     1      18.613   4.766  15.336  1.00  0.00     0.088 C 
BRANCH  33  34
HETATM   34  C24 UNL     1      18.974   5.028  16.462  1.00  0.00    -0.134 C 
BRANCH  34  35
HETATM   35  C25 UNL     1      19.202   5.716  17.701  1.00  0.00     0.085 A 
HETATM   36  S1  UNL     1      20.041   7.162  18.067  1.00  0.00    -0.074 SA
HETATM   37  C26 UNL     1      19.879   7.213  19.757  1.00  0.00     0.092 A 
HETATM   38  C28 UNL     1      19.170   6.087  20.012  1.00  0.00     0.068 A 
HETATM   39  C29 UNL     1      18.803   5.304  18.981  1.00  0.00     0.142 A 
HETATM   40  F4  UNL     1      18.097   4.133  19.148  1.00  0.00    -0.204 F 
BRANCH  37  41
HETATM   41  C27 UNL     1      20.367   8.242  20.744  1.00  0.00     0.423 C 
HETATM   42  F1  UNL     1      21.721   8.308  20.676  1.00  0.00    -0.166 F 
HETATM   43  F2  UNL     1      19.809   9.464  20.587  1.00  0.00    -0.166 F 
HETATM   44  F3  UNL     1      20.048   7.745  22.014  1.00  0.00    -0.166 F 
ENDBRANCH  37  41
ENDBRANCH  34  35
ENDBRANCH  33  34
ENDBRANCH  32  33
ENDBRANCH  31  32
ENDBRANCH  14  31
TORSDOF 12
ENDMDL
MODEL 3
REMARK VINA RESULT: -9.653569227      4.938      6.899
REMARK  12 active torsions:
REMARK  status: ('A' for Active; 'I' for Inactive)
REMARK    1  A    between atoms: C6_8  and  C7_9 
REMARK    2  A    between atoms: N3_12  and  C8_13 
REMARK    3  A    between atoms: C12_19  and  C13_20 
REMARK    4  A    between atoms: C13_20  and  C14_21 
REMARK    5  A    between atoms: C14_21  and  C15_22 
REMARK    6  A    between atoms: C15_22  and  O1_23 
REMARK    7  A    between atoms: N5_30  and  C21_31 
REMARK    8  A    between atoms: C21_31  and  C22_32 
REMARK    9  A    between atoms: C22_32  and  C23_33 
REMARK   10  A    between atoms: C23_33  and  C24_34 
REMARK   11  A    between atoms: C24_34  and  C25_35 
REMARK   12  A    between atoms: C26_37  and  C27_38 
ROOT
HETATM    1  C1  UNL     1      11.163   5.460  10.942  1.00  0.00     0.069 C 
HETATM    2  C2  UNL     1      12.158   4.885  11.939  1.00  0.00     0.019 A 
HETATM    3  N1  UNL     1      13.491   5.169  11.765  1.00  0.00    -0.345 N 
ATOM      4  H1  UNL     1      13.807   5.730  10.975  1.00  0.00     0.167 HD
HETATM    5  C3  UNL     1      14.384   4.680  12.679  1.00  0.00     0.110 A 
HETATM    6  C4  UNL     1      13.984   3.931  13.743  1.00  0.00    -0.013 A 
HETATM    7  C5  UNL     1      12.682   3.632  13.926  1.00  0.00     0.026 A 
HETATM    8  C6  UNL     1      11.739   4.145  12.970  1.00  0.00     0.017 A 
HETATM    9  C16 UNL     1      14.874   3.607  14.945  1.00  0.00     0.042 C 
HETATM   10  C17 UNL     1      15.294   4.961  15.518  1.00  0.00     0.007 C 
HETATM   11  C18 UNL     1      16.018   5.890  14.691  1.00  0.00     0.025 C 
HETATM   12  C19 UNL     1      16.700   5.418  13.427  1.00  0.00     0.081 C 
HETATM   13  C20 UNL     1      17.744   4.436  13.802  1.00  0.00     0.032 C 
HETATM   14  N5  UNL     1      15.763   4.999  12.384  1.00  0.00    -0.362 N 
ENDROOT
BRANCH   8  15
HETATM   15  C7  UNL     1      10.367   3.910  13.398  1.00  0.00     0.086 A 
HETATM   16  N2  UNL     1       9.740   2.699  13.332  1.00  0.00    -0.281 N 
HETATM   17  N3  UNL     1       8.490   2.832  13.776  1.00  0.00    -0.225 N 
ATOM     18  H2  UNL     1      10.161   1.833  12.997  1.00  0.00     0.189 HD
HETATM   19  N4  UNL     1       8.309   4.063  14.117  1.00  0.00    -0.285 N 
HETATM   20  C12 UNL     1       9.464   4.785  13.907  1.00  0.00     0.056 A 
ATOM     21  H4  UNL     1       7.438   4.445  14.487  1.00  0.00     0.188 HD
BRANCH  17  22
HETATM   22  C8  UNL     1       7.584   1.668  13.803  1.00  0.00     0.060 C 
HETATM   23  C9  UNL     1       7.504   1.170  15.242  1.00  0.00     0.041 C 
HETATM   24  C10 UNL     1       8.089   0.531  12.984  1.00  0.00     0.041 C 
HETATM   25  C11 UNL     1       6.189   2.026  13.375  1.00  0.00     0.041 C 
ENDBRANCH  17  22
BRANCH  20  26
HETATM   26  C13 UNL     1       9.704   6.136  14.381  1.00  0.00     0.063 C 
BRANCH  26  27
HETATM   27  C14 UNL     1       8.698   6.849  15.195  1.00  0.00     0.032 C 
BRANCH  27  28
HETATM   28  C15 UNL     1       7.720   7.417  14.127  1.00  0.00     0.164 C 
BRANCH  28  29
HETATM   29  O1  UNL     1       7.152   8.597  14.493  1.00  0.00    -0.401 OA
ATOM     30  H1  UNL     1       7.762   9.325  14.484  1.00  0.00     0.209 HD
ENDBRANCH  28  29
ENDBRANCH  27  28
ENDBRANCH  26  27
ENDBRANCH  20  26
ENDBRANCH   8  15
BRANCH  14  31
HETATM   31  C21 UNL     1      16.151   4.885  11.030  1.00  0.00     0.125 C 
BRANCH  31  32
HETATM   32  C22 UNL     1      16.975   6.078  10.520  1.00  0.00     0.031 C 
BRANCH  32  33
HETATM   33  C23 UNL     1      16.008   7.267  10.282  1.00  0.00     0.088 C 
BRANCH  33  34
HETATM   34  C24 UNL     1      16.282   8.409   9.985  1.00  0.00    -0.134 C 
BRANCH  34  35
HETATM   35  C25 UNL     1      17.004   9.584   9.585  1.00  0.00     0.085 A 
HETATM   36  S1  UNL     1      16.544  11.229   9.490  1.00  0.00    -0.074 SA
HETATM   37  C26 UNL     1      17.963  11.927   8.870  1.00  0.00     0.092 A 
HETATM   38  C28 UNL     1      18.779  10.854   8.741  1.00  0.00     0.068 A 
HETATM   39  C29 UNL     1      18.320   9.643   9.105  1.00  0.00     0.142 A 
HETATM   40  F4  UNL     1      19.073   8.494   8.992  1.00  0.00    -0.204 F 
BRANCH  37  41
HETATM   41  C27 UNL     1      18.273  13.368   8.555  1.00  0.00     0.423 C 
HETATM   42  F1  UNL     1      19.598  13.485   8.290  1.00  0.00    -0.166 F 
HETATM   43  F2  UNL     1      17.526  13.887   7.553  1.00  0.00    -0.166 F 
HETATM   44  F3  UNL     1      18.030  14.085   9.733  1.00  0.00    -0.166 F 
ENDBRANCH  37  41
ENDBRANCH  34  35
ENDBRANCH  33  34
ENDBRANCH  32  33
ENDBRANCH  31  32
ENDBRANCH  14  31
TORSDOF 12
ENDMDL
MODEL 4
REMARK VINA RESULT: -9.591275313      4.991      6.898
REMARK  12 active torsions:
REMARK  status: ('A' for Active; 'I' for Inactive)
REMARK    1  A    between atoms: C6_8  and  C7_9 
REMARK    2  A    between atoms: N3_12  and  C8_13 
REMARK    3  A    between atoms: C12_19  and  C13_20 
REMARK    4  A    between atoms: C13_20  and  C14_21 
REMARK    5  A    between atoms: C14_21  and  C15_22 
REMARK    6  A    between atoms: C15_22  and  O1_23 
REMARK    7  A    between atoms: N5_30  and  C21_31 
REMARK    8  A    between atoms: C21_31  and  C22_32 
REMARK    9  A    between atoms: C22_32  and  C23_33 
REMARK   10  A    between atoms: C23_33  and  C24_34 
REMARK   11  A    between atoms: C24_34  and  C25_35 
REMARK   12  A    between atoms: C26_37  and  C27_38 
ROOT
HETATM    1  C1  UNL     1      11.135   5.421  10.995  1.00  0.00     0.069 C 
HETATM    2  C2  UNL     1      12.141   4.855  11.986  1.00  0.00     0.019 A 
HETATM    3  N1  UNL     1      13.472   5.142  11.799  1.00  0.00    -0.345 N 
ATOM      4  H1  UNL     1      13.778   5.700  11.003  1.00  0.00     0.167 HD
HETATM    5  C3  UNL     1      14.375   4.661  12.707  1.00  0.00     0.110 A 
HETATM    6  C4  UNL     1      13.987   3.916  13.778  1.00  0.00    -0.013 A 
HETATM    7  C5  UNL     1      12.688   3.614  13.975  1.00  0.00     0.026 A 
HETATM    8  C6  UNL     1      11.734   4.119  13.025  1.00  0.00     0.017 A 
HETATM    9  C16 UNL     1      14.889   3.602  14.974  1.00  0.00     0.042 C 
HETATM   10  C17 UNL     1      15.310   4.960  15.536  1.00  0.00     0.007 C 
HETATM   11  C18 UNL     1      16.023   5.886  14.698  1.00  0.00     0.025 C 
HETATM   12  C19 UNL     1      16.695   5.410  13.430  1.00  0.00     0.081 C 
HETATM   13  C20 UNL     1      17.746   4.434  13.800  1.00  0.00     0.032 C 
HETATM   14  N5  UNL     1      15.750   4.983  12.397  1.00  0.00    -0.362 N 
ENDROOT
BRANCH   8  15
HETATM   15  C7  UNL     1      10.367   3.882  13.467  1.00  0.00     0.086 A 
HETATM   16  N2  UNL     1       9.726   2.681  13.364  1.00  0.00    -0.281 N 
HETATM   17  N3  UNL     1       8.485   2.809  13.834  1.00  0.00    -0.225 N 
ATOM     18  H2  UNL     1      10.131   1.824  12.988  1.00  0.00     0.189 HD
HETATM   19  N4  UNL     1       8.323   4.028  14.226  1.00  0.00    -0.285 N 
HETATM   20  C12 UNL     1       9.482   4.746  14.025  1.00  0.00     0.056 A 
ATOM     21  H4  UNL     1       7.463   4.404  14.626  1.00  0.00     0.188 HD
BRANCH  17  22
HETATM   22  C8  UNL     1       7.567   1.655  13.831  1.00  0.00     0.060 C 
HETATM   23  C9  UNL     1       7.457   1.140  15.262  1.00  0.00     0.041 C 
HETATM   24  C10 UNL     1       8.074   0.523  13.007  1.00  0.00     0.041 C 
HETATM   25  C11 UNL     1       6.183   2.032  13.384  1.00  0.00     0.041 C 
ENDBRANCH  17  22
BRANCH  20  26
HETATM   26  C13 UNL     1       9.745   6.075  14.547  1.00  0.00     0.063 C 
BRANCH  26  27
HETATM   27  C14 UNL     1       8.698   6.835  15.259  1.00  0.00     0.032 C 
BRANCH  27  28
HETATM   28  C15 UNL     1       7.793   7.351  14.104  1.00  0.00     0.164 C 
BRANCH  28  29
HETATM   29  O1  UNL     1       7.164   8.522  14.396  1.00  0.00    -0.401 OA
ATOM     30  H1  UNL     1       7.155   8.720  15.325  1.00  0.00     0.209 HD
ENDBRANCH  28  29
ENDBRANCH  27  28
ENDBRANCH  26  27
ENDBRANCH  20  26
ENDBRANCH   8  15
BRANCH  14  31
HETATM   31  C21 UNL     1      16.126   4.864  11.041  1.00  0.00     0.125 C 
BRANCH  31  32
HETATM   32  C22 UNL     1      16.935   6.059  10.515  1.00  0.00     0.031 C 
BRANCH  32  33
HETATM   33  C23 UNL     1      16.014   7.307  10.523  1.00  0.00     0.088 C 
BRANCH  33  34
HETATM   34  C24 UNL     1      16.331   8.475  10.454  1.00  0.00    -0.134 C 
BRANCH  34  35
HETATM   35  C25 UNL     1      16.631   9.783   9.946  1.00  0.00     0.085 A 
HETATM   36  S1  UNL     1      18.076  10.467   9.334  1.00  0.00    -0.074 SA
HETATM   37  C26 UNL     1      17.574  12.059   9.022  1.00  0.00     0.092 A 
HETATM   38  C28 UNL     1      16.276  12.034   9.409  1.00  0.00     0.068 A 
HETATM   39  C29 UNL     1      15.763  10.882   9.880  1.00  0.00     0.142 A 
HETATM   40  F4  UNL     1      14.460  10.768  10.313  1.00  0.00    -0.204 F 
BRANCH  37  41
HETATM   41  C27 UNL     1      18.344  13.219   8.444  1.00  0.00     0.423 C 
HETATM   42  F1  UNL     1      17.677  13.693   7.362  1.00  0.00    -0.166 F 
HETATM   43  F2  UNL     1      18.603  14.207   9.331  1.00  0.00    -0.166 F 
HETATM   44  F3  UNL     1      19.552  12.688   7.974  1.00  0.00    -0.166 F 
ENDBRANCH  37  41
ENDBRANCH  34  35
ENDBRANCH  33  34
ENDBRANCH  32  33
ENDBRANCH  31  32
ENDBRANCH  14  31
TORSDOF 12
ENDMDL
MODEL 5
REMARK VINA RESULT: -9.550687174      5.938     10.393
REMARK  12 active torsions:
REMARK  status: ('A' for Active; 'I' for Inactive)
REMARK    1  A    between atoms: C6_8  and  C7_9 
REMARK    2  A    between atoms: N3_12  and  C8_13 
REMARK    3  A    between atoms: C12_19  and  C13_20 
REMARK    4  A    between atoms: C13_20  and  C14_21 
REMARK    5  A    between atoms: C14_21  and  C15_22 
REMARK    6  A    between atoms: C15_22  and  O1_23 
REMARK    7  A    between atoms: N5_30  and  C21_31 
REMARK    8  A    between atoms: C21_31  and  C22_32 
REMARK    9  A    between atoms: C22_32  and  C23_33 
REMARK   10  A    between atoms: C23_33  and  C24_34 
REMARK   11  A    between atoms: C24_34  and  C25_35 
REMARK   12  A    between atoms: C26_37  and  C27_38 
ROOT
HETATM    1  C1  UNL     1      13.079  10.257   8.602  1.00  0.00     0.069 C 
HETATM    2  C2  UNL     1      13.962   9.340   9.434  1.00  0.00     0.019 A 
HETATM    3  N1  UNL     1      13.528   8.058   9.670  1.00  0.00    -0.345 N 
ATOM      4  H1  UNL     1      12.627   7.738   9.317  1.00  0.00     0.167 HD
HETATM    5  C3  UNL     1      14.335   7.220  10.391  1.00  0.00     0.110 A 
HETATM    6  C4  UNL     1      15.543   7.626  10.870  1.00  0.00    -0.013 A 
HETATM    7  C5  UNL     1      15.983   8.883  10.659  1.00  0.00     0.026 A 
HETATM    8  C6  UNL     1      15.140   9.766   9.900  1.00  0.00     0.017 A 
HETATM    9  C16 UNL     1      16.611   6.676  11.417  1.00  0.00     0.042 C 
HETATM   10  C17 UNL     1      16.915   5.704  10.277  1.00  0.00     0.007 C 
HETATM   11  C18 UNL     1      15.859   4.891   9.734  1.00  0.00     0.025 C 
HETATM   12  C19 UNL     1      14.574   4.691  10.505  1.00  0.00     0.081 C 
HETATM   13  C20 UNL     1      14.897   3.999  11.774  1.00  0.00     0.032 C 
HETATM   14  N5  UNL     1      13.771   5.909  10.619  1.00  0.00    -0.362 N 
ENDROOT
BRANCH   8  15
HETATM   15  C7  UNL     1      15.822  11.014   9.588  1.00  0.00     0.086 A 
HETATM   16  N2  UNL     1      16.816  11.133   8.659  1.00  0.00    -0.281 N 
HETATM   17  N3  UNL     1      17.240  12.396   8.636  1.00  0.00    -0.225 N 
ATOM     18  H2  UNL     1      17.175  10.377   8.078  1.00  0.00     0.189 HD
HETATM   19  N4  UNL     1      16.559  13.070   9.501  1.00  0.00    -0.285 N 
HETATM   20  C12 UNL     1      15.644  12.248  10.124  1.00  0.00     0.056 A 
ATOM     21  H4  UNL     1      16.681  14.064   9.695  1.00  0.00     0.188 HD
BRANCH  17  22
HETATM   22  C8  UNL     1      18.325  12.799   7.721  1.00  0.00     0.060 C 
HETATM   23  C9  UNL     1      17.686  13.352   6.452  1.00  0.00     0.041 C 
HETATM   24  C10 UNL     1      19.177  11.651   7.304  1.00  0.00     0.041 C 
HETATM   25  C11 UNL     1      19.182  13.887   8.301  1.00  0.00     0.041 C 
ENDBRANCH  17  22
BRANCH  20  26
HETATM   26  C13 UNL     1      14.564  12.698  10.983  1.00  0.00     0.063 C 
BRANCH  26  27
HETATM   27  C14 UNL     1      13.952  14.030  10.804  1.00  0.00     0.032 C 
BRANCH  27  28
HETATM   28  C15 UNL     1      12.705  13.729   9.924  1.00  0.00     0.164 C 
BRANCH  28  29
HETATM   29  O1  UNL     1      11.794  12.928  10.541  1.00  0.00    -0.401 OA
ATOM     30  H1  UNL     1      11.055  13.407  10.898  1.00  0.00     0.209 HD
ENDBRANCH  28  29
ENDBRANCH  27  28
ENDBRANCH  26  27
ENDBRANCH  20  26
ENDBRANCH   8  15
BRANCH  14  31
HETATM   31  C21 UNL     1      12.399   5.874  10.955  1.00  0.00     0.125 C 
BRANCH  31  32
HETATM   32  C22 UNL     1      11.544   5.048   9.981  1.00  0.00     0.031 C 
BRANCH  32  33
HETATM   33  C23 UNL     1      10.100   4.982  10.542  1.00  0.00     0.088 C 
BRANCH  33  34
HETATM   34  C24 UNL     1       9.737   4.629  11.643  1.00  0.00    -0.134 C 
BRANCH  34  35
HETATM   35  C25 UNL     1       9.324   3.817  12.753  1.00  0.00     0.085 A 
HETATM   36  S1  UNL     1       9.503   4.018  14.443  1.00  0.00    -0.074 SA
HETATM   37  C26 UNL     1       8.795   2.584  15.016  1.00  0.00     0.092 A 
HETATM   38  C28 UNL     1       8.432   1.964  13.869  1.00  0.00     0.068 A 
HETATM   39  C29 UNL     1       8.683   2.572  12.695  1.00  0.00     0.142 A 
HETATM   40  F4  UNL     1       8.365   2.008  11.479  1.00  0.00    -0.204 F 
BRANCH  37  41
HETATM   41  C27 UNL     1       8.589   2.107  16.431  1.00  0.00     0.423 C 
HETATM   42  F1  UNL     1       9.797   1.812  16.975  1.00  0.00    -0.166 F 
HETATM   43  F2  UNL     1       7.900   2.972  17.210  1.00  0.00    -0.166 F 
HETATM   44  F3  UNL     1       7.882   0.902  16.336  1.00  0.00    -0.166 F 
ENDBRANCH  37  41
ENDBRANCH  34  35
ENDBRANCH  33  34
ENDBRANCH  32  33
ENDBRANCH  31  32
ENDBRANCH  14  31
TORSDOF 12
ENDMDL
