MODEL 1
REMARK VINA RESULT: -8.876576287      0.000      0.000
REMARK  8 active torsions:
REMARK  status: ('A' for Active; 'I' for Inactive)
REMARK    1  A    between atoms: C2_2  and  C3_3 
REMARK    2  A    between atoms: C3_3  and  C4_4 
REMARK    3  A    between atoms: C4_4  and  C5_5 
REMARK    4  A    between atoms: C5_5  and  N1_6 
REMARK    5  A    between atoms: N1_6  and  C6_8 
REMARK    6  A    between atoms: C9_11  and  C10_12 
REMARK    7  A    between atoms: C10_12  and  N2_13 
REMARK       I    between atoms: N4_21  and  C16_22 
REMARK    8  A    between atoms: C16_22  and  C17_24 
ROOT
HETATM    1  N2  UNL     1      14.628   5.180  11.410  1.00  0.00    -0.388 N 
HETATM    2  C11 UNL     1      14.088   4.061  10.720  1.00  0.00     0.127 C 
HETATM    3  C12 UNL     1      12.953   4.502   9.838  1.00  0.00     0.062 C 
HETATM    4  C13 UNL     1      12.856   5.981   9.727  1.00  0.00    -0.008 A 
HETATM    5  C14 UNL     1      11.697   6.696   9.771  1.00  0.00     0.031 A 
HETATM    6  C15 UNL     1      10.313   6.104   9.935  1.00  0.00     0.070 C 
HETATM    7  N3  UNL     1      12.022   7.968   9.645  1.00  0.00    -0.295 N 
ATOM      8  H3  UNL     1      11.359   8.742   9.642  1.00  0.00     0.187 HD
HETATM    9  N4  UNL     1      13.370   8.100   9.520  1.00  0.00    -0.223 N 
HETATM   10  C16 UNL     1      13.925   9.386   9.367  1.00  0.00     0.280 C 
HETATM   11  O1  UNL     1      13.108  10.378   9.296  1.00  0.00    -0.265 OA
HETATM   12  C22 UNL     1      13.897   6.893   9.566  1.00  0.00     0.047 A 
HETATM   13  C23 UNL     1      15.305   6.494   9.457  1.00  0.00     0.080 C 
HETATM   14  C24 UNL     1      15.726   5.817  10.765  1.00  0.00     0.128 C 
ENDROOT
BRANCH   1  15
HETATM   15  C10 UNL     1      14.563   5.216  12.806  1.00  0.00     0.100 C 
BRANCH  15  16
HETATM   16  C9  UNL     1      13.424   4.564  13.473  1.00  0.00     0.018 A 
HETATM   17  C8  UNL     1      12.098   4.766  13.175  1.00  0.00     0.020 A 
HETATM   18  C7  UNL     1      11.097   4.074  13.871  1.00  0.00     0.049 A 
HETATM   19  C6  UNL     1      11.388   3.171  14.872  1.00  0.00     0.102 A 
HETATM   20  N6  UNL     1      12.694   2.998  15.138  1.00  0.00    -0.333 N 
HETATM   21  C25 UNL     1      13.678   3.644  14.492  1.00  0.00     0.116 A 
ATOM     22  H6  UNL     1      12.952   2.339  15.872  1.00  0.00     0.168 HD
HETATM   23 CL4  UNL     1      15.375   3.368  14.893  1.00  0.00    -0.064 Cl
BRANCH  19  24
HETATM   24  N1  UNL     1      10.370   2.467  15.576  1.00  0.00    -0.376 N 
ATOM     25  H1  UNL     1      10.636   1.676  16.162  1.00  0.00     0.161 HD
BRANCH  24  26
HETATM   26  C5  UNL     1       8.973   2.832  15.492  1.00  0.00     0.121 C 
BRANCH  26  27
HETATM   27  C4  UNL     1       8.096   1.639  15.227  1.00  0.00     0.020 C 
BRANCH  27  28
HETATM   28  C3  UNL     1       7.423   1.728  13.871  1.00  0.00     0.001 C 
BRANCH  28  29
HETATM   29  C2  UNL     1       8.392   1.579  12.743  1.00  0.00    -0.004 C 
HETATM   30  C1  UNL     1       8.330   2.764  11.798  1.00  0.00     0.005 C 
ENDBRANCH  28  29
ENDBRANCH  27  28
ENDBRANCH  26  27
ENDBRANCH  24  26
ENDBRANCH  19  24
ENDBRANCH  15  16
ENDBRANCH   1  15
BRANCH  10  31
HETATM   31  C17 UNL     1      15.302   9.771   9.278  1.00  0.00     0.082 A 
HETATM   32  C18 UNL     1      16.169   9.452  10.325  1.00  0.00     0.067 A 
HETATM   33 CL1  UNL     1      15.537   8.643  11.733  1.00  0.00    -0.082 Cl
HETATM   34  C19 UNL     1      17.494   9.790  10.200  1.00  0.00     0.114 A 
HETATM   35  N5  UNL     1      17.978  10.413   9.116  1.00  0.00    -0.354 N 
HETATM   36  C20 UNL     1      17.158  10.731   8.090  1.00  0.00     0.126 A 
ATOM     37  H5  UNL     1      18.970  10.647   9.065  1.00  0.00     0.166 HD
HETATM   38 CL2  UNL     1      17.858  11.548   6.696  1.00  0.00    -0.063 Cl
HETATM   39  C21 UNL     1      15.832  10.416   8.166  1.00  0.00     0.090 A 
HETATM   40 CL3  UNL     1      14.781  10.813   6.831  1.00  0.00    -0.080 Cl
ENDBRANCH  10  31
TORSDOF 8
ENDMDL
MODEL 2
REMARK VINA RESULT: -8.776917905      2.721      5.298
REMARK  8 active torsions:
REMARK  status: ('A' for Active; 'I' for Inactive)
REMARK    1  A    between atoms: C2_2  and  C3_3 
REMARK    2  A    between atoms: C3_3  and  C4_4 
REMARK    3  A    between atoms: C4_4  and  C5_5 
REMARK    4  A    between atoms: C5_5  and  N1_6 
REMARK    5  A    between atoms: N1_6  and  C6_8 
REMARK    6  A    between atoms: C9_11  and  C10_12 
REMARK    7  A    between atoms: C10_12  and  N2_13 
REMARK       I    between atoms: N4_21  and  C16_22 
REMARK    8  A    between atoms: C16_22  and  C17_24 
ROOT
HETATM    1  N2  UNL     1      13.189   3.726  15.086  1.00  0.00    -0.388 N 
HETATM    2  C11 UNL     1      13.595   4.104  16.394  1.00  0.00     0.127 C 
HETATM    3  C12 UNL     1      15.062   4.432  16.401  1.00  0.00     0.062 C 
HETATM    4  C13 UNL     1      15.635   4.518  15.032  1.00  0.00    -0.008 A 
HETATM    5  C14 UNL     1      16.838   4.000  14.653  1.00  0.00     0.031 A 
HETATM    6  C15 UNL     1      17.793   3.257  15.562  1.00  0.00     0.070 C 
HETATM    7  N3  UNL     1      16.989   4.274  13.371  1.00  0.00    -0.295 N 
ATOM      8  H3  UNL     1      17.798   4.011  12.811  1.00  0.00     0.187 HD
HETATM    9  N4  UNL     1      15.911   4.959  12.904  1.00  0.00    -0.223 N 
HETATM   10  C16 UNL     1      15.878   5.354  11.553  1.00  0.00     0.280 C 
HETATM   11  O1  UNL     1      16.913   5.091  10.835  1.00  0.00    -0.265 OA
HETATM   12  C22 UNL     1      15.072   5.118  13.908  1.00  0.00     0.047 A 
HETATM   13  C23 UNL     1      13.775   5.805  13.930  1.00  0.00     0.080 C 
HETATM   14  C24 UNL     1      12.686   4.785  14.278  1.00  0.00     0.128 C 
ENDROOT
BRANCH   1  15
HETATM   15  C10 UNL     1      12.700   2.434  14.869  1.00  0.00     0.100 C 
BRANCH  15  16
HETATM   16  C9  UNL     1      11.297   2.276  14.453  1.00  0.00     0.018 A 
HETATM   17  C8  UNL     1      10.829   2.365  13.164  1.00  0.00     0.020 A 
HETATM   18  C7  UNL     1       9.467   2.180  12.885  1.00  0.00     0.049 A 
HETATM   19  C6  UNL     1       8.546   1.904  13.873  1.00  0.00     0.102 A 
HETATM   20  N6  UNL     1       9.037   1.825  15.122  1.00  0.00    -0.333 N 
HETATM   21  C25 UNL     1      10.335   1.996  15.425  1.00  0.00     0.116 A 
ATOM     22  H6  UNL     1       8.389   1.622  15.882  1.00  0.00     0.168 HD
HETATM   23 CL4  UNL     1      10.912   1.877  17.088  1.00  0.00    -0.064 Cl
BRANCH  19  24
HETATM   24  N1  UNL     1       7.164   1.714  13.588  1.00  0.00    -0.376 N 
ATOM     25  H1  UNL     1       6.805   0.762  13.511  1.00  0.00     0.161 HD
BRANCH  24  26
HETATM   26  C5  UNL     1       6.250   2.820  13.403  1.00  0.00     0.121 C 
BRANCH  26  27
HETATM   27  C4  UNL     1       6.740   3.785  12.358  1.00  0.00     0.020 C 
BRANCH  27  28
HETATM   28  C3  UNL     1       6.920   5.180  12.925  1.00  0.00     0.001 C 
BRANCH  28  29
HETATM   29  C2  UNL     1       8.347   5.624  12.903  1.00  0.00    -0.004 C 
HETATM   30  C1  UNL     1       8.958   5.597  14.292  1.00  0.00     0.005 C 
ENDBRANCH  28  29
ENDBRANCH  27  28
ENDBRANCH  26  27
ENDBRANCH  24  26
ENDBRANCH  19  24
ENDBRANCH  15  16
ENDBRANCH   1  15
BRANCH  10  31
HETATM   31  C17 UNL     1      14.836   6.022  10.832  1.00  0.00     0.082 A 
HETATM   32  C18 UNL     1      14.968   7.383  10.545  1.00  0.00     0.067 A 
HETATM   33 CL1  UNL     1      16.372   8.239  11.122  1.00  0.00    -0.082 Cl
HETATM   34  C19 UNL     1      13.979   7.993   9.814  1.00  0.00     0.114 A 
HETATM   35  N5  UNL     1      12.900   7.333   9.371  1.00  0.00    -0.354 N 
HETATM   36  C20 UNL     1      12.751   6.016   9.635  1.00  0.00     0.126 A 
ATOM     37  H5  UNL     1      12.188   7.826   8.832  1.00  0.00     0.166 HD
HETATM   38 CL2  UNL     1      11.311   5.208   9.024  1.00  0.00    -0.063 Cl
HETATM   39  C21 UNL     1      13.707   5.362  10.358  1.00  0.00     0.090 A 
HETATM   40 CL3  UNL     1      13.519   3.659  10.681  1.00  0.00    -0.080 Cl
ENDBRANCH  10  31
TORSDOF 8
ENDMDL
MODEL 3
REMARK VINA RESULT: -8.758754924      2.569      5.052
REMARK  8 active torsions:
REMARK  status: ('A' for Active; 'I' for Inactive)
REMARK    1  A    between atoms: C2_2  and  C3_3 
REMARK    2  A    between atoms: C3_3  and  C4_4 
REMARK    3  A    between atoms: C4_4  and  C5_5 
REMARK    4  A    between atoms: C5_5  and  N1_6 
REMARK    5  A    between atoms: N1_6  and  C6_8 
REMARK    6  A    between atoms: C9_11  and  C10_12 
REMARK    7  A    between atoms: C10_12  and  N2_13 
REMARK       I    between atoms: N4_21  and  C16_22 
REMARK    8  A    between atoms: C16_22  and  C17_24 
ROOT
HETATM    1  N2  UNL     1      13.214   3.781  14.982  1.00  0.00    -0.388 N 
HETATM    2  C11 UNL     1      13.594   4.160  16.297  1.00  0.00     0.127 C 
HETATM    3  C12 UNL     1      15.064   4.476  16.335  1.00  0.00     0.062 C 
HETATM    4  C13 UNL     1      15.667   4.552  14.978  1.00  0.00    -0.008 A 
HETATM    5  C14 UNL     1      16.873   4.023  14.627  1.00  0.00     0.031 A 
HETATM    6  C15 UNL     1      17.802   3.275  15.559  1.00  0.00     0.070 C 
HETATM    7  N3  UNL     1      17.054   4.291  13.348  1.00  0.00    -0.295 N 
ATOM      8  H3  UNL     1      17.873   4.018  12.806  1.00  0.00     0.187 HD
HETATM    9  N4  UNL     1      15.992   4.982  12.856  1.00  0.00    -0.223 N 
HETATM   10  C16 UNL     1      15.991   5.373  11.502  1.00  0.00     0.280 C 
HETATM   11  O1  UNL     1      17.039   5.098  10.808  1.00  0.00    -0.265 OA
HETATM   12  C22 UNL     1      15.132   5.153  13.841  1.00  0.00     0.047 A 
HETATM   13  C23 UNL     1      13.841   5.850  13.832  1.00  0.00     0.080 C 
HETATM   14  C24 UNL     1      12.737   4.840  14.160  1.00  0.00     0.128 C 
ENDROOT
BRANCH   1  15
HETATM   15  C10 UNL     1      12.719   2.492  14.760  1.00  0.00     0.100 C 
BRANCH  15  16
HETATM   16  C9  UNL     1      11.307   2.340  14.369  1.00  0.00     0.018 A 
HETATM   17  C8  UNL     1      10.811   2.469  13.093  1.00  0.00     0.020 A 
HETATM   18  C7  UNL     1       9.445   2.287  12.837  1.00  0.00     0.049 A 
HETATM   19  C6  UNL     1       8.546   1.974  13.835  1.00  0.00     0.102 A 
HETATM   20  N6  UNL     1       9.065   1.855  15.070  1.00  0.00    -0.333 N 
HETATM   21  C25 UNL     1      10.367   2.024  15.350  1.00  0.00     0.116 A 
ATOM     22  H6  UNL     1       8.433   1.625  15.836  1.00  0.00     0.168 HD
HETATM   23 CL4  UNL     1      10.981   1.852  16.997  1.00  0.00    -0.064 Cl
BRANCH  19  24
HETATM   24  N1  UNL     1       7.159   1.786  13.573  1.00  0.00    -0.376 N 
ATOM     25  H1  UNL     1       6.802   0.835  13.479  1.00  0.00     0.161 HD
BRANCH  24  26
HETATM   26  C5  UNL     1       6.239   2.893  13.435  1.00  0.00     0.121 C 
BRANCH  26  27
HETATM   27  C4  UNL     1       6.669   3.850  12.357  1.00  0.00     0.020 C 
BRANCH  27  28
HETATM   28  C3  UNL     1       6.865   5.253  12.900  1.00  0.00     0.001 C 
BRANCH  28  29
HETATM   29  C2  UNL     1       8.298   5.677  12.879  1.00  0.00    -0.004 C 
HETATM   30  C1  UNL     1       8.903   5.657  14.270  1.00  0.00     0.005 C 
ENDBRANCH  28  29
ENDBRANCH  27  28
ENDBRANCH  26  27
ENDBRANCH  24  26
ENDBRANCH  19  24
ENDBRANCH  15  16
ENDBRANCH   1  15
BRANCH  10  31
HETATM   31  C17 UNL     1      14.970   6.047  10.757  1.00  0.00     0.082 A 
HETATM   32  C18 UNL     1      13.847   5.332  10.336  1.00  0.00     0.067 A 
HETATM   33 CL1  UNL     1      13.747   3.628  10.684  1.00  0.00    -0.082 Cl
HETATM   34  C19 UNL     1      12.860   6.008   9.662  1.00  0.00     0.114 A 
HETATM   35  N5  UNL     1      12.938   7.319   9.396  1.00  0.00    -0.354 N 
HETATM   36  C20 UNL     1      14.015   8.032   9.793  1.00  0.00     0.126 A 
ATOM     37  H5  UNL     1      12.182   7.782   8.891  1.00  0.00     0.166 HD
HETATM   38 CL2  UNL     1      14.056   9.750   9.412  1.00  0.00    -0.063 Cl
HETATM   39  C21 UNL     1      15.024   7.407  10.468  1.00  0.00     0.090 A 
HETATM   40 CL3  UNL     1      16.404   8.335  10.994  1.00  0.00    -0.080 Cl
ENDBRANCH  10  31
TORSDOF 8
ENDMDL
MODEL 4
REMARK VINA RESULT: -8.679281763      2.555      4.381
REMARK  8 active torsions:
REMARK  status: ('A' for Active; 'I' for Inactive)
REMARK    1  A    between atoms: C2_2  and  C3_3 
REMARK    2  A    between atoms: C3_3  and  C4_4 
REMARK    3  A    between atoms: C4_4  and  C5_5 
REMARK    4  A    between atoms: C5_5  and  N1_6 
REMARK    5  A    between atoms: N1_6  and  C6_8 
REMARK    6  A    between atoms: C9_11  and  C10_12 
REMARK    7  A    between atoms: C10_12  and  N2_13 
REMARK       I    between atoms: N4_21  and  C16_22 
REMARK    8  A    between atoms: C16_22  and  C17_24 
ROOT
HETATM    1  N2  UNL     1      15.312   6.823  10.349  1.00  0.00    -0.388 N 
HETATM    2  C11 UNL     1      16.177   6.076  11.192  1.00  0.00     0.127 C 
HETATM    3  C12 UNL     1      17.605   6.275  10.767  1.00  0.00     0.062 C 
HETATM    4  C13 UNL     1      17.757   7.365   9.767  1.00  0.00    -0.008 A 
HETATM    5  C14 UNL     1      18.550   7.307   8.660  1.00  0.00     0.031 A 
HETATM    6  C15 UNL     1      19.413   6.127   8.266  1.00  0.00     0.070 C 
HETATM    7  N3  UNL     1      18.413   8.456   8.026  1.00  0.00    -0.295 N 
ATOM      8  H3  UNL     1      18.889   8.703   7.159  1.00  0.00     0.187 HD
HETATM    9  N4  UNL     1      17.546   9.263   8.694  1.00  0.00    -0.223 N 
HETATM   10  C16 UNL     1      17.265  10.545   8.183  1.00  0.00     0.280 C 
HETATM   11  O1  UNL     1      17.898  10.910   7.124  1.00  0.00    -0.265 OA
HETATM   12  C22 UNL     1      17.136   8.612   9.764  1.00  0.00     0.047 A 
HETATM   13  C23 UNL     1      16.213   9.052  10.817  1.00  0.00     0.080 C 
HETATM   14  C24 UNL     1      14.990   8.129  10.814  1.00  0.00     0.128 C 
ENDROOT
BRANCH   1  15
HETATM   15  C10 UNL     1      14.373   6.146   9.564  1.00  0.00     0.100 C 
BRANCH  15  16
HETATM   16  C9  UNL     1      12.962   6.166   9.985  1.00  0.00     0.018 A 
HETATM   17  C8  UNL     1      12.001   7.036   9.529  1.00  0.00     0.020 A 
HETATM   18  C7  UNL     1      10.681   6.950   9.994  1.00  0.00     0.049 A 
HETATM   19  C6  UNL     1      10.288   6.003  10.915  1.00  0.00     0.102 A 
HETATM   20  N6  UNL     1      11.252   5.168  11.341  1.00  0.00    -0.333 N 
HETATM   21  C25 UNL     1      12.525   5.223  10.917  1.00  0.00     0.116 A 
ATOM     22  H6  UNL     1      11.002   4.453  12.023  1.00  0.00     0.168 HD
HETATM   23 CL4  UNL     1      13.742   4.093  11.518  1.00  0.00    -0.064 Cl
BRANCH  19  24
HETATM   24  N1  UNL     1       8.946   5.914  11.384  1.00  0.00    -0.376 N 
ATOM     25  H1  UNL     1       8.202   6.328  10.823  1.00  0.00     0.161 HD
BRANCH  24  26
HETATM   26  C5  UNL     1       8.599   5.260  12.626  1.00  0.00     0.121 C 
BRANCH  26  27
HETATM   27  C4  UNL     1       7.627   4.131  12.414  1.00  0.00     0.020 C 
BRANCH  27  28
HETATM   28  C3  UNL     1       8.315   2.896  11.865  1.00  0.00     0.001 C 
BRANCH  28  29
HETATM   29  C2  UNL     1       8.292   1.755  12.830  1.00  0.00    -0.004 C 
HETATM   30  C1  UNL     1       7.138   1.877  13.807  1.00  0.00     0.005 C 
ENDBRANCH  28  29
ENDBRANCH  27  28
ENDBRANCH  26  27
ENDBRANCH  24  26
ENDBRANCH  19  24
ENDBRANCH  15  16
ENDBRANCH   1  15
BRANCH  10  31
HETATM   31  C17 UNL     1      16.353  11.534   8.675  1.00  0.00     0.082 A 
HETATM   32  C18 UNL     1      16.857  12.710   9.234  1.00  0.00     0.067 A 
HETATM   33 CL1  UNL     1      18.583  12.914   9.367  1.00  0.00    -0.082 Cl
HETATM   34  C19 UNL     1      15.966  13.664   9.658  1.00  0.00     0.114 A 
HETATM   35  N5  UNL     1      14.638  13.505   9.555  1.00  0.00    -0.354 N 
HETATM   36  C20 UNL     1      14.127  12.376   9.016  1.00  0.00     0.126 A 
ATOM     37  H5  UNL     1      14.011  14.239   9.884  1.00  0.00     0.166 HD
HETATM   38 CL2  UNL     1      12.376  12.230   8.909  1.00  0.00    -0.063 Cl
HETATM   39  C21 UNL     1      14.972  11.397   8.579  1.00  0.00     0.090 A 
HETATM   40 CL3  UNL     1      14.308   9.949   7.868  1.00  0.00    -0.080 Cl
ENDBRANCH  10  31
TORSDOF 8
ENDMDL
MODEL 5
REMARK VINA RESULT: -8.655921129      3.499      5.728
REMARK  8 active torsions:
REMARK  status: ('A' for Active; 'I' for Inactive)
REMARK    1  A    between atoms: C2_2  and  C3_3 
REMARK    2  A    between atoms: C3_3  and  C4_4 
REMARK    3  A    between atoms: C4_4  and  C5_5 
REMARK    4  A    between atoms: C5_5  and  N1_6 
REMARK    5  A    between atoms: N1_6  and  C6_8 
REMARK    6  A    between atoms: C9_11  and  C10_12 
REMARK    7  A    between atoms: C10_12  and  N2_13 
REMARK       I    between atoms: N4_21  and  C16_22 
REMARK    8  A    between atoms: C16_22  and  C17_24 
ROOT
HETATM    1  N2  UNL     1      14.630   5.237  11.587  1.00  0.00    -0.388 N 
HETATM    2  C11 UNL     1      14.120   4.088  10.926  1.00  0.00     0.127 C 
HETATM    3  C12 UNL     1      13.009   4.484   9.993  1.00  0.00     0.062 C 
HETATM    4  C13 UNL     1      12.905   5.957   9.821  1.00  0.00    -0.008 A 
HETATM    5  C14 UNL     1      11.740   6.663   9.802  1.00  0.00     0.031 A 
HETATM    6  C15 UNL     1      10.356   6.067   9.947  1.00  0.00     0.070 C 
HETATM    7  N3  UNL     1      12.060   7.932   9.635  1.00  0.00    -0.295 N 
ATOM      8  H3  UNL     1      11.391   8.700   9.581  1.00  0.00     0.187 HD
HETATM    9  N4  UNL     1      13.409   8.071   9.546  1.00  0.00    -0.223 N 
HETATM   10  C16 UNL     1      13.960   9.354   9.359  1.00  0.00     0.280 C 
HETATM   11  O1  UNL     1      13.138  10.335   9.224  1.00  0.00    -0.265 OA
HETATM   12  C22 UNL     1      13.944   6.871   9.656  1.00  0.00     0.047 A 
HETATM   13  C23 UNL     1      15.357   6.480   9.605  1.00  0.00     0.080 C 
HETATM   14  C24 UNL     1      15.743   5.858  10.951  1.00  0.00     0.128 C 
ENDROOT
BRANCH   1  15
HETATM   15  C10 UNL     1      14.523   5.328  12.978  1.00  0.00     0.100 C 
BRANCH  15  16
HETATM   16  C9  UNL     1      15.704   5.004  13.796  1.00  0.00     0.018 A 
HETATM   17  C8  UNL     1      16.991   4.876  13.329  1.00  0.00     0.020 A 
HETATM   18  C7  UNL     1      18.042   4.578  14.208  1.00  0.00     0.049 A 
HETATM   19  C6  UNL     1      17.840   4.400  15.561  1.00  0.00     0.102 A 
HETATM   20  N6  UNL     1      16.571   4.530  15.982  1.00  0.00    -0.333 N 
HETATM   21  C25 UNL     1      15.540   4.815  15.169  1.00  0.00     0.116 A 
ATOM     22  H6  UNL     1      16.379   4.406  16.976  1.00  0.00     0.168 HD
HETATM   23 CL4  UNL     1      13.896   4.974  15.791  1.00  0.00    -0.064 Cl
BRANCH  19  24
HETATM   24  N1  UNL     1      18.909   4.099  16.452  1.00  0.00    -0.376 N 
ATOM     25  H1  UNL     1      19.493   3.285  16.260  1.00  0.00     0.161 HD
BRANCH  24  26
HETATM   26  C5  UNL     1      19.196   4.903  17.619  1.00  0.00     0.121 C 
BRANCH  26  27
HETATM   27  C4  UNL     1      19.562   6.315  17.251  1.00  0.00     0.020 C 
BRANCH  27  28
HETATM   28  C3  UNL     1      19.551   7.229  18.461  1.00  0.00     0.001 C 
BRANCH  28  29
HETATM   29  C2  UNL     1      20.625   8.268  18.401  1.00  0.00    -0.004 C 
HETATM   30  C1  UNL     1      20.882   8.880  19.765  1.00  0.00     0.005 C 
ENDBRANCH  28  29
ENDBRANCH  27  28
ENDBRANCH  26  27
ENDBRANCH  24  26
ENDBRANCH  19  24
ENDBRANCH  15  16
ENDBRANCH   1  15
BRANCH  10  31
HETATM   31  C17 UNL     1      15.336   9.747   9.297  1.00  0.00     0.082 A 
HETATM   32  C18 UNL     1      16.181   9.445  10.366  1.00  0.00     0.067 A 
HETATM   33 CL1  UNL     1      15.523   8.647  11.768  1.00  0.00    -0.082 Cl
HETATM   34  C19 UNL     1      17.506   9.791  10.267  1.00  0.00     0.114 A 
HETATM   35  N5  UNL     1      18.011  10.404   9.187  1.00  0.00    -0.354 N 
HETATM   36  C20 UNL     1      17.212  10.706   8.139  1.00  0.00     0.126 A 
ATOM     37  H5  UNL     1      19.002  10.644   9.155  1.00  0.00     0.166 HD
HETATM   38 CL2  UNL     1      17.938  11.511   6.752  1.00  0.00    -0.063 Cl
HETATM   39  C21 UNL     1      15.887  10.382   8.189  1.00  0.00     0.090 A 
HETATM   40 CL3  UNL     1      14.864  10.758   6.827  1.00  0.00    -0.080 Cl
ENDBRANCH  10  31
TORSDOF 8
ENDMDL
