MODEL 1
REMARK VINA RESULT: -6.761032899      0.000      0.000
REMARK  10 active torsions:
REMARK  status: ('A' for Active; 'I' for Inactive)
REMARK    1  A    between atoms: C2_5  and  C3_6 
REMARK    2  A    between atoms: C3_6  and  C4_7 
REMARK    3  A    between atoms: C4_7  and  O1_8 
REMARK    4  A    between atoms: C4_7  and  C6_14 
REMARK    5  A    between atoms: O1_8  and  C5_9 
REMARK    6  A    between atoms: C6_14  and  N8_23 
REMARK    7  A    between atoms: N5_15  and  O2_17 
REMARK    8  A    between atoms: O2_17  and  C7_18 
REMARK       I    between atoms: N8_23  and  C8_25 
REMARK    9  A    between atoms: N10_27  and  N11_29 
REMARK   10  A    between atoms: C9_34  and  N13_35 
ROOT
HETATM    1  C4  UNL     1     -31.899  20.023 -12.794  1.00  0.00     0.208 C 
ENDROOT
BRANCH   1   2
HETATM    2  C3  UNL     1     -32.782  19.953 -11.571  1.00  0.00     0.119 C 
BRANCH   2   3
HETATM    3  C2  UNL     1     -33.478  18.638 -11.472  1.00  0.00     0.115 A 
HETATM    4  N2  UNL     1     -33.001  17.479 -10.982  1.00  0.00    -0.272 N 
HETATM    5  N1  UNL     1     -33.944  16.536 -11.074  1.00  0.00    -0.127 N 
ATOM      6  H2  UNL     1     -32.065  17.342 -10.601  1.00  0.00     0.189 HD
HETATM    7  C1  UNL     1     -33.827  15.151 -10.657  1.00  0.00     0.197 C 
HETATM    8  C9  UNL     1     -35.046  17.074 -11.626  1.00  0.00     0.693 A 
HETATM    9  N12 UNL     1     -34.738  18.369 -11.863  1.00  0.00    -0.178 N 
ATOM     10  H12 UNL     1     -35.373  19.048 -12.282  1.00  0.00     0.185 HD
BRANCH   8  11
HETATM   11  N13 UNL     1     -36.169  16.475 -11.878  1.00  0.00    -0.233 N 
ATOM     12 2H13 UNL     1     -36.310  15.485 -12.074  1.00  0.00     0.174 HD
ATOM     13 1H13 UNL     1     -37.096  16.897 -11.921  1.00  0.00     0.174 HD
ENDBRANCH   8  11
ENDBRANCH   2   3
ENDBRANCH   1   2
BRANCH   1  14
HETATM   14  O1  UNL     1     -31.710  18.749 -13.381  1.00  0.00    -0.311 OA
BRANCH  14  15
HETATM   15  C5  UNL     1     -32.218  18.562 -14.659  1.00  0.00     0.225 C 
HETATM   16  N3  UNL     1     -33.429  18.145 -14.814  1.00  0.00    -0.368 N 
ATOM     17  H32 UNL     1     -33.982  17.963 -13.976  1.00  0.00     0.159 HD
ATOM     18  H31 UNL     1     -33.802  18.007 -15.753  1.00  0.00     0.159 HD
HETATM   19  N4  UNL     1     -31.444  18.817 -15.831  1.00  0.00    -0.057 NA
ENDBRANCH  14  15
ENDBRANCH   1  14
BRANCH   1  20
HETATM   20  C6  UNL     1     -30.614  20.627 -12.378  1.00  0.00     0.134 C 
HETATM   21  N5  UNL     1     -30.082  20.438 -11.220  1.00  0.00    -0.243 N 
ATOM     22  H5  UNL     1     -30.575  19.840 -10.556  1.00  0.00     0.196 HD
BRANCH  21  23
HETATM   23  O2  UNL     1     -28.908  20.989 -10.834  1.00  0.00    -0.203 OA
BRANCH  23  24
HETATM   24  C7  UNL     1     -28.852  22.111 -10.019  1.00  0.00     0.249 C 
HETATM   25  N6  UNL     1     -28.446  23.210 -10.573  1.00  0.00    -0.366 N 
ATOM     26  H62 UNL     1     -28.181  23.249 -11.557  1.00  0.00     0.159 HD
ATOM     27  H61 UNL     1     -28.405  24.034  -9.974  1.00  0.00     0.159 HD
HETATM   28  N7  UNL     1     -29.222  22.056  -8.642  1.00  0.00    -0.055 NA
ENDBRANCH  23  24
ENDBRANCH  21  23
BRANCH  20  29
HETATM   29  N8  UNL     1     -29.937  21.458 -13.309  1.00  0.00    -0.315 N 
HETATM   30  C8  UNL     1     -29.013  20.974 -14.272  1.00  0.00     0.208 C 
HETATM   31  N9  UNL     1     -28.157  21.917 -14.907  1.00  0.00    -0.062 NA
HETATM   32  N10 UNL     1     -28.964  19.733 -14.548  1.00  0.00    -0.280 N 
ATOM     33  H10 UNL     1     -29.598  19.094 -14.067  1.00  0.00     0.189 HD
ATOM     34  H8  UNL     1     -30.125  22.461 -13.285  1.00  0.00     0.170 HD
BRANCH  32  35
HETATM   35  N11 UNL     1     -28.077  19.220 -15.481  1.00  0.00    -0.343 N 
ATOM     36 2H11 UNL     1     -28.366  18.402 -16.017  1.00  0.00     0.176 HD
ATOM     37 1H11 UNL     1     -27.159  19.636 -15.642  1.00  0.00     0.176 HD
ENDBRANCH  32  35
ENDBRANCH  20  29
ENDBRANCH   1  20
TORSDOF 10
ENDMDL
MODEL 2
REMARK VINA RESULT: -6.628436493      1.105      1.436
REMARK  10 active torsions:
REMARK  status: ('A' for Active; 'I' for Inactive)
REMARK    1  A    between atoms: C2_5  and  C3_6 
REMARK    2  A    between atoms: C3_6  and  C4_7 
REMARK    3  A    between atoms: C4_7  and  O1_8 
REMARK    4  A    between atoms: C4_7  and  C6_14 
REMARK    5  A    between atoms: O1_8  and  C5_9 
REMARK    6  A    between atoms: C6_14  and  N8_23 
REMARK    7  A    between atoms: N5_15  and  O2_17 
REMARK    8  A    between atoms: O2_17  and  C7_18 
REMARK       I    between atoms: N8_23  and  C8_25 
REMARK    9  A    between atoms: N10_27  and  N11_29 
REMARK   10  A    between atoms: C9_34  and  N13_35 
ROOT
HETATM    1  C4  UNL     1     -31.608  19.072 -12.351  1.00  0.00     0.208 C 
ENDROOT
BRANCH   1   2
HETATM    2  C3  UNL     1     -31.657  18.239 -11.092  1.00  0.00     0.119 C 
BRANCH   2   3
HETATM    3  C2  UNL     1     -32.707  17.183 -11.174  1.00  0.00     0.115 A 
HETATM    4  N2  UNL     1     -33.720  16.949 -10.320  1.00  0.00    -0.272 N 
HETATM    5  N1  UNL     1     -34.437  15.908 -10.756  1.00  0.00    -0.127 N 
ATOM      6  H2  UNL     1     -33.911  17.483  -9.472  1.00  0.00     0.189 HD
HETATM    7  C1  UNL     1     -35.611  15.339 -10.121  1.00  0.00     0.197 C 
HETATM    8  C9  UNL     1     -33.895  15.455 -11.901  1.00  0.00     0.693 A 
HETATM    9  N12 UNL     1     -32.832  16.253 -12.140  1.00  0.00    -0.178 N 
ATOM     10  H12 UNL     1     -32.208  16.164 -12.942  1.00  0.00     0.185 HD
BRANCH   8  11
HETATM   11  N13 UNL     1     -34.309  14.459 -12.622  1.00  0.00    -0.233 N 
ATOM     12 2H13 UNL     1     -33.786  13.957 -13.339  1.00  0.00     0.174 HD
ATOM     13 1H13 UNL     1     -35.226  14.015 -12.591  1.00  0.00     0.174 HD
ENDBRANCH   8  11
ENDBRANCH   2   3
ENDBRANCH   1   2
BRANCH   1  14
HETATM   14  O1  UNL     1     -31.444  18.272 -13.506  1.00  0.00    -0.311 OA
BRANCH  14  15
HETATM   15  C5  UNL     1     -32.226  18.587 -14.609  1.00  0.00     0.225 C 
HETATM   16  N3  UNL     1     -33.495  18.765 -14.465  1.00  0.00    -0.368 N 
ATOM     17  H32 UNL     1     -33.889  18.666 -13.529  1.00  0.00     0.159 HD
ATOM     18  H31 UNL     1     -34.069  18.996 -15.275  1.00  0.00     0.159 HD
HETATM   19  N4  UNL     1     -31.675  18.725 -15.919  1.00  0.00    -0.057 NA
ENDBRANCH  14  15
ENDBRANCH   1  14
BRANCH   1  20
HETATM   20  C6  UNL     1     -30.501  20.042 -12.197  1.00  0.00     0.134 C 
HETATM   21  N5  UNL     1     -29.733  20.085 -11.164  1.00  0.00    -0.243 N 
ATOM     22  H5  UNL     1     -29.898  19.413 -10.414  1.00  0.00     0.196 HD
BRANCH  21  23
HETATM   23  O2  UNL     1     -28.720  20.970 -11.019  1.00  0.00    -0.203 OA
BRANCH  23  24
HETATM   24  C7  UNL     1     -28.927  22.255 -10.536  1.00  0.00     0.249 C 
HETATM   25  N6  UNL     1     -28.960  22.392  -9.248  1.00  0.00    -0.366 N 
ATOM     26  H62 UNL     1     -28.840  21.598  -8.621  1.00  0.00     0.159 HD
ATOM     27  H61 UNL     1     -29.112  23.337  -8.894  1.00  0.00     0.159 HD
HETATM   28  N7  UNL     1     -29.096  23.367 -11.415  1.00  0.00    -0.055 NA
ENDBRANCH  23  24
ENDBRANCH  21  23
BRANCH  20  29
HETATM   29  N8  UNL     1     -30.281  20.972 -13.248  1.00  0.00    -0.315 N 
HETATM   30  C8  UNL     1     -29.354  20.765 -14.302  1.00  0.00     0.208 C 
HETATM   31  N9  UNL     1     -28.976  21.890 -15.088  1.00  0.00    -0.062 NA
HETATM   32  N10 UNL     1     -28.884  19.604 -14.526  1.00  0.00    -0.280 N 
ATOM     33  H10 UNL     1     -29.184  18.827 -13.936  1.00  0.00     0.189 HD
ATOM     34  H8  UNL     1     -30.819  21.838 -13.244  1.00  0.00     0.170 HD
BRANCH  32  35
HETATM   35  N11 UNL     1     -27.977  19.360 -15.545  1.00  0.00    -0.343 N 
ATOM     36 2H11 UNL     1     -27.930  20.030 -16.313  1.00  0.00     0.176 HD
ATOM     37 1H11 UNL     1     -27.367  18.542 -15.545  1.00  0.00     0.176 HD
ENDBRANCH  32  35
ENDBRANCH  20  29
ENDBRANCH   1  20
TORSDOF 10
ENDMDL
MODEL 3
REMARK VINA RESULT: -6.626389055      2.214      4.246
REMARK  10 active torsions:
REMARK  status: ('A' for Active; 'I' for Inactive)
REMARK    1  A    between atoms: C2_5  and  C3_6 
REMARK    2  A    between atoms: C3_6  and  C4_7 
REMARK    3  A    between atoms: C4_7  and  O1_8 
REMARK    4  A    between atoms: C4_7  and  C6_14 
REMARK    5  A    between atoms: O1_8  and  C5_9 
REMARK    6  A    between atoms: C6_14  and  N8_23 
REMARK    7  A    between atoms: N5_15  and  O2_17 
REMARK    8  A    between atoms: O2_17  and  C7_18 
REMARK       I    between atoms: N8_23  and  C8_25 
REMARK    9  A    between atoms: N10_27  and  N11_29 
REMARK   10  A    between atoms: C9_34  and  N13_35 
ROOT
HETATM    1  C4  UNL     1     -33.615  19.158 -13.681  1.00  0.00     0.208 C 
ENDROOT
BRANCH   1   2
HETATM    2  C3  UNL     1     -34.226  17.803 -13.947  1.00  0.00     0.119 C 
BRANCH   2   3
HETATM    3  C2  UNL     1     -34.501  17.067 -12.678  1.00  0.00     0.115 A 
HETATM    4  N2  UNL     1     -34.124  15.821 -12.342  1.00  0.00    -0.272 N 
HETATM    5  N1  UNL     1     -34.573  15.537 -11.115  1.00  0.00    -0.127 N 
ATOM      6  H2  UNL     1     -33.581  15.190 -12.932  1.00  0.00     0.189 HD
HETATM    7  C1  UNL     1     -34.380  14.296 -10.388  1.00  0.00     0.197 C 
HETATM    8  C9  UNL     1     -35.247  16.600 -10.641  1.00  0.00     0.693 A 
HETATM    9  N12 UNL     1     -35.191  17.531 -11.619  1.00  0.00    -0.178 N 
ATOM     10  H12 UNL     1     -35.614  18.457 -11.563  1.00  0.00     0.185 HD
BRANCH   8  11
HETATM   11  N13 UNL     1     -35.829  16.707  -9.487  1.00  0.00    -0.233 N 
ATOM     12 2H13 UNL     1     -35.809  16.036  -8.720  1.00  0.00     0.174 HD
ATOM     13 1H13 UNL     1     -36.404  17.482  -9.156  1.00  0.00     0.174 HD
ENDBRANCH   8  11
ENDBRANCH   2   3
ENDBRANCH   1   2
BRANCH   1  14
HETATM   14  O1  UNL     1     -34.167  20.158 -14.517  1.00  0.00    -0.311 OA
BRANCH  14  15
HETATM   15  C5  UNL     1     -34.657  21.299 -13.896  1.00  0.00     0.225 C 
HETATM   16  N3  UNL     1     -35.279  22.190 -14.591  1.00  0.00    -0.368 N 
ATOM     17  H32 UNL     1     -35.392  22.023 -15.591  1.00  0.00     0.159 HD
ATOM     18  H31 UNL     1     -35.639  23.028 -14.135  1.00  0.00     0.159 HD
HETATM   19  N4  UNL     1     -34.499  21.533 -12.497  1.00  0.00    -0.057 NA
ENDBRANCH  14  15
ENDBRANCH   1  14
BRANCH   1  20
HETATM   20  C6  UNL     1     -32.153  19.030 -13.875  1.00  0.00     0.134 C 
HETATM   21  N5  UNL     1     -31.591  19.000 -15.034  1.00  0.00    -0.243 N 
ATOM     22  H5  UNL     1     -32.187  19.069 -15.860  1.00  0.00     0.196 HD
BRANCH  21  23
HETATM   23  O2  UNL     1     -30.256  18.883 -15.217  1.00  0.00    -0.203 OA
BRANCH  23  24
HETATM   24  C7  UNL     1     -29.634  19.289 -16.389  1.00  0.00     0.249 C 
HETATM   25  N6  UNL     1     -28.344  19.169 -16.433  1.00  0.00    -0.366 N 
ATOM     26  H62 UNL     1     -27.813  18.796 -15.646  1.00  0.00     0.159 HD
ATOM     27  H61 UNL     1     -27.887  19.467 -17.294  1.00  0.00     0.159 HD
HETATM   28  N7  UNL     1     -30.377  19.812 -17.490  1.00  0.00    -0.055 NA
ENDBRANCH  23  24
ENDBRANCH  21  23
BRANCH  20  29
HETATM   29  N8  UNL     1     -31.334  18.935 -12.719  1.00  0.00    -0.315 N 
HETATM   30  C8  UNL     1     -30.863  20.060 -11.993  1.00  0.00     0.208 C 
HETATM   31  N9  UNL     1     -29.791  19.860 -11.078  1.00  0.00    -0.062 NA
HETATM   32  N10 UNL     1     -31.391  21.204 -12.166  1.00  0.00    -0.280 N 
ATOM     33  H10 UNL     1     -32.157  21.299 -12.833  1.00  0.00     0.189 HD
ATOM     34  H8  UNL     1     -31.070  18.006 -12.392  1.00  0.00     0.170 HD
BRANCH  32  35
HETATM   35  N11 UNL     1     -30.959  22.327 -11.477  1.00  0.00    -0.343 N 
ATOM     36 2H11 UNL     1     -29.954  22.462 -11.365  1.00  0.00     0.176 HD
ATOM     37 1H11 UNL     1     -31.611  23.008 -11.087  1.00  0.00     0.176 HD
ENDBRANCH  32  35
ENDBRANCH  20  29
ENDBRANCH   1  20
TORSDOF 10
ENDMDL
MODEL 4
REMARK VINA RESULT: -6.622893718      2.570      5.360
REMARK  10 active torsions:
REMARK  status: ('A' for Active; 'I' for Inactive)
REMARK    1  A    between atoms: C2_5  and  C3_6 
REMARK    2  A    between atoms: C3_6  and  C4_7 
REMARK    3  A    between atoms: C4_7  and  O1_8 
REMARK    4  A    between atoms: C4_7  and  C6_14 
REMARK    5  A    between atoms: O1_8  and  C5_9 
REMARK    6  A    between atoms: C6_14  and  N8_23 
REMARK    7  A    between atoms: N5_15  and  O2_17 
REMARK    8  A    between atoms: O2_17  and  C7_18 
REMARK       I    between atoms: N8_23  and  C8_25 
REMARK    9  A    between atoms: N10_27  and  N11_29 
REMARK   10  A    between atoms: C9_34  and  N13_35 
ROOT
HETATM    1  C4  UNL     1     -29.943  20.469 -13.803  1.00  0.00     0.208 C 
ENDROOT
BRANCH   1   2
HETATM    2  C3  UNL     1     -28.877  20.568 -12.739  1.00  0.00     0.119 C 
BRANCH   2   3
HETATM    3  C2  UNL     1     -29.354  21.338 -11.553  1.00  0.00     0.115 A 
HETATM    4  N2  UNL     1     -30.566  21.884 -11.349  1.00  0.00    -0.272 N 
HETATM    5  N1  UNL     1     -30.585  22.489 -10.157  1.00  0.00    -0.127 N 
ATOM      6  H2  UNL     1     -31.348  21.843 -12.002  1.00  0.00     0.189 HD
HETATM    7  C1  UNL     1     -31.704  23.197  -9.563  1.00  0.00     0.197 C 
HETATM    8  C9  UNL     1     -29.382  22.341  -9.573  1.00  0.00     0.693 A 
HETATM    9  N12 UNL     1     -28.639  21.629 -10.450  1.00  0.00    -0.178 N 
ATOM     10  H12 UNL     1     -27.670  21.352 -10.297  1.00  0.00     0.185 HD
BRANCH   8  11
HETATM   11  N13 UNL     1     -29.014  22.788  -8.413  1.00  0.00    -0.233 N 
ATOM     12 2H13 UNL     1     -29.187  23.715  -8.025  1.00  0.00     0.174 HD
ATOM     13 1H13 UNL     1     -28.489  22.286  -7.698  1.00  0.00     0.174 HD
ENDBRANCH   8  11
ENDBRANCH   2   3
ENDBRANCH   1   2
BRANCH   1  14
HETATM   14  O1  UNL     1     -30.369  19.134 -14.001  1.00  0.00    -0.311 OA
BRANCH  14  15
HETATM   15  C5  UNL     1     -31.738  18.909 -14.058  1.00  0.00     0.225 C 
HETATM   16  N3  UNL     1     -32.432  18.904 -12.971  1.00  0.00    -0.368 N 
ATOM     17  H32 UNL     1     -31.944  19.067 -12.090  1.00  0.00     0.159 HD
ATOM     18  H31 UNL     1     -33.437  18.738 -13.013  1.00  0.00     0.159 HD
HETATM   19  N4  UNL     1     -32.421  18.681 -15.290  1.00  0.00    -0.057 NA
ENDBRANCH  14  15
ENDBRANCH   1  14
BRANCH   1  20
HETATM   20  C6  UNL     1     -29.388  21.055 -15.043  1.00  0.00     0.134 C 
HETATM   21  N5  UNL     1     -28.522  22.009 -15.051  1.00  0.00    -0.243 N 
ATOM     22  H5  UNL     1     -28.204  22.378 -14.155  1.00  0.00     0.196 HD
BRANCH  21  23
HETATM   23  O2  UNL     1     -28.011  22.548 -16.182  1.00  0.00    -0.203 OA
BRANCH  23  24
HETATM   24  C7  UNL     1     -26.644  22.660 -16.393  1.00  0.00     0.249 C 
HETATM   25  N6  UNL     1     -26.123  23.832 -16.208  1.00  0.00    -0.366 N 
ATOM     26  H62 UNL     1     -26.689  24.631 -15.922  1.00  0.00     0.159 HD
ATOM     27  H61 UNL     1     -25.119  23.915 -16.362  1.00  0.00     0.159 HD
HETATM   28  N7  UNL     1     -25.853  21.542 -16.794  1.00  0.00    -0.055 NA
ENDBRANCH  23  24
ENDBRANCH  21  23
BRANCH  20  29
HETATM   29  N8  UNL     1     -29.837  20.533 -16.285  1.00  0.00    -0.315 N 
HETATM   30  C8  UNL     1     -29.005  19.823 -17.189  1.00  0.00     0.208 C 
HETATM   31  N9  UNL     1     -29.465  19.653 -18.525  1.00  0.00    -0.062 NA
HETATM   32  N10 UNL     1     -27.885  19.360 -16.802  1.00  0.00    -0.280 N 
ATOM     33  H10 UNL     1     -27.596  19.506 -15.835  1.00  0.00     0.189 HD
ATOM     34  H8  UNL     1     -30.814  20.676 -16.542  1.00  0.00     0.170 HD
BRANCH  32  35
HETATM   35  N11 UNL     1     -27.043  18.661 -17.654  1.00  0.00    -0.343 N 
ATOM     36 2H11 UNL     1     -26.397  19.197 -18.233  1.00  0.00     0.176 HD
ATOM     37 1H11 UNL     1     -27.055  17.642 -17.713  1.00  0.00     0.176 HD
ENDBRANCH  32  35
ENDBRANCH  20  29
ENDBRANCH   1  20
TORSDOF 10
ENDMDL
MODEL 5
REMARK VINA RESULT: -6.611042451      2.072      3.674
REMARK  10 active torsions:
REMARK  status: ('A' for Active; 'I' for Inactive)
REMARK    1  A    between atoms: C2_5  and  C3_6 
REMARK    2  A    between atoms: C3_6  and  C4_7 
REMARK    3  A    between atoms: C4_7  and  O1_8 
REMARK    4  A    between atoms: C4_7  and  C6_14 
REMARK    5  A    between atoms: O1_8  and  C5_9 
REMARK    6  A    between atoms: C6_14  and  N8_23 
REMARK    7  A    between atoms: N5_15  and  O2_17 
REMARK    8  A    between atoms: O2_17  and  C7_18 
REMARK       I    between atoms: N8_23  and  C8_25 
REMARK    9  A    between atoms: N10_27  and  N11_29 
REMARK   10  A    between atoms: C9_34  and  N13_35 
ROOT
HETATM    1  C4  UNL     1     -32.746  19.537 -13.680  1.00  0.00     0.208 C 
ENDROOT
BRANCH   1   2
HETATM    2  C3  UNL     1     -32.688  18.032 -13.790  1.00  0.00     0.119 C 
BRANCH   2   3
HETATM    3  C2  UNL     1     -33.342  17.371 -12.623  1.00  0.00     0.115 A 
HETATM    4  N2  UNL     1     -33.261  16.083 -12.244  1.00  0.00    -0.272 N 
HETATM    5  N1  UNL     1     -33.997  15.897 -11.144  1.00  0.00    -0.127 N 
ATOM      6  H2  UNL     1     -32.721  15.361 -12.721  1.00  0.00     0.189 HD
HETATM    7  C1  UNL     1     -34.173  14.651 -10.420  1.00  0.00     0.197 C 
HETATM    8  C9  UNL     1     -34.566  17.066 -10.797  1.00  0.00     0.693 A 
HETATM    9  N12 UNL     1     -34.150  17.960 -11.722  1.00  0.00    -0.178 N 
ATOM     10  H12 UNL     1     -34.413  18.945 -11.734  1.00  0.00     0.185 HD
BRANCH   8  11
HETATM   11  N13 UNL     1     -35.350  17.286  -9.788  1.00  0.00    -0.233 N 
ATOM     12 2H13 UNL     1     -36.037  16.647  -9.388  1.00  0.00     0.174 HD
ATOM     13 1H13 UNL     1     -35.408  18.136  -9.227  1.00  0.00     0.174 HD
ENDBRANCH   8  11
ENDBRANCH   2   3
ENDBRANCH   1   2
BRANCH   1  14
HETATM   14  O1  UNL     1     -33.927  20.063 -14.257  1.00  0.00    -0.311 OA
BRANCH  14  15
HETATM   15  C5  UNL     1     -34.460  21.204 -13.674  1.00  0.00     0.225 C 
HETATM   16  N3  UNL     1     -34.232  21.456 -12.430  1.00  0.00    -0.368 N 
ATOM     17  H32 UNL     1     -33.657  20.796 -11.906  1.00  0.00     0.159 HD
ATOM     18  H31 UNL     1     -34.624  22.295 -12.003  1.00  0.00     0.159 HD
HETATM   19  N4  UNL     1     -35.264  22.128 -14.408  1.00  0.00    -0.057 NA
ENDBRANCH  14  15
ENDBRANCH   1  14
BRANCH   1  20
HETATM   20  C6  UNL     1     -31.533  20.076 -14.332  1.00  0.00     0.134 C 
HETATM   21  N5  UNL     1     -30.948  19.504 -15.328  1.00  0.00    -0.243 N 
ATOM     22  H5  UNL     1     -31.345  18.633 -15.683  1.00  0.00     0.196 HD
BRANCH  21  23
HETATM   23  O2  UNL     1     -29.839  19.992 -15.927  1.00  0.00    -0.203 OA
BRANCH  23  24
HETATM   24  C7  UNL     1     -28.570  19.508 -15.639  1.00  0.00     0.249 C 
HETATM   25  N6  UNL     1     -27.843  19.150 -16.649  1.00  0.00    -0.366 N 
ATOM     26  H62 UNL     1     -28.184  19.219 -17.608  1.00  0.00     0.159 HD
ATOM     27  H61 UNL     1     -26.911  18.794 -16.437  1.00  0.00     0.159 HD
HETATM   28  N7  UNL     1     -28.093  19.410 -14.297  1.00  0.00    -0.055 NA
ENDBRANCH  23  24
ENDBRANCH  21  23
BRANCH  20  29
HETATM   29  N8  UNL     1     -30.989  21.288 -13.830  1.00  0.00    -0.315 N 
HETATM   30  C8  UNL     1     -30.281  21.386 -12.604  1.00  0.00     0.208 C 
HETATM   31  N9  UNL     1     -30.088  22.682 -12.048  1.00  0.00    -0.062 NA
HETATM   32  N10 UNL     1     -29.839  20.339 -12.032  1.00  0.00    -0.280 N 
ATOM     33  H10 UNL     1     -30.001  19.431 -12.469  1.00  0.00     0.189 HD
ATOM     34  H8  UNL     1     -31.115  22.137 -14.381  1.00  0.00     0.170 HD
BRANCH  32  35
HETATM   35  N11 UNL     1     -29.142  20.392 -10.835  1.00  0.00    -0.343 N 
ATOM     36 2H11 UNL     1     -29.682  20.430  -9.970  1.00  0.00     0.176 HD
ATOM     37 1H11 UNL     1     -28.123  20.394 -10.800  1.00  0.00     0.176 HD
ENDBRANCH  32  35
ENDBRANCH  20  29
ENDBRANCH   1  20
TORSDOF 10
ENDMDL
