MODEL 1
REMARK VINA RESULT: -6.978197416      0.000      0.000
REMARK  10 active torsions:
REMARK  status: ('A' for Active; 'I' for Inactive)
REMARK    1  A    between atoms: N1_1  and  C1_4 
REMARK    2  A    between atoms: C2_7  and  N3_8 
REMARK    3  A    between atoms: N3_8  and  C3_10 
REMARK    4  A    between atoms: C3_10  and  C4_11 
REMARK    5  A    between atoms: C4_11  and  N4_12 
REMARK    6  A    between atoms: N4_12  and  N5_14 
REMARK    7  A    between atoms: C6_19  and  N8_20 
REMARK    8  A    between atoms: C7_25  and  N10_26 
REMARK    9  A    between atoms: C9_28  and  N11_29 
REMARK   10  A    between atoms: C10_36  and  N13_37 
ROOT
HETATM    1  C1  UNL     1     -29.396  20.834 -11.575  1.00  0.00     0.692 A 
HETATM    2  N2  UNL     1     -28.725  21.276 -12.676  1.00  0.00    -0.022 N 
ATOM      3  H2  UNL     1     -27.927  21.906 -12.583  1.00  0.00     0.203 HD
HETATM    4  C2  UNL     1     -29.139  20.863 -13.891  1.00  0.00     0.715 A 
HETATM    5  N7  UNL     1     -30.203  20.024 -13.999  1.00  0.00     0.042 N 
HETATM    6  C6  UNL     1     -30.796  19.484 -15.076  1.00  0.00     0.700 A 
HETATM    7  N9  UNL     1     -31.819  18.716 -14.669  1.00  0.00    -0.172 N 
ATOM      8  H9  UNL     1     -32.438  18.188 -15.286  1.00  0.00     0.186 HD
HETATM    9  C7  UNL     1     -31.909  18.744 -13.306  1.00  0.00     0.169 A 
HETATM   10  C11 UNL     1     -30.877  19.577 -12.923  1.00  0.00     0.206 A 
HETATM   11  N14 UNL     1     -30.445  20.005 -11.702  1.00  0.00    -0.171 N 
ATOM     12  H14 UNL     1     -30.932  19.687 -10.863  1.00  0.00     0.186 HD
ENDROOT
BRANCH   9  13
HETATM   13  N10 UNL     1     -32.851  18.073 -12.490  1.00  0.00    -0.310 N 
HETATM   14  C8  UNL     1     -32.671  16.754 -11.933  1.00  0.00     0.191 C 
HETATM   15  C9  UNL     1     -33.301  16.919 -10.577  1.00  0.00     0.402 C 
HETATM   16  N12 UNL     1     -34.158  18.082 -10.654  1.00  0.00     0.002 N 
HETATM   17  C10 UNL     1     -34.141  18.515 -12.032  1.00  0.00     0.489 C 
ATOM     18 2H12 UNL     1     -35.098  17.915 -10.295  1.00  0.00     0.284 HD
ATOM     19 1H12 UNL     1     -33.899  18.819  -9.997  1.00  0.00     0.284 HD
BRANCH  15  20
HETATM   20  N11 UNL     1     -34.134  15.778 -10.263  1.00  0.00    -0.048 N 
ATOM     21 3H11 UNL     1     -34.360  15.233 -11.095  1.00  0.00     0.276 HD
ATOM     22 2H11 UNL     1     -33.620  15.062  -9.748  1.00  0.00     0.276 HD
ATOM     23 1H11 UNL     1     -34.973  16.075  -9.764  1.00  0.00     0.276 HD
ENDBRANCH  15  20
BRANCH  17  24
HETATM   24  N13 UNL     1     -34.309  19.950 -12.147  1.00  0.00    -0.032 N 
ATOM     25 3H13 UNL     1     -33.432  20.402 -12.409  1.00  0.00     0.279 HD
ATOM     26 2H13 UNL     1     -34.868  20.190 -12.966  1.00  0.00     0.279 HD
ATOM     27 1H13 UNL     1     -34.698  20.367 -11.302  1.00  0.00     0.279 HD
ENDBRANCH  17  24
ENDBRANCH   9  13
BRANCH   6  28
HETATM   28  N8  UNL     1     -30.408  19.697 -16.284  1.00  0.00    -0.233 N 
ATOM     29  H82 UNL     1     -29.451  19.704 -16.637  1.00  0.00     0.174 HD
ATOM     30  H81 UNL     1     -31.046  19.894 -17.054  1.00  0.00     0.174 HD
ENDBRANCH   6  28
BRANCH   4  31
HETATM   31  N3  UNL     1     -28.542  21.249 -14.944  1.00  0.00    -0.223 N 
ATOM     32  H3  UNL     1     -28.057  20.526 -15.476  1.00  0.00     0.177 HD
BRANCH  31  33
HETATM   33  C3  UNL     1     -28.470  22.572 -15.468  1.00  0.00     0.159 C 
BRANCH  33  34
HETATM   34  C4  UNL     1     -27.333  22.708 -16.475  1.00  0.00     0.159 C 
BRANCH  34  35
HETATM   35  N4  UNL     1     -27.491  21.758 -17.557  1.00  0.00    -0.334 N 
ATOM     36  H4  UNL     1     -28.245  21.897 -18.230  1.00  0.00     0.180 HD
BRANCH  35  37
HETATM   37  N5  UNL     1     -26.657  20.672 -17.706  1.00  0.00    -0.303 N 
HETATM   38  C5  UNL     1     -27.033  19.526 -18.104  1.00  0.00     0.206 C 
HETATM   39  N6  UNL     1     -28.369  19.202 -18.451  1.00  0.00    -0.095 NA
ATOM     40  H5  UNL     1     -25.671  20.797 -17.481  1.00  0.00     0.186 HD
ENDBRANCH  35  37
ENDBRANCH  34  35
ENDBRANCH  33  34
ENDBRANCH  31  33
ENDBRANCH   4  31
BRANCH   1  41
HETATM   41  N1  UNL     1     -28.986  21.238 -10.430  1.00  0.00    -0.234 N 
ATOM     42  H12 UNL     1     -29.400  22.046  -9.963  1.00  0.00     0.174 HD
ATOM     43  H11 UNL     1     -28.224  20.721  -9.991  1.00  0.00     0.174 HD
ENDBRANCH   1  41
TORSDOF 10
ENDMDL
MODEL 2
REMARK VINA RESULT: -6.970652629      1.203      1.312
REMARK  10 active torsions:
REMARK  status: ('A' for Active; 'I' for Inactive)
REMARK    1  A    between atoms: N1_1  and  C1_4 
REMARK    2  A    between atoms: C2_7  and  N3_8 
REMARK    3  A    between atoms: N3_8  and  C3_10 
REMARK    4  A    between atoms: C3_10  and  C4_11 
REMARK    5  A    between atoms: C4_11  and  N4_12 
REMARK    6  A    between atoms: N4_12  and  N5_14 
REMARK    7  A    between atoms: C6_19  and  N8_20 
REMARK    8  A    between atoms: C7_25  and  N10_26 
REMARK    9  A    between atoms: C9_28  and  N11_29 
REMARK   10  A    between atoms: C10_36  and  N13_37 
ROOT
HETATM    1  C1  UNL     1     -29.478  20.743 -11.754  1.00  0.00     0.692 A 
HETATM    2  N2  UNL     1     -28.809  21.109 -12.884  1.00  0.00    -0.022 N 
ATOM      3  H2  UNL     1     -27.998  21.727 -12.834  1.00  0.00     0.203 HD
HETATM    4  C2  UNL     1     -29.242  20.637 -14.070  1.00  0.00     0.715 A 
HETATM    5  N7  UNL     1     -30.323  19.815 -14.122  1.00  0.00     0.042 N 
HETATM    6  C6  UNL     1     -30.938  19.227 -15.161  1.00  0.00     0.700 A 
HETATM    7  N9  UNL     1     -31.972  18.503 -14.703  1.00  0.00    -0.172 N 
ATOM      8  H9  UNL     1     -32.606  17.955 -15.284  1.00  0.00     0.186 HD
HETATM    9  C7  UNL     1     -32.048  18.610 -13.343  1.00  0.00     0.169 A 
HETATM   10  C11 UNL     1     -30.996  19.442 -13.016  1.00  0.00     0.206 A 
HETATM   11  N14 UNL     1     -30.545  19.929 -11.825  1.00  0.00    -0.171 N 
ATOM     12  H14 UNL     1     -31.029  19.669 -10.966  1.00  0.00     0.186 HD
ENDROOT
BRANCH   9  13
HETATM   13  N10 UNL     1     -32.995  18.005 -12.483  1.00  0.00    -0.310 N 
HETATM   14  C8  UNL     1     -32.850  16.702 -11.880  1.00  0.00     0.191 C 
HETATM   15  C9  UNL     1     -33.443  16.941 -10.517  1.00  0.00     0.402 C 
HETATM   16  N12 UNL     1     -34.259  18.131 -10.621  1.00  0.00     0.002 N 
HETATM   17  C10 UNL     1     -34.258  18.511 -12.015  1.00  0.00     0.489 C 
ATOM     18 2H12 UNL     1     -35.197  18.012 -10.236  1.00  0.00     0.284 HD
ATOM     19 1H12 UNL     1     -33.960  18.882  -9.999  1.00  0.00     0.284 HD
BRANCH  15  20
HETATM   20  N11 UNL     1     -34.310  15.843 -10.143  1.00  0.00    -0.048 N 
ATOM     21 3H11 UNL     1     -35.014  15.656 -10.856  1.00  0.00     0.276 HD
ATOM     22 2H11 UNL     1     -33.822  14.947 -10.172  1.00  0.00     0.276 HD
ATOM     23 1H11 UNL     1     -34.730  16.016  -9.230  1.00  0.00     0.276 HD
ENDBRANCH  15  20
BRANCH  17  24
HETATM   24  N13 UNL     1     -34.376  19.946 -12.181  1.00  0.00    -0.032 N 
ATOM     25 3H13 UNL     1     -34.461  20.414 -11.279  1.00  0.00     0.279 HD
ATOM     26 2H13 UNL     1     -33.496  20.353 -12.495  1.00  0.00     0.279 HD
ATOM     27 1H13 UNL     1     -35.142  20.205 -12.803  1.00  0.00     0.279 HD
ENDBRANCH  17  24
ENDBRANCH   9  13
BRANCH   6  28
HETATM   28  N8  UNL     1     -30.557  19.364 -16.382  1.00  0.00    -0.233 N 
ATOM     29  H82 UNL     1     -29.787  19.933 -16.733  1.00  0.00     0.174 HD
ATOM     30  H81 UNL     1     -31.008  18.897 -17.169  1.00  0.00     0.174 HD
ENDBRANCH   6  28
BRANCH   4  31
HETATM   31  N3  UNL     1     -28.648  20.950 -15.148  1.00  0.00    -0.223 N 
ATOM     32  H3  UNL     1     -28.267  20.176 -15.693  1.00  0.00     0.177 HD
BRANCH  31  33
HETATM   33  C3  UNL     1     -28.451  22.256 -15.684  1.00  0.00     0.159 C 
BRANCH  33  34
HETATM   34  C4  UNL     1     -27.708  22.201 -17.015  1.00  0.00     0.159 C 
BRANCH  34  35
HETATM   35  N4  UNL     1     -28.550  21.637 -18.049  1.00  0.00    -0.334 N 
ATOM     36  H4  UNL     1     -28.405  20.667 -18.330  1.00  0.00     0.180 HD
BRANCH  35  37
HETATM   37  N5  UNL     1     -29.542  22.367 -18.665  1.00  0.00    -0.303 N 
HETATM   38  C5  UNL     1     -30.571  21.863 -19.213  1.00  0.00     0.206 C 
HETATM   39  N6  UNL     1     -30.844  20.474 -19.268  1.00  0.00    -0.095 NA
ATOM     40  H5  UNL     1     -29.443  23.382 -18.682  1.00  0.00     0.186 HD
ENDBRANCH  35  37
ENDBRANCH  34  35
ENDBRANCH  33  34
ENDBRANCH  31  33
ENDBRANCH   4  31
BRANCH   1  41
HETATM   41  N1  UNL     1     -29.050  21.203 -10.637  1.00  0.00    -0.234 N 
ATOM     42  H12 UNL     1     -29.191  22.175 -10.364  1.00  0.00     0.174 HD
ATOM     43  H11 UNL     1     -28.556  20.558 -10.019  1.00  0.00     0.174 HD
ENDBRANCH   1  41
TORSDOF 10
ENDMDL
MODEL 3
REMARK VINA RESULT: -6.781592596      0.872      2.483
REMARK  10 active torsions:
REMARK  status: ('A' for Active; 'I' for Inactive)
REMARK    1  A    between atoms: N1_1  and  C1_4 
REMARK    2  A    between atoms: C2_7  and  N3_8 
REMARK    3  A    between atoms: N3_8  and  C3_10 
REMARK    4  A    between atoms: C3_10  and  C4_11 
REMARK    5  A    between atoms: C4_11  and  N4_12 
REMARK    6  A    between atoms: N4_12  and  N5_14 
REMARK    7  A    between atoms: C6_19  and  N8_20 
REMARK    8  A    between atoms: C7_25  and  N10_26 
REMARK    9  A    between atoms: C9_28  and  N11_29 
REMARK   10  A    between atoms: C10_36  and  N13_37 
ROOT
HETATM    1  C1  UNL     1     -30.420  19.199 -15.984  1.00  0.00     0.692 A 
HETATM    2  N2  UNL     1     -29.569  20.263 -15.970  1.00  0.00    -0.022 N 
ATOM      3  H2  UNL     1     -29.015  20.500 -16.793  1.00  0.00     0.203 HD
HETATM    4  C2  UNL     1     -29.476  20.998 -14.843  1.00  0.00     0.715 A 
HETATM    5  N7  UNL     1     -30.220  20.672 -13.754  1.00  0.00     0.042 N 
HETATM    6  C6  UNL     1     -30.302  21.235 -12.538  1.00  0.00     0.700 A 
HETATM    7  N9  UNL     1     -31.184  20.546 -11.797  1.00  0.00    -0.172 N 
ATOM      8  H9  UNL     1     -31.435  20.763 -10.832  1.00  0.00     0.186 HD
HETATM    9  C7  UNL     1     -31.696  19.511 -12.527  1.00  0.00     0.169 A 
HETATM   10  C11 UNL     1     -31.066  19.624 -13.750  1.00  0.00     0.206 A 
HETATM   11  N14 UNL     1     -31.148  18.891 -14.897  1.00  0.00    -0.171 N 
ATOM     12  H14 UNL     1     -31.778  18.090 -14.932  1.00  0.00     0.186 HD
ENDROOT
BRANCH   9  13
HETATM   13  N10 UNL     1     -32.649  18.551 -12.110  1.00  0.00    -0.310 N 
HETATM   14  C8  UNL     1     -32.336  17.214 -11.666  1.00  0.00     0.191 C 
HETATM   15  C9  UNL     1     -33.333  17.032 -10.554  1.00  0.00     0.402 C 
HETATM   16  N12 UNL     1     -34.376  18.013 -10.766  1.00  0.00     0.002 N 
HETATM   17  C10 UNL     1     -34.080  18.663 -12.022  1.00  0.00     0.489 C 
ATOM     18 2H12 UNL     1     -35.315  17.617 -10.728  1.00  0.00     0.284 HD
ATOM     19 1H12 UNL     1     -34.481  18.665  -9.989  1.00  0.00     0.284 HD
BRANCH  15  20
HETATM   20  N11 UNL     1     -33.940  15.720 -10.628  1.00  0.00    -0.048 N 
ATOM     21 3H11 UNL     1     -34.714  15.697 -11.293  1.00  0.00     0.276 HD
ATOM     22 2H11 UNL     1     -33.328  15.044 -11.085  1.00  0.00     0.276 HD
ATOM     23 1H11 UNL     1     -34.227  15.407  -9.700  1.00  0.00     0.276 HD
ENDBRANCH  15  20
BRANCH  17  24
HETATM   24  N13 UNL     1     -34.530  20.042 -12.032  1.00  0.00    -0.032 N 
ATOM     25 3H13 UNL     1     -34.413  20.473 -11.114  1.00  0.00     0.279 HD
ATOM     26 2H13 UNL     1     -33.896  20.630 -12.571  1.00  0.00     0.279 HD
ATOM     27 1H13 UNL     1     -35.490  20.137 -12.362  1.00  0.00     0.279 HD
ENDBRANCH  17  24
ENDBRANCH   9  13
BRANCH   6  28
HETATM   28  N8  UNL     1     -29.624  22.271 -12.187  1.00  0.00    -0.233 N 
ATOM     29  H82 UNL     1     -28.609  22.375 -12.176  1.00  0.00     0.174 HD
ATOM     30  H81 UNL     1     -30.049  23.141 -11.866  1.00  0.00     0.174 HD
ENDBRANCH   6  28
BRANCH   4  31
HETATM   31  N3  UNL     1     -28.698  22.000 -14.786  1.00  0.00    -0.223 N 
ATOM     32  H3  UNL     1     -28.124  22.078 -13.945  1.00  0.00     0.177 HD
BRANCH  31  33
HETATM   33  C3  UNL     1     -28.532  23.029 -15.759  1.00  0.00     0.159 C 
BRANCH  33  34
HETATM   34  C4  UNL     1     -27.115  23.034 -16.323  1.00  0.00     0.159 C 
BRANCH  34  35
HETATM   35  N4  UNL     1     -27.024  22.176 -17.487  1.00  0.00    -0.334 N 
ATOM     36  H4  UNL     1     -27.436  22.490 -18.365  1.00  0.00     0.180 HD
BRANCH  35  37
HETATM   37  N5  UNL     1     -26.401  20.949 -17.444  1.00  0.00    -0.303 N 
HETATM   38  C5  UNL     1     -26.880  19.881 -17.938  1.00  0.00     0.206 C 
HETATM   39  N6  UNL     1     -28.130  19.802 -18.602  1.00  0.00    -0.095 NA
ATOM     40  H5  UNL     1     -25.492  20.894 -16.986  1.00  0.00     0.186 HD
ENDBRANCH  35  37
ENDBRANCH  34  35
ENDBRANCH  33  34
ENDBRANCH  31  33
ENDBRANCH   4  31
BRANCH   1  41
HETATM   41  N1  UNL     1     -30.493  18.513 -17.065  1.00  0.00    -0.234 N 
ATOM     42  H12 UNL     1     -29.665  18.272 -17.608  1.00  0.00     0.174 HD
ATOM     43  H11 UNL     1     -31.419  18.212 -17.370  1.00  0.00     0.174 HD
ENDBRANCH   1  41
TORSDOF 10
ENDMDL
MODEL 4
REMARK VINA RESULT: -6.725580220      1.225      7.495
REMARK  10 active torsions:
REMARK  status: ('A' for Active; 'I' for Inactive)
REMARK    1  A    between atoms: N1_1  and  C1_4 
REMARK    2  A    between atoms: C2_7  and  N3_8 
REMARK    3  A    between atoms: N3_8  and  C3_10 
REMARK    4  A    between atoms: C3_10  and  C4_11 
REMARK    5  A    between atoms: C4_11  and  N4_12 
REMARK    6  A    between atoms: N4_12  and  N5_14 
REMARK    7  A    between atoms: C6_19  and  N8_20 
REMARK    8  A    between atoms: C7_25  and  N10_26 
REMARK    9  A    between atoms: C9_28  and  N11_29 
REMARK   10  A    between atoms: C10_36  and  N13_37 
ROOT
HETATM    1  C1  UNL     1     -29.259  20.897 -11.879  1.00  0.00     0.692 A 
HETATM    2  N2  UNL     1     -30.312  20.159 -11.428  1.00  0.00    -0.022 N 
ATOM      3  H2  UNL     1     -30.497  20.069 -10.428  1.00  0.00     0.203 HD
HETATM    4  C2  UNL     1     -31.105  19.548 -12.332  1.00  0.00     0.715 A 
HETATM    5  N7  UNL     1     -30.848  19.676 -13.660  1.00  0.00     0.042 N 
HETATM    6  C6  UNL     1     -31.477  19.175 -14.735  1.00  0.00     0.700 A 
HETATM    7  N9  UNL     1     -30.840  19.585 -15.843  1.00  0.00    -0.172 N 
ATOM      8  H9  UNL     1     -31.112  19.346 -16.797  1.00  0.00     0.186 HD
HETATM    9  C7  UNL     1     -29.774  20.369 -15.503  1.00  0.00     0.169 A 
HETATM   10  C11 UNL     1     -29.812  20.402 -14.124  1.00  0.00     0.206 A 
HETATM   11  N14 UNL     1     -29.020  21.012 -13.197  1.00  0.00    -0.171 N 
ATOM     12  H14 UNL     1     -28.226  21.570 -13.511  1.00  0.00     0.186 HD
ENDROOT
BRANCH   9  13
HETATM   13  N10 UNL     1     -28.850  20.992 -16.376  1.00  0.00    -0.310 N 
HETATM   14  C8  UNL     1     -28.722  22.417 -16.564  1.00  0.00     0.191 C 
HETATM   15  C9  UNL     1     -27.231  22.563 -16.702  1.00  0.00     0.402 C 
HETATM   16  N12 UNL     1     -26.715  21.256 -17.047  1.00  0.00     0.002 N 
HETATM   17  C10 UNL     1     -27.861  20.397 -17.235  1.00  0.00     0.489 C 
ATOM     18 2H12 UNL     1     -26.085  21.270 -17.849  1.00  0.00     0.284 HD
ATOM     19 1H12 UNL     1     -26.047  20.894 -16.366  1.00  0.00     0.284 HD
BRANCH  15  20
HETATM   20  N11 UNL     1     -26.909  23.465 -17.787  1.00  0.00    -0.048 N 
ATOM     21 3H11 UNL     1     -27.745  23.885 -18.192  1.00  0.00     0.276 HD
ATOM     22 2H11 UNL     1     -26.458  24.317 -17.452  1.00  0.00     0.276 HD
ATOM     23 1H11 UNL     1     -26.344  22.989 -18.491  1.00  0.00     0.276 HD
ENDBRANCH  15  20
BRANCH  17  24
HETATM   24  N13 UNL     1     -27.568  19.024 -16.875  1.00  0.00    -0.032 N 
ATOM     25 3H13 UNL     1     -28.091  18.742 -16.045  1.00  0.00     0.279 HD
ATOM     26 2H13 UNL     1     -27.970  18.374 -17.550  1.00  0.00     0.279 HD
ATOM     27 1H13 UNL     1     -26.570  18.856 -16.754  1.00  0.00     0.279 HD
ENDBRANCH  17  24
ENDBRANCH   9  13
BRANCH   6  28
HETATM   28  N8  UNL     1     -32.521  18.426 -14.662  1.00  0.00    -0.233 N 
ATOM     29  H82 UNL     1     -33.398  18.628 -14.182  1.00  0.00     0.174 HD
ATOM     30  H81 UNL     1     -32.586  17.505 -15.096  1.00  0.00     0.174 HD
ENDBRANCH   6  28
BRANCH   4  31
HETATM   31  N3  UNL     1     -32.099  18.852 -11.956  1.00  0.00    -0.223 N 
ATOM     32  H3  UNL     1     -33.021  19.220 -12.191  1.00  0.00     0.177 HD
BRANCH  31  33
HETATM   33  C3  UNL     1     -32.076  17.618 -11.244  1.00  0.00     0.159 C 
BRANCH  33  34
HETATM   34  C4  UNL     1     -33.261  16.737 -11.626  1.00  0.00     0.159 C 
BRANCH  34  35
HETATM   35  N4  UNL     1     -34.506  17.337 -11.195  1.00  0.00    -0.334 N 
ATOM     36  H4  UNL     1     -35.035  17.906 -11.856  1.00  0.00     0.180 HD
BRANCH  35  37
HETATM   37  N5  UNL     1     -34.999  17.165  -9.921  1.00  0.00    -0.303 N 
HETATM   38  C5  UNL     1     -35.665  16.152  -9.538  1.00  0.00     0.206 C 
HETATM   39  N6  UNL     1     -35.994  15.055 -10.372  1.00  0.00    -0.095 NA
ATOM     40  H5  UNL     1     -34.818  17.899  -9.238  1.00  0.00     0.186 HD
ENDBRANCH  35  37
ENDBRANCH  34  35
ENDBRANCH  33  34
ENDBRANCH  31  33
ENDBRANCH   4  31
BRANCH   1  41
HETATM   41  N1  UNL     1     -28.518  21.469 -11.004  1.00  0.00    -0.234 N 
ATOM     42  H12 UNL     1     -28.517  21.180 -10.026  1.00  0.00     0.174 HD
ATOM     43  H11 UNL     1     -27.920  22.233 -11.319  1.00  0.00     0.174 HD
ENDBRANCH   1  41
TORSDOF 10
ENDMDL
MODEL 5
REMARK VINA RESULT: -6.681452775      1.671      2.998
REMARK  10 active torsions:
REMARK  status: ('A' for Active; 'I' for Inactive)
REMARK    1  A    between atoms: N1_1  and  C1_4 
REMARK    2  A    between atoms: C2_7  and  N3_8 
REMARK    3  A    between atoms: N3_8  and  C3_10 
REMARK    4  A    between atoms: C3_10  and  C4_11 
REMARK    5  A    between atoms: C4_11  and  N4_12 
REMARK    6  A    between atoms: N4_12  and  N5_14 
REMARK    7  A    between atoms: C6_19  and  N8_20 
REMARK    8  A    between atoms: C7_25  and  N10_26 
REMARK    9  A    between atoms: C9_28  and  N11_29 
REMARK   10  A    between atoms: C10_36  and  N13_37 
ROOT
HETATM    1  C1  UNL     1     -30.372  19.175 -16.388  1.00  0.00     0.692 A 
HETATM    2  N2  UNL     1     -29.538  20.252 -16.435  1.00  0.00    -0.022 N 
ATOM      3  H2  UNL     1     -28.985  20.448 -17.270  1.00  0.00     0.203 HD
HETATM    4  C2  UNL     1     -29.461  21.055 -15.354  1.00  0.00     0.715 A 
HETATM    5  N7  UNL     1     -30.205  20.782 -14.250  1.00  0.00     0.042 N 
HETATM    6  C6  UNL     1     -30.300  21.416 -13.070  1.00  0.00     0.700 A 
HETATM    7  N9  UNL     1     -31.173  20.758 -12.291  1.00  0.00    -0.172 N 
ATOM      8  H9  UNL     1     -31.431  21.029 -11.341  1.00  0.00     0.186 HD
HETATM    9  C7  UNL     1     -31.666  19.673 -12.959  1.00  0.00     0.169 A 
HETATM   10  C11 UNL     1     -31.033  19.722 -14.185  1.00  0.00     0.206 A 
HETATM   11  N14 UNL     1     -31.099  18.921 -15.286  1.00  0.00    -0.171 N 
ATOM     12  H14 UNL     1     -31.715  18.108 -15.274  1.00  0.00     0.186 HD
ENDROOT
BRANCH   9  13
HETATM   13  N10 UNL     1     -32.604  18.724 -12.488  1.00  0.00    -0.310 N 
HETATM   14  C8  UNL     1     -32.288  17.368 -12.105  1.00  0.00     0.191 C 
HETATM   15  C9  UNL     1     -33.194  17.180 -10.918  1.00  0.00     0.402 C 
HETATM   16  N12 UNL     1     -34.226  18.189 -11.018  1.00  0.00     0.002 N 
HETATM   17  C10 UNL     1     -34.020  18.867 -12.277  1.00  0.00     0.489 C 
ATOM     18 2H12 UNL     1     -35.169  17.814 -10.911  1.00  0.00     0.284 HD
ATOM     19 1H12 UNL     1     -34.249  18.823 -10.218  1.00  0.00     0.284 HD
BRANCH  15  20
HETATM   20  N11 UNL     1     -33.838  15.884 -10.974  1.00  0.00    -0.048 N 
ATOM     21 3H11 UNL     1     -34.819  15.959 -11.241  1.00  0.00     0.276 HD
ATOM     22 2H11 UNL     1     -33.508  15.330 -11.765  1.00  0.00     0.276 HD
ATOM     23 1H11 UNL     1     -33.722  15.390 -10.089  1.00  0.00     0.276 HD
ENDBRANCH  15  20
BRANCH  17  24
HETATM   24  N13 UNL     1     -34.434  20.255 -12.215  1.00  0.00    -0.032 N 
ATOM     25 3H13 UNL     1     -34.142  20.686 -11.337  1.00  0.00     0.279 HD
ATOM     26 2H13 UNL     1     -33.897  20.827 -12.865  1.00  0.00     0.279 HD
ATOM     27 1H13 UNL     1     -35.436  20.370 -12.365  1.00  0.00     0.279 HD
ENDBRANCH  17  24
ENDBRANCH   9  13
BRANCH   6  28
HETATM   28  N8  UNL     1     -29.640  22.483 -12.781  1.00  0.00    -0.233 N 
ATOM     29  H82 UNL     1     -29.538  23.324 -13.348  1.00  0.00     0.174 HD
ATOM     30  H81 UNL     1     -29.121  22.605 -11.911  1.00  0.00     0.174 HD
ENDBRANCH   6  28
BRANCH   4  31
HETATM   31  N3  UNL     1     -28.700  22.071 -15.356  1.00  0.00    -0.223 N 
ATOM     32  H3  UNL     1     -28.731  22.658 -14.521  1.00  0.00     0.177 HD
BRANCH  31  33
HETATM   33  C3  UNL     1     -27.808  22.489 -16.386  1.00  0.00     0.159 C 
BRANCH  33  34
HETATM   34  C4  UNL     1     -28.458  23.531 -17.291  1.00  0.00     0.159 C 
BRANCH  34  35
HETATM   35  N4  UNL     1     -28.867  22.936 -18.547  1.00  0.00    -0.334 N 
ATOM     36  H4  UNL     1     -28.210  22.336 -19.045  1.00  0.00     0.180 HD
BRANCH  35  37
HETATM   37  N5  UNL     1     -30.113  23.155 -19.088  1.00  0.00    -0.303 N 
HETATM   38  C5  UNL     1     -30.869  22.242 -19.546  1.00  0.00     0.206 C 
HETATM   39  N6  UNL     1     -30.533  20.865 -19.563  1.00  0.00    -0.095 NA
ATOM     40  H5  UNL     1     -30.454  24.115 -19.125  1.00  0.00     0.186 HD
ENDBRANCH  35  37
ENDBRANCH  34  35
ENDBRANCH  33  34
ENDBRANCH  31  33
ENDBRANCH   4  31
BRANCH   1  41
HETATM   41  N1  UNL     1     -30.430  18.425 -17.425  1.00  0.00    -0.234 N 
ATOM     42  H12 UNL     1     -29.764  18.513 -18.193  1.00  0.00     0.174 HD
ATOM     43  H11 UNL     1     -31.173  17.726 -17.462  1.00  0.00     0.174 HD
ENDBRANCH   1  41
TORSDOF 10
ENDMDL
