MODEL 1
REMARK VINA RESULT: -7.337065680      0.000      0.000
REMARK  11 active torsions:
REMARK  status: ('A' for Active; 'I' for Inactive)
REMARK    1  A    between atoms: C3_6  and  C4_7 
REMARK    2  A    between atoms: C4_7  and  N3_8 
REMARK    3  A    between atoms: C4_7  and  C6_13 
REMARK       I    between atoms: N3_8  and  C5_10 
REMARK    4  A    between atoms: C6_13  and  O2_14 
REMARK    5  A    between atoms: C6_13  and  O3_16 
REMARK    6  A    between atoms: C7_18  and  C8_19 
REMARK    7  A    between atoms: C8_19  and  N5_20 
REMARK    8  A    between atoms: C8_19  and  N6_23 
REMARK    9  A    between atoms: N6_23  and  N7_25 
REMARK   10  A    between atoms: N7_25  and  C9_27 
REMARK   11  A    between atoms: C9_27  and  C10_31 
ROOT
HETATM    1  C8  UNL     1     -29.975  20.095 -11.951  1.00  0.00     0.143 C 
ENDROOT
BRANCH   1   2
HETATM    2  C7  UNL     1     -31.345  20.537 -11.930  1.00  0.00     0.105 A 
HETATM    3  N1  UNL     1     -31.771  21.824 -11.820  1.00  0.00    -0.343 N 
HETATM    4  C1  UNL     1     -31.011  23.027 -11.731  1.00  0.00     0.157 C 
HETATM    5  C2  UNL     1     -33.109  21.794 -11.805  1.00  0.00     0.183 A 
HETATM    6  N2  UNL     1     -33.543  20.556 -11.902  1.00  0.00    -0.352 N 
HETATM    7  C3  UNL     1     -32.461  19.713 -11.985  1.00  0.00     0.069 A 
ATOM      8  H2  UNL     1     -34.522  20.270 -11.914  1.00  0.00     0.166 HD
BRANCH   7   9
HETATM    9  C4  UNL     1     -32.655  18.284 -12.142  1.00  0.00     0.193 C 
BRANCH   9  10
HETATM   10  N3  UNL     1     -33.737  18.076 -13.126  1.00  0.00    -0.330 N 
HETATM   11  C5  UNL     1     -33.596  18.166 -14.509  1.00  0.00     0.329 C 
HETATM   12  N4  UNL     1     -34.681  17.954 -15.367  1.00  0.00    -0.040 NA
HETATM   13  O1  UNL     1     -32.480  18.442 -15.024  1.00  0.00    -0.251 OA
ATOM     14  H3  UNL     1     -34.662  17.848 -12.763  1.00  0.00     0.164 HD
ENDBRANCH   9  10
BRANCH   9  15
HETATM   15  C6  UNL     1     -33.182  17.700 -10.809  1.00  0.00     0.282 C 
BRANCH  15  16
HETATM   16  O2  UNL     1     -33.426  16.341 -10.976  1.00  0.00    -0.369 OA
ATOM     17  H2  UNL     1     -33.910  16.019 -10.224  1.00  0.00     0.212 HD
ENDBRANCH  15  16
BRANCH  15  18
HETATM   18  O3  UNL     1     -34.296  18.349 -10.350  1.00  0.00    -0.369 OA
ATOM     19  H3  UNL     1     -34.762  17.853  -9.686  1.00  0.00     0.212 HD
ENDBRANCH  15  18
ENDBRANCH   9  15
ENDBRANCH   7   9
ENDBRANCH   1   2
BRANCH   1  20
HETATM   20  N5  UNL     1     -29.322  19.638 -11.001  1.00  0.00    -0.383 N 
ATOM     21  H52 UNL     1     -29.203  20.317 -10.249  1.00  0.00     0.157 HD
ATOM     22  H51 UNL     1     -28.919  18.704 -10.923  1.00  0.00     0.157 HD
ENDBRANCH   1  20
BRANCH   1  23
HETATM   23  N6  UNL     1     -29.203  20.146 -13.180  1.00  0.00    -0.282 N 
ATOM     24  H6  UNL     1     -28.199  20.320 -13.131  1.00  0.00     0.188 HD
BRANCH  23  25
HETATM   25  N7  UNL     1     -29.799  19.966 -14.419  1.00  0.00    -0.281 N 
ATOM     26  H7  UNL     1     -30.816  20.021 -14.467  1.00  0.00     0.188 HD
BRANCH  25  27
HETATM   27  C9  UNL     1     -29.097  19.710 -15.623  1.00  0.00     0.160 C 
HETATM   28  N8  UNL     1     -27.810  19.629 -15.629  1.00  0.00    -0.381 N 
ATOM     29  H82 UNL     1     -27.301  19.752 -14.753  1.00  0.00     0.157 HD
ATOM     30  H81 UNL     1     -27.304  19.445 -16.495  1.00  0.00     0.157 HD
BRANCH  27  31
HETATM   31  C10 UNL     1     -29.817  19.536 -16.863  1.00  0.00     0.177 A 
HETATM   32  N9  UNL     1     -30.372  18.388 -17.277  1.00  0.00    -0.267 N 
HETATM   33  N10 UNL     1     -30.957  18.581 -18.464  1.00  0.00    -0.007 NA
ATOM     34  H9  UNL     1     -30.351  17.505 -16.766  1.00  0.00     0.185 HD
HETATM   35  N11 UNL     1     -30.779  19.846 -18.812  1.00  0.00    -0.007 NA
HETATM   36  N12 UNL     1     -30.085  20.428 -17.837  1.00  0.00    -0.267 N 
ATOM     37  H12 UNL     1     -29.798  21.408 -17.828  1.00  0.00     0.185 HD
ENDBRANCH  27  31
ENDBRANCH  25  27
ENDBRANCH  23  25
ENDBRANCH   1  23
TORSDOF 11
ENDMDL
MODEL 2
REMARK VINA RESULT: -7.251242674      3.009      6.299
REMARK  11 active torsions:
REMARK  status: ('A' for Active; 'I' for Inactive)
REMARK    1  A    between atoms: C3_6  and  C4_7 
REMARK    2  A    between atoms: C4_7  and  N3_8 
REMARK    3  A    between atoms: C4_7  and  C6_13 
REMARK       I    between atoms: N3_8  and  C5_10 
REMARK    4  A    between atoms: C6_13  and  O2_14 
REMARK    5  A    between atoms: C6_13  and  O3_16 
REMARK    6  A    between atoms: C7_18  and  C8_19 
REMARK    7  A    between atoms: C8_19  and  N5_20 
REMARK    8  A    between atoms: C8_19  and  N6_23 
REMARK    9  A    between atoms: N6_23  and  N7_25 
REMARK   10  A    between atoms: N7_25  and  C9_27 
REMARK   11  A    between atoms: C9_27  and  C10_31 
ROOT
HETATM    1  C8  UNL     1     -32.273  18.976 -13.500  1.00  0.00     0.143 C 
ENDROOT
BRANCH   1   2
HETATM    2  C7  UNL     1     -32.090  20.396 -13.654  1.00  0.00     0.105 A 
HETATM    3  N1  UNL     1     -32.942  21.366 -13.225  1.00  0.00    -0.343 N 
HETATM    4  C1  UNL     1     -34.171  21.244 -12.513  1.00  0.00     0.157 C 
HETATM    5  C2  UNL     1     -32.419  22.539 -13.597  1.00  0.00     0.183 A 
HETATM    6  N2  UNL     1     -31.283  22.357 -14.234  1.00  0.00    -0.352 N 
HETATM    7  C3  UNL     1     -31.024  21.009 -14.299  1.00  0.00     0.069 A 
ATOM      8  H2  UNL     1     -30.691  23.095 -14.617  1.00  0.00     0.166 HD
BRANCH   7   9
HETATM    9  C4  UNL     1     -29.805  20.525 -14.919  1.00  0.00     0.193 C 
BRANCH   9  10
HETATM   10  N3  UNL     1     -30.146  19.337 -15.727  1.00  0.00    -0.330 N 
HETATM   11  C5  UNL     1     -30.402  19.339 -17.096  1.00  0.00     0.329 C 
HETATM   12  N4  UNL     1     -30.719  18.161 -17.780  1.00  0.00    -0.040 NA
HETATM   13  O1  UNL     1     -30.352  20.411 -17.756  1.00  0.00    -0.251 OA
ATOM     14  H3  UNL     1     -30.198  18.441 -15.242  1.00  0.00     0.164 HD
ENDBRANCH   9  10
BRANCH   9  15
HETATM   15  C6  UNL     1     -28.846  20.021 -13.814  1.00  0.00     0.282 C 
BRANCH  15  16
HETATM   16  O2  UNL     1     -28.395  21.110 -13.076  1.00  0.00    -0.369 OA
ATOM     17  H2  UNL     1     -28.015  20.796 -12.263  1.00  0.00     0.212 HD
ENDBRANCH  15  16
BRANCH  15  18
HETATM   18  O3  UNL     1     -27.798  19.295 -14.313  1.00  0.00    -0.369 OA
ATOM     19  H3  UNL     1     -27.404  19.695 -15.079  1.00  0.00     0.212 HD
ENDBRANCH  15  18
ENDBRANCH   9  15
ENDBRANCH   7   9
ENDBRANCH   1   2
BRANCH   1  20
HETATM   20  N5  UNL     1     -32.714  18.183 -14.345  1.00  0.00    -0.383 N 
ATOM     21  H52 UNL     1     -31.988  17.842 -14.974  1.00  0.00     0.157 HD
ATOM     22  H51 UNL     1     -33.680  17.873 -14.453  1.00  0.00     0.157 HD
ENDBRANCH   1  20
BRANCH   1  23
HETATM   23  N6  UNL     1     -31.918  18.319 -12.254  1.00  0.00    -0.282 N 
ATOM     24  H6  UNL     1     -31.175  18.713 -11.677  1.00  0.00     0.188 HD
BRANCH  23  25
HETATM   25  N7  UNL     1     -32.566  17.168 -11.832  1.00  0.00    -0.281 N 
ATOM     26  H7  UNL     1     -32.248  16.278 -12.215  1.00  0.00     0.188 HD
BRANCH  25  27
HETATM   27  C9  UNL     1     -33.638  17.140 -10.905  1.00  0.00     0.160 C 
HETATM   28  N8  UNL     1     -34.309  18.209 -10.644  1.00  0.00    -0.381 N 
ATOM     29  H82 UNL     1     -34.059  19.079 -11.113  1.00  0.00     0.157 HD
ATOM     30  H81 UNL     1     -35.081  18.189  -9.977  1.00  0.00     0.157 HD
BRANCH  27  31
HETATM   31  C10 UNL     1     -33.993  15.907 -10.240  1.00  0.00     0.177 A 
HETATM   32  N9  UNL     1     -34.124  14.717 -10.843  1.00  0.00    -0.267 N 
HETATM   33  N10 UNL     1     -34.460  13.795  -9.934  1.00  0.00    -0.007 NA
ATOM     34  H9  UNL     1     -33.988  14.542 -11.838  1.00  0.00     0.185 HD
HETATM   35  N11 UNL     1     -34.545  14.389  -8.754  1.00  0.00    -0.007 NA
HETATM   36  N12 UNL     1     -34.261  15.676  -8.940  1.00  0.00    -0.267 N 
ATOM     37  H12 UNL     1     -34.247  16.383  -8.205  1.00  0.00     0.185 HD
ENDBRANCH  27  31
ENDBRANCH  25  27
ENDBRANCH  23  25
ENDBRANCH   1  23
TORSDOF 11
ENDMDL
MODEL 3
REMARK VINA RESULT: -7.115879287      2.843      5.762
REMARK  11 active torsions:
REMARK  status: ('A' for Active; 'I' for Inactive)
REMARK    1  A    between atoms: C3_6  and  C4_7 
REMARK    2  A    between atoms: C4_7  and  N3_8 
REMARK    3  A    between atoms: C4_7  and  C6_13 
REMARK       I    between atoms: N3_8  and  C5_10 
REMARK    4  A    between atoms: C6_13  and  O2_14 
REMARK    5  A    between atoms: C6_13  and  O3_16 
REMARK    6  A    between atoms: C7_18  and  C8_19 
REMARK    7  A    between atoms: C8_19  and  N5_20 
REMARK    8  A    between atoms: C8_19  and  N6_23 
REMARK    9  A    between atoms: N6_23  and  N7_25 
REMARK   10  A    between atoms: N7_25  and  C9_27 
REMARK   11  A    between atoms: C9_27  and  C10_31 
ROOT
HETATM    1  C8  UNL     1     -32.274  19.396 -13.601  1.00  0.00     0.143 C 
ENDROOT
BRANCH   1   2
HETATM    2  C7  UNL     1     -31.970  20.787 -13.820  1.00  0.00     0.105 A 
HETATM    3  N1  UNL     1     -32.744  21.844 -13.457  1.00  0.00    -0.343 N 
HETATM    4  C1  UNL     1     -33.991  21.861 -12.765  1.00  0.00     0.157 C 
HETATM    5  C2  UNL     1     -32.117  22.950 -13.874  1.00  0.00     0.183 A 
HETATM    6  N2  UNL     1     -30.990  22.641 -14.478  1.00  0.00    -0.352 N 
HETATM    7  C3  UNL     1     -30.845  21.275 -14.472  1.00  0.00     0.069 A 
ATOM      8  H2  UNL     1     -30.333  23.307 -14.884  1.00  0.00     0.166 HD
BRANCH   7   9
HETATM    9  C4  UNL     1     -29.661  20.660 -15.043  1.00  0.00     0.193 C 
BRANCH   9  10
HETATM   10  N3  UNL     1     -30.087  19.464 -15.796  1.00  0.00    -0.330 N 
HETATM   11  C5  UNL     1     -30.380  19.432 -17.158  1.00  0.00     0.329 C 
HETATM   12  N4  UNL     1     -30.779  18.249 -17.789  1.00  0.00    -0.040 NA
HETATM   13  O1  UNL     1     -30.292  20.475 -17.859  1.00  0.00    -0.251 OA
ATOM     14  H3  UNL     1     -30.174  18.591 -15.278  1.00  0.00     0.164 HD
ENDBRANCH   9  10
BRANCH   9  15
HETATM   15  C6  UNL     1     -28.766  20.136 -13.895  1.00  0.00     0.282 C 
BRANCH  15  16
HETATM   16  O2  UNL     1     -28.218  21.221 -13.217  1.00  0.00    -0.369 OA
ATOM     17  H2  UNL     1     -28.380  21.117 -12.287  1.00  0.00     0.212 HD
ENDBRANCH  15  16
BRANCH  15  18
HETATM   18  O3  UNL     1     -27.789  19.283 -14.332  1.00  0.00    -0.369 OA
ATOM     19  H3  UNL     1     -27.313  18.872 -13.619  1.00  0.00     0.212 HD
ENDBRANCH  15  18
ENDBRANCH   9  15
ENDBRANCH   7   9
ENDBRANCH   1   2
BRANCH   1  20
HETATM   20  N5  UNL     1     -32.909  18.642 -14.352  1.00  0.00    -0.383 N 
ATOM     21  H52 UNL     1     -32.470  18.545 -15.268  1.00  0.00     0.157 HD
ATOM     22  H51 UNL     1     -33.777  18.150 -14.141  1.00  0.00     0.157 HD
ENDBRANCH   1  20
BRANCH   1  23
HETATM   23  N6  UNL     1     -31.817  18.723 -12.397  1.00  0.00    -0.282 N 
ATOM     24  H6  UNL     1     -30.822  18.729 -12.170  1.00  0.00     0.188 HD
BRANCH  23  25
HETATM   25  N7  UNL     1     -32.701  18.073 -11.550  1.00  0.00    -0.281 N 
ATOM     26  H7  UNL     1     -33.082  18.604 -10.767  1.00  0.00     0.188 HD
BRANCH  25  27
HETATM   27  C9  UNL     1     -33.113  16.725 -11.694  1.00  0.00     0.160 C 
HETATM   28  N8  UNL     1     -32.247  15.771 -11.716  1.00  0.00    -0.381 N 
ATOM     29  H82 UNL     1     -31.256  15.999 -11.628  1.00  0.00     0.157 HD
ATOM     30  H81 UNL     1     -32.543  14.800 -11.819  1.00  0.00     0.157 HD
BRANCH  27  31
HETATM   31  C10 UNL     1     -34.516  16.403 -11.818  1.00  0.00     0.177 A 
HETATM   32  N9  UNL     1     -35.052  15.195 -11.588  1.00  0.00    -0.267 N 
HETATM   33  N10 UNL     1     -36.372  15.249 -11.798  1.00  0.00    -0.007 NA
ATOM     34  H9  UNL     1     -34.534  14.366 -11.299  1.00  0.00     0.185 HD
HETATM   35  N11 UNL     1     -36.683  16.484 -12.161  1.00  0.00    -0.007 NA
HETATM   36  N12 UNL     1     -35.553  17.187 -12.173  1.00  0.00    -0.267 N 
ATOM     37  H12 UNL     1     -35.482  18.176 -12.416  1.00  0.00     0.185 HD
ENDBRANCH  27  31
ENDBRANCH  25  27
ENDBRANCH  23  25
ENDBRANCH   1  23
TORSDOF 11
ENDMDL
MODEL 4
REMARK VINA RESULT: -7.081004904      2.406      5.596
REMARK  11 active torsions:
REMARK  status: ('A' for Active; 'I' for Inactive)
REMARK    1  A    between atoms: C3_6  and  C4_7 
REMARK    2  A    between atoms: C4_7  and  N3_8 
REMARK    3  A    between atoms: C4_7  and  C6_13 
REMARK       I    between atoms: N3_8  and  C5_10 
REMARK    4  A    between atoms: C6_13  and  O2_14 
REMARK    5  A    between atoms: C6_13  and  O3_16 
REMARK    6  A    between atoms: C7_18  and  C8_19 
REMARK    7  A    between atoms: C8_19  and  N5_20 
REMARK    8  A    between atoms: C8_19  and  N6_23 
REMARK    9  A    between atoms: N6_23  and  N7_25 
REMARK   10  A    between atoms: N7_25  and  C9_27 
REMARK   11  A    between atoms: C9_27  and  C10_31 
ROOT
HETATM    1  C8  UNL     1     -30.511  19.762 -11.699  1.00  0.00     0.143 C 
ENDROOT
BRANCH   1   2
HETATM    2  C7  UNL     1     -30.997  20.810 -12.559  1.00  0.00     0.105 A 
HETATM    3  N1  UNL     1     -31.705  21.904 -12.169  1.00  0.00    -0.343 N 
HETATM    4  C1  UNL     1     -32.108  22.305 -10.862  1.00  0.00     0.157 C 
HETATM    5  C2  UNL     1     -31.988  22.602 -13.275  1.00  0.00     0.183 A 
HETATM    6  N2  UNL     1     -31.494  22.003 -14.337  1.00  0.00    -0.352 N 
HETATM    7  C3  UNL     1     -30.851  20.856 -13.939  1.00  0.00     0.069 A 
ATOM      8  H2  UNL     1     -31.575  22.337 -15.298  1.00  0.00     0.166 HD
BRANCH   7   9
HETATM    9  C4  UNL     1     -30.176  20.018 -14.912  1.00  0.00     0.193 C 
BRANCH   9  10
HETATM   10  N3  UNL     1     -29.827  20.860 -16.074  1.00  0.00    -0.330 N 
HETATM   11  C5  UNL     1     -28.539  21.261 -16.420  1.00  0.00     0.329 C 
HETATM   12  N4  UNL     1     -28.302  22.063 -17.542  1.00  0.00    -0.040 NA
HETATM   13  O1  UNL     1     -27.548  20.907 -15.727  1.00  0.00    -0.251 OA
ATOM     14  H3  UNL     1     -30.592  21.173 -16.671  1.00  0.00     0.164 HD
ENDBRANCH   9  10
BRANCH   9  15
HETATM   15  C6  UNL     1     -31.174  18.962 -15.443  1.00  0.00     0.282 C 
BRANCH  15  16
HETATM   16  O2  UNL     1     -31.070  18.896 -16.828  1.00  0.00    -0.369 OA
ATOM     17  H2  UNL     1     -31.158  17.991 -17.103  1.00  0.00     0.212 HD
ENDBRANCH  15  16
BRANCH  15  18
HETATM   18  O3  UNL     1     -32.464  19.210 -15.056  1.00  0.00    -0.369 OA
ATOM     19  H3  UNL     1     -32.879  19.889 -15.575  1.00  0.00     0.212 HD
ENDBRANCH  15  18
ENDBRANCH   9  15
ENDBRANCH   7   9
ENDBRANCH   1   2
BRANCH   1  20
HETATM   20  N5  UNL     1     -29.416  19.718 -11.119  1.00  0.00    -0.383 N 
ATOM     21  H52 UNL     1     -29.050  20.646 -10.909  1.00  0.00     0.157 HD
ATOM     22  H51 UNL     1     -28.890  18.884 -10.860  1.00  0.00     0.157 HD
ENDBRANCH   1  20
BRANCH   1  23
HETATM   23  N6  UNL     1     -31.332  18.596 -11.421  1.00  0.00    -0.282 N 
ATOM     24  H6  UNL     1     -31.145  18.043 -10.585  1.00  0.00     0.188 HD
BRANCH  23  25
HETATM   25  N7  UNL     1     -32.364  18.218 -12.266  1.00  0.00    -0.281 N 
ATOM     26  H7  UNL     1     -32.121  17.950 -13.219  1.00  0.00     0.188 HD
BRANCH  25  27
HETATM   27  C9  UNL     1     -33.732  18.177 -11.900  1.00  0.00     0.160 C 
HETATM   28  N8  UNL     1     -34.346  19.249 -11.529  1.00  0.00    -0.381 N 
ATOM     29  H82 UNL     1     -33.833  20.130 -11.501  1.00  0.00     0.157 HD
ATOM     30  H81 UNL     1     -35.331  19.220 -11.266  1.00  0.00     0.157 HD
BRANCH  27  31
HETATM   31  C10 UNL     1     -34.459  16.930 -11.940  1.00  0.00     0.177 A 
HETATM   32  N9  UNL     1     -35.778  16.799 -11.732  1.00  0.00    -0.267 N 
HETATM   33  N10 UNL     1     -36.118  15.511 -11.842  1.00  0.00    -0.007 NA
ATOM     34  H9  UNL     1     -36.420  17.563 -11.524  1.00  0.00     0.185 HD
HETATM   35  N11 UNL     1     -35.025  14.816 -12.118  1.00  0.00    -0.007 NA
HETATM   36  N12 UNL     1     -34.015  15.680 -12.178  1.00  0.00    -0.267 N 
ATOM     37  H12 UNL     1     -33.044  15.432 -12.375  1.00  0.00     0.185 HD
ENDBRANCH  27  31
ENDBRANCH  25  27
ENDBRANCH  23  25
ENDBRANCH   1  23
TORSDOF 11
ENDMDL
MODEL 5
REMARK VINA RESULT: -7.069608033      2.381      5.797
REMARK  11 active torsions:
REMARK  status: ('A' for Active; 'I' for Inactive)
REMARK    1  A    between atoms: C3_6  and  C4_7 
REMARK    2  A    between atoms: C4_7  and  N3_8 
REMARK    3  A    between atoms: C4_7  and  C6_13 
REMARK       I    between atoms: N3_8  and  C5_10 
REMARK    4  A    between atoms: C6_13  and  O2_14 
REMARK    5  A    between atoms: C6_13  and  O3_16 
REMARK    6  A    between atoms: C7_18  and  C8_19 
REMARK    7  A    between atoms: C8_19  and  N5_20 
REMARK    8  A    between atoms: C8_19  and  N6_23 
REMARK    9  A    between atoms: N6_23  and  N7_25 
REMARK   10  A    between atoms: N7_25  and  C9_27 
REMARK   11  A    between atoms: C9_27  and  C10_31 
ROOT
HETATM    1  C8  UNL     1     -32.447  21.265 -12.344  1.00  0.00     0.143 C 
ENDROOT
BRANCH   1   2
HETATM    2  C7  UNL     1     -31.068  20.983 -12.646  1.00  0.00     0.105 A 
HETATM    3  N1  UNL     1     -30.005  21.208 -11.829  1.00  0.00    -0.343 N 
HETATM    4  C1  UNL     1     -29.975  21.730 -10.502  1.00  0.00     0.157 C 
HETATM    5  C2  UNL     1     -28.909  20.841 -12.501  1.00  0.00     0.183 A 
HETATM    6  N2  UNL     1     -29.228  20.395 -13.697  1.00  0.00    -0.352 N 
HETATM    7  C3  UNL     1     -30.593  20.463 -13.843  1.00  0.00     0.069 A 
ATOM      8  H2  UNL     1     -28.572  20.055 -14.400  1.00  0.00     0.166 HD
BRANCH   7   9
HETATM    9  C4  UNL     1     -31.225  19.993 -15.062  1.00  0.00     0.193 C 
BRANCH   9  10
HETATM   10  N3  UNL     1     -31.914  18.723 -14.757  1.00  0.00    -0.330 N 
HETATM   11  C5  UNL     1     -33.290  18.570 -14.603  1.00  0.00     0.329 C 
HETATM   12  N4  UNL     1     -33.856  17.324 -14.313  1.00  0.00    -0.040 NA
HETATM   13  O1  UNL     1     -34.063  19.557 -14.723  1.00  0.00    -0.251 OA
ATOM     14  H3  UNL     1     -31.335  17.890 -14.651  1.00  0.00     0.164 HD
ENDBRANCH   9  10
BRANCH   9  15
HETATM   15  C6  UNL     1     -30.126  19.638 -16.092  1.00  0.00     0.282 C 
BRANCH  15  16
HETATM   16  O2  UNL     1     -30.707  19.513 -17.349  1.00  0.00    -0.369 OA
ATOM     17  H2  UNL     1     -30.845  18.591 -17.536  1.00  0.00     0.212 HD
ENDBRANCH  15  16
BRANCH  15  18
HETATM   18  O3  UNL     1     -29.429  18.509 -15.756  1.00  0.00    -0.369 OA
ATOM     19  H3  UNL     1     -28.649  18.387 -16.284  1.00  0.00     0.212 HD
ENDBRANCH  15  18
ENDBRANCH   9  15
ENDBRANCH   7   9
ENDBRANCH   1   2
BRANCH   1  20
HETATM   20  N5  UNL     1     -33.181  22.093 -12.903  1.00  0.00    -0.383 N 
ATOM     21  H52 UNL     1     -32.693  22.619 -13.627  1.00  0.00     0.157 HD
ATOM     22  H51 UNL     1     -34.165  22.277 -12.705  1.00  0.00     0.157 HD
ENDBRANCH   1  20
BRANCH   1  23
HETATM   23  N6  UNL     1     -33.133  20.540 -11.288  1.00  0.00    -0.282 N 
ATOM     24  H6  UNL     1     -33.051  20.866 -10.325  1.00  0.00     0.188 HD
BRANCH  23  25
HETATM   25  N7  UNL     1     -33.897  19.415 -11.559  1.00  0.00    -0.281 N 
ATOM     26  H7  UNL     1     -34.791  19.553 -12.032  1.00  0.00     0.188 HD
BRANCH  25  27
HETATM   27  C9  UNL     1     -33.527  18.089 -11.227  1.00  0.00     0.160 C 
HETATM   28  N8  UNL     1     -32.292  17.720 -11.271  1.00  0.00    -0.381 N 
ATOM     29  H82 UNL     1     -31.582  18.398 -11.550  1.00  0.00     0.157 HD
ATOM     30  H81 UNL     1     -32.025  16.765 -11.032  1.00  0.00     0.157 HD
BRANCH  27  31
HETATM   31  C10 UNL     1     -34.532  17.130 -10.832  1.00  0.00     0.177 A 
HETATM   32  N9  UNL     1     -35.002  16.142 -11.608  1.00  0.00    -0.267 N 
HETATM   33  N10 UNL     1     -35.921  15.445 -10.930  1.00  0.00    -0.007 NA
ATOM     34  H9  UNL     1     -34.706  15.953 -12.565  1.00  0.00     0.185 HD
HETATM   35  N11 UNL     1     -36.041  15.981  -9.725  1.00  0.00    -0.007 NA
HETATM   36  N12 UNL     1     -35.196  17.007  -9.665  1.00  0.00    -0.267 N 
ATOM     37  H12 UNL     1     -35.068  17.612  -8.853  1.00  0.00     0.185 HD
ENDBRANCH  27  31
ENDBRANCH  25  27
ENDBRANCH  23  25
ENDBRANCH   1  23
TORSDOF 11
ENDMDL
