MODEL 1
REMARK VINA RESULT: -8.177215195      0.000      0.000
REMARK  9 active torsions:
REMARK  status: ('A' for Active; 'I' for Inactive)
REMARK    1  A    between atoms: N1_1  and  C1_4 
REMARK    2  A    between atoms: C2_7  and  C3_8 
REMARK    3  A    between atoms: C3_8  and  O1_9 
REMARK    4  A    between atoms: C3_8  and  C4_11 
REMARK    5  A    between atoms: C4_11  and  C5_12 
REMARK    6  A    between atoms: C5_12  and  O2_13 
REMARK    7  A    between atoms: C5_12  and  N3_15 
REMARK    8  A    between atoms: C7_22  and  C8_23 
REMARK    9  A    between atoms: C10_30  and  N9_31 
ROOT
HETATM    1  C1  UNL     1     -33.734  21.023 -12.941  1.00  0.00     0.676 A 
HETATM    2  N2  UNL     1     -32.435  20.966 -13.258  1.00  0.00    -0.193 N 
ATOM      3  H2  UNL     1     -32.005  21.773 -13.708  1.00  0.00     0.184 HD
HETATM    4  C2  UNL     1     -31.675  19.885 -13.005  1.00  0.00     0.057 A 
HETATM    5  C6  UNL     1     -32.263  18.800 -12.396  1.00  0.00     0.062 A 
HETATM    6  C7  UNL     1     -33.618  18.821 -12.049  1.00  0.00     0.095 A 
HETATM    7  N11 UNL     1     -34.278  19.945 -12.347  1.00  0.00    -0.188 N 
ATOM      8  H11 UNL     1     -35.267  19.989 -12.106  1.00  0.00     0.184 HD
ENDROOT
BRANCH   4   9
HETATM    9  C3  UNL     1     -30.240  19.830 -13.359  1.00  0.00     0.172 C 
BRANCH   9  10
HETATM   10  O1  UNL     1     -29.523  20.170 -12.214  1.00  0.00    -0.389 OA
ATOM     11  H1  UNL     1     -29.815  21.035 -11.949  1.00  0.00     0.210 HD
ENDBRANCH   9  10
BRANCH   9  12
HETATM   12  C4  UNL     1     -29.900  20.778 -14.496  1.00  0.00     0.094 C 
BRANCH  12  13
HETATM   13  C5  UNL     1     -28.837  20.076 -15.336  1.00  0.00     0.261 C 
BRANCH  13  14
HETATM   14  O2  UNL     1     -28.107  19.266 -14.483  1.00  0.00    -0.374 OA
ATOM     15  H2  UNL     1     -28.433  18.379 -14.587  1.00  0.00     0.212 HD
ENDBRANCH  13  14
BRANCH  13  16
HETATM   16  N3  UNL     1     -29.485  19.310 -16.382  1.00  0.00    -0.171 N 
HETATM   17  N4  UNL     1     -30.698  18.786 -16.604  1.00  0.00     0.017 NA
HETATM   18  N5  UNL     1     -30.306  18.307 -17.773  1.00  0.00    -0.209 N 
HETATM   19  N6  UNL     1     -29.117  18.820 -17.556  1.00  0.00    -0.212 N 
ATOM     20  H5  UNL     1     -30.741  17.768 -18.523  1.00  0.00     0.207 HD
ATOM     21  H6  UNL     1     -28.247  18.835 -18.088  1.00  0.00     0.211 HD
ENDBRANCH  13  16
ENDBRANCH  12  13
ENDBRANCH   9  12
ENDBRANCH   4   9
BRANCH   1  22
HETATM   22  N1  UNL     1     -34.457  22.087 -13.197  1.00  0.00    -0.234 N 
ATOM     23  H12 UNL     1     -34.583  22.816 -12.495  1.00  0.00     0.174 HD
ATOM     24  H11 UNL     1     -34.912  22.218 -14.100  1.00  0.00     0.174 HD
ENDBRANCH   1  22
BRANCH   6  25
HETATM   25  C8  UNL     1     -34.225  17.654 -11.402  1.00  0.00     0.152 A 
HETATM   26  N7  UNL     1     -35.075  16.852 -12.092  1.00  0.00    -0.292 N 
HETATM   27  C9  UNL     1     -35.637  15.781 -11.511  1.00  0.00     0.340 A 
ATOM     28  H7  UNL     1     -35.290  17.066 -13.066  1.00  0.00     0.172 HD
HETATM   29  O3  UNL     1     -36.427  15.031 -12.140  1.00  0.00    -0.246 OA
HETATM   30  N8  UNL     1     -35.362  15.481 -10.217  1.00  0.00    -0.141 N 
HETATM   31  C10 UNL     1     -34.526  16.254  -9.508  1.00  0.00     0.681 A 
ATOM     32  H8  UNL     1     -35.791  14.665  -9.782  1.00  0.00     0.189 HD
HETATM   33  N10 UNL     1     -33.982  17.320 -10.128  1.00  0.00    -0.174 N 
ATOM     34  H10 UNL     1     -33.345  17.910  -9.592  1.00  0.00     0.186 HD
BRANCH  31  35
HETATM   35  N9  UNL     1     -34.269  15.961  -8.277  1.00  0.00    -0.234 N 
ATOM     36  H92 UNL     1     -34.501  15.056  -7.868  1.00  0.00     0.174 HD
ATOM     37  H91 UNL     1     -33.818  16.650  -7.675  1.00  0.00     0.174 HD
ENDBRANCH  31  35
ENDBRANCH   6  25
TORSDOF 9
ENDMDL
MODEL 2
REMARK VINA RESULT: -8.153900674      1.851      7.688
REMARK  9 active torsions:
REMARK  status: ('A' for Active; 'I' for Inactive)
REMARK    1  A    between atoms: N1_1  and  C1_4 
REMARK    2  A    between atoms: C2_7  and  C3_8 
REMARK    3  A    between atoms: C3_8  and  O1_9 
REMARK    4  A    between atoms: C3_8  and  C4_11 
REMARK    5  A    between atoms: C4_11  and  C5_12 
REMARK    6  A    between atoms: C5_12  and  O2_13 
REMARK    7  A    between atoms: C5_12  and  N3_15 
REMARK    8  A    between atoms: C7_22  and  C8_23 
REMARK    9  A    between atoms: C10_30  and  N9_31 
ROOT
HETATM    1  C1  UNL     1     -33.846  19.847 -12.101  1.00  0.00     0.676 A 
HETATM    2  N2  UNL     1     -33.909  18.652 -11.503  1.00  0.00    -0.193 N 
ATOM      3  H2  UNL     1     -34.623  18.498 -10.791  1.00  0.00     0.184 HD
HETATM    4  C2  UNL     1     -33.068  17.647 -11.804  1.00  0.00     0.057 A 
HETATM    5  C6  UNL     1     -32.108  17.862 -12.766  1.00  0.00     0.062 A 
HETATM    6  C7  UNL     1     -32.009  19.098 -13.414  1.00  0.00     0.095 A 
HETATM    7  N11 UNL     1     -32.896  20.025 -13.037  1.00  0.00    -0.188 N 
ATOM      8  H11 UNL     1     -32.848  20.936 -13.492  1.00  0.00     0.184 HD
ENDROOT
BRANCH   4   9
HETATM    9  C3  UNL     1     -33.144  16.328 -11.137  1.00  0.00     0.172 C 
BRANCH   9  10
HETATM   10  O1  UNL     1     -32.325  15.460 -11.855  1.00  0.00    -0.389 OA
ATOM     11  H1  UNL     1     -32.837  15.134 -12.586  1.00  0.00     0.210 HD
ENDBRANCH   9  10
BRANCH   9  12
HETATM   12  C4  UNL     1     -34.566  15.796 -11.093  1.00  0.00     0.094 C 
BRANCH  12  13
HETATM   13  C5  UNL     1     -34.985  15.813  -9.625  1.00  0.00     0.261 C 
BRANCH  13  14
HETATM   14  O2  UNL     1     -36.204  16.463  -9.553  1.00  0.00    -0.374 OA
ATOM     15  H2  UNL     1     -36.112  17.169  -8.923  1.00  0.00     0.212 HD
ENDBRANCH  13  14
BRANCH  13  16
HETATM   16  N3  UNL     1     -35.071  14.451  -9.138  1.00  0.00    -0.171 N 
HETATM   17  N4  UNL     1     -34.689  13.236  -9.554  1.00  0.00     0.017 NA
HETATM   18  N5  UNL     1     -35.200  12.675  -8.470  1.00  0.00    -0.209 N 
HETATM   19  N6  UNL     1     -35.573  13.866  -8.061  1.00  0.00    -0.212 N 
ATOM     20  H5  UNL     1     -35.272  11.724  -8.106  1.00  0.00     0.207 HD
ATOM     21  H6  UNL     1     -36.062  14.207  -7.234  1.00  0.00     0.211 HD
ENDBRANCH  13  16
ENDBRANCH  12  13
ENDBRANCH   9  12
ENDBRANCH   4   9
BRANCH   1  22
HETATM   22  N1  UNL     1     -34.676  20.814 -11.792  1.00  0.00    -0.234 N 
ATOM     23  H12 UNL     1     -34.339  21.680 -11.370  1.00  0.00     0.174 HD
ATOM     24  H11 UNL     1     -35.678  20.731 -11.962  1.00  0.00     0.174 HD
ENDBRANCH   1  22
BRANCH   6  25
HETATM   25  C8  UNL     1     -30.979  19.308 -14.435  1.00  0.00     0.152 A 
HETATM   26  N7  UNL     1     -29.892  20.075 -14.166  1.00  0.00    -0.292 N 
HETATM   27  C9  UNL     1     -28.942  20.275 -15.091  1.00  0.00     0.340 A 
ATOM     28  H7  UNL     1     -29.796  20.505 -13.246  1.00  0.00     0.172 HD
HETATM   29  O3  UNL     1     -27.930  20.984 -14.853  1.00  0.00    -0.246 OA
HETATM   30  N8  UNL     1     -29.053  19.708 -16.319  1.00  0.00    -0.141 N 
HETATM   31  C10 UNL     1     -30.115  18.945 -16.617  1.00  0.00     0.681 A 
ATOM     32  H8  UNL     1     -28.326  19.863 -17.018  1.00  0.00     0.189 HD
HETATM   33  N10 UNL     1     -31.047  18.769 -15.660  1.00  0.00    -0.174 N 
ATOM     34  H10 UNL     1     -31.856  18.189 -15.882  1.00  0.00     0.186 HD
BRANCH  31  35
HETATM   35  N9  UNL     1     -30.213  18.410 -17.788  1.00  0.00    -0.234 N 
ATOM     36  H92 UNL     1     -30.575  18.919 -18.595  1.00  0.00     0.174 HD
ATOM     37  H91 UNL     1     -29.924  17.443 -17.930  1.00  0.00     0.174 HD
ENDBRANCH  31  35
ENDBRANCH   6  25
TORSDOF 9
ENDMDL
MODEL 3
REMARK VINA RESULT: -8.146553508      2.129      7.155
REMARK  9 active torsions:
REMARK  status: ('A' for Active; 'I' for Inactive)
REMARK    1  A    between atoms: N1_1  and  C1_4 
REMARK    2  A    between atoms: C2_7  and  C3_8 
REMARK    3  A    between atoms: C3_8  and  O1_9 
REMARK    4  A    between atoms: C3_8  and  C4_11 
REMARK    5  A    between atoms: C4_11  and  C5_12 
REMARK    6  A    between atoms: C5_12  and  O2_13 
REMARK    7  A    between atoms: C5_12  and  N3_15 
REMARK    8  A    between atoms: C7_22  and  C8_23 
REMARK    9  A    between atoms: C10_30  and  N9_31 
ROOT
HETATM    1  C1  UNL     1     -32.273  21.131 -11.750  1.00  0.00     0.676 A 
HETATM    2  N2  UNL     1     -33.054  20.131 -11.328  1.00  0.00    -0.193 N 
ATOM      3  H2  UNL     1     -33.628  20.274 -10.497  1.00  0.00     0.184 HD
HETATM    4  C2  UNL     1     -33.114  18.943 -11.956  1.00  0.00     0.057 A 
HETATM    5  C6  UNL     1     -32.338  18.756 -13.077  1.00  0.00     0.062 A 
HETATM    6  C7  UNL     1     -31.507  19.778 -13.551  1.00  0.00     0.095 A 
HETATM    7  N11 UNL     1     -31.527  20.916 -12.848  1.00  0.00    -0.188 N 
ATOM      8  H11 UNL     1     -30.931  21.679 -13.170  1.00  0.00     0.184 HD
ENDROOT
BRANCH   4   9
HETATM    9  C3  UNL     1     -33.981  17.842 -11.482  1.00  0.00     0.172 C 
BRANCH   9  10
HETATM   10  O1  UNL     1     -34.415  18.185 -10.203  1.00  0.00    -0.389 OA
ATOM     11  H1  UNL     1     -34.765  17.396  -9.806  1.00  0.00     0.210 HD
ENDBRANCH   9  10
BRANCH   9  12
HETATM   12  C4  UNL     1     -33.243  16.514 -11.450  1.00  0.00     0.094 C 
BRANCH  12  13
HETATM   13  C5  UNL     1     -34.314  15.428 -11.520  1.00  0.00     0.261 C 
BRANCH  13  14
HETATM   14  O2  UNL     1     -33.889  14.492 -12.447  1.00  0.00    -0.374 OA
ATOM     15  H2  UNL     1     -33.981  13.635 -12.046  1.00  0.00     0.212 HD
ENDBRANCH  13  14
BRANCH  13  16
HETATM   16  N3  UNL     1     -34.487  14.843 -10.205  1.00  0.00    -0.171 N 
HETATM   17  N4  UNL     1     -34.493  13.613  -9.674  1.00  0.00     0.017 NA
HETATM   18  N5  UNL     1     -34.718  14.107  -8.467  1.00  0.00    -0.209 N 
HETATM   19  N6  UNL     1     -34.712  15.313  -8.987  1.00  0.00    -0.212 N 
ATOM     20  H5  UNL     1     -34.843  13.718  -7.532  1.00  0.00     0.207 HD
ATOM     21  H6  UNL     1     -34.833  16.249  -8.602  1.00  0.00     0.211 HD
ENDBRANCH  13  16
ENDBRANCH  12  13
ENDBRANCH   9  12
ENDBRANCH   4   9
BRANCH   1  22
HETATM   22  N1  UNL     1     -32.230  22.281 -11.121  1.00  0.00    -0.234 N 
ATOM     23  H12 UNL     1     -32.975  22.969 -11.236  1.00  0.00     0.174 HD
ATOM     24  H11 UNL     1     -31.457  22.522 -10.502  1.00  0.00     0.174 HD
ENDBRANCH   1  22
BRANCH   6  25
HETATM   25  C8  UNL     1     -30.688  19.559 -14.746  1.00  0.00     0.152 A 
HETATM   26  N7  UNL     1     -31.195  18.890 -15.813  1.00  0.00    -0.292 N 
HETATM   27  C9  UNL     1     -30.456  18.683 -16.912  1.00  0.00     0.340 A 
ATOM     28  H7  UNL     1     -32.153  18.540 -15.777  1.00  0.00     0.172 HD
HETATM   29  O3  UNL     1     -30.915  18.064 -17.906  1.00  0.00    -0.246 OA
HETATM   30  N8  UNL     1     -29.181  19.144 -16.977  1.00  0.00    -0.141 N 
HETATM   31  C10 UNL     1     -28.650  19.809 -15.940  1.00  0.00     0.681 A 
ATOM     32  H8  UNL     1     -28.626  18.985 -17.817  1.00  0.00     0.189 HD
HETATM   33  N10 UNL     1     -29.426  19.996 -14.854  1.00  0.00    -0.174 N 
ATOM     34  H10 UNL     1     -29.027  20.502 -14.063  1.00  0.00     0.186 HD
BRANCH  31  35
HETATM   35  N9  UNL     1     -27.437  20.244 -16.009  1.00  0.00    -0.234 N 
ATOM     36  H92 UNL     1     -26.685  19.706 -16.439  1.00  0.00     0.174 HD
ATOM     37  H91 UNL     1     -27.203  21.159 -15.624  1.00  0.00     0.174 HD
ENDBRANCH  31  35
ENDBRANCH   6  25
TORSDOF 9
ENDMDL
MODEL 4
REMARK VINA RESULT: -8.105524469      2.565      8.066
REMARK  9 active torsions:
REMARK  status: ('A' for Active; 'I' for Inactive)
REMARK    1  A    between atoms: N1_1  and  C1_4 
REMARK    2  A    between atoms: C2_7  and  C3_8 
REMARK    3  A    between atoms: C3_8  and  O1_9 
REMARK    4  A    between atoms: C3_8  and  C4_11 
REMARK    5  A    between atoms: C4_11  and  C5_12 
REMARK    6  A    between atoms: C5_12  and  O2_13 
REMARK    7  A    between atoms: C5_12  and  N3_15 
REMARK    8  A    between atoms: C7_22  and  C8_23 
REMARK    9  A    between atoms: C10_30  and  N9_31 
ROOT
HETATM    1  C1  UNL     1     -29.533  20.188 -12.475  1.00  0.00     0.676 A 
HETATM    2  N2  UNL     1     -30.785  19.731 -12.595  1.00  0.00    -0.193 N 
ATOM      3  H2  UNL     1     -31.347  19.616 -11.753  1.00  0.00     0.184 HD
HETATM    4  C2  UNL     1     -31.329  19.415 -13.784  1.00  0.00     0.057 A 
HETATM    5  C6  UNL     1     -30.564  19.572 -14.917  1.00  0.00     0.062 A 
HETATM    6  C7  UNL     1     -29.251  20.048 -14.833  1.00  0.00     0.095 A 
HETATM    7  N11 UNL     1     -28.812  20.330 -13.602  1.00  0.00    -0.188 N 
ATOM      8  H11 UNL     1     -27.858  20.679 -13.510  1.00  0.00     0.184 HD
ENDROOT
BRANCH   4   9
HETATM    9  C3  UNL     1     -32.714  18.908 -13.908  1.00  0.00     0.172 C 
BRANCH   9  10
HETATM   10  O1  UNL     1     -33.402  19.797 -14.732  1.00  0.00    -0.389 OA
ATOM     11  H1  UNL     1     -33.750  19.290 -15.458  1.00  0.00     0.210 HD
ENDBRANCH   9  10
BRANCH   9  12
HETATM   12  C4  UNL     1     -33.402  18.801 -12.557  1.00  0.00     0.094 C 
BRANCH  12  13
HETATM   13  C5  UNL     1     -33.527  17.310 -12.257  1.00  0.00     0.261 C 
BRANCH  13  14
HETATM   14  O2  UNL     1     -32.251  16.831 -12.015  1.00  0.00    -0.374 OA
ATOM     15  H2  UNL     1     -32.224  15.932 -12.320  1.00  0.00     0.212 HD
ENDBRANCH  13  14
BRANCH  13  16
HETATM   16  N3  UNL     1     -34.397  17.124 -11.114  1.00  0.00    -0.171 N 
HETATM   17  N4  UNL     1     -34.348  17.364  -9.796  1.00  0.00     0.017 NA
HETATM   18  N5  UNL     1     -35.564  16.868  -9.634  1.00  0.00    -0.209 N 
HETATM   19  N6  UNL     1     -35.613  16.634 -10.925  1.00  0.00    -0.212 N 
ATOM     20  H5  UNL     1     -36.194  16.728  -8.844  1.00  0.00     0.207 HD
ATOM     21  H6  UNL     1     -36.316  16.229 -11.543  1.00  0.00     0.211 HD
ENDBRANCH  13  16
ENDBRANCH  12  13
ENDBRANCH   9  12
ENDBRANCH   4   9
BRANCH   1  22
HETATM   22  N1  UNL     1     -29.022  20.490 -11.305  1.00  0.00    -0.234 N 
ATOM     23  H12 UNL     1     -29.430  20.124 -10.445  1.00  0.00     0.174 HD
ATOM     24  H11 UNL     1     -28.206  21.095 -11.220  1.00  0.00     0.174 HD
ENDBRANCH   1  22
BRANCH   6  25
HETATM   25  C8  UNL     1     -28.452  20.208 -16.051  1.00  0.00     0.152 A 
HETATM   26  N7  UNL     1     -28.283  21.436 -16.605  1.00  0.00    -0.292 N 
HETATM   27  C9  UNL     1     -27.554  21.594 -17.719  1.00  0.00     0.340 A 
ATOM     28  H7  UNL     1     -28.716  22.249 -16.167  1.00  0.00     0.172 HD
HETATM   29  O3  UNL     1     -27.390  22.727 -18.242  1.00  0.00    -0.246 OA
HETATM   30  N8  UNL     1     -26.969  20.524 -18.314  1.00  0.00    -0.141 N 
HETATM   31  C10 UNL     1     -27.117  19.298 -17.792  1.00  0.00     0.681 A 
ATOM     32  H8  UNL     1     -26.415  20.653 -19.160  1.00  0.00     0.189 HD
HETATM   33  N10 UNL     1     -27.857  19.180 -16.671  1.00  0.00    -0.174 N 
ATOM     34  H10 UNL     1     -27.972  18.249 -16.270  1.00  0.00     0.186 HD
BRANCH  31  35
HETATM   35  N9  UNL     1     -26.558  18.284 -18.364  1.00  0.00    -0.234 N 
ATOM     36  H92 UNL     1     -25.554  18.236 -18.536  1.00  0.00     0.174 HD
ATOM     37  H91 UNL     1     -27.127  17.492 -18.662  1.00  0.00     0.174 HD
ENDBRANCH  31  35
ENDBRANCH   6  25
TORSDOF 9
ENDMDL
MODEL 5
REMARK VINA RESULT: -8.010787572      2.122      2.615
REMARK  9 active torsions:
REMARK  status: ('A' for Active; 'I' for Inactive)
REMARK    1  A    between atoms: N1_1  and  C1_4 
REMARK    2  A    between atoms: C2_7  and  C3_8 
REMARK    3  A    between atoms: C3_8  and  O1_9 
REMARK    4  A    between atoms: C3_8  and  C4_11 
REMARK    5  A    between atoms: C4_11  and  C5_12 
REMARK    6  A    between atoms: C5_12  and  O2_13 
REMARK    7  A    between atoms: C5_12  and  N3_15 
REMARK    8  A    between atoms: C7_22  and  C8_23 
REMARK    9  A    between atoms: C10_30  and  N9_31 
ROOT
HETATM    1  C1  UNL     1     -30.375  19.505 -11.721  1.00  0.00     0.676 A 
HETATM    2  N2  UNL     1     -30.401  19.788 -13.029  1.00  0.00    -0.193 N 
ATOM      3  H2  UNL     1     -29.635  20.328 -13.428  1.00  0.00     0.184 HD
HETATM    4  C2  UNL     1     -31.399  19.387 -13.836  1.00  0.00     0.057 A 
HETATM    5  C6  UNL     1     -32.430  18.657 -13.290  1.00  0.00     0.062 A 
HETATM    6  C7  UNL     1     -32.439  18.341 -11.926  1.00  0.00     0.095 A 
HETATM    7  N11 UNL     1     -31.398  18.791 -11.218  1.00  0.00    -0.188 N 
ATOM      8  H11 UNL     1     -31.378  18.576 -10.222  1.00  0.00     0.184 HD
ENDROOT
BRANCH   4   9
HETATM    9  C3  UNL     1     -31.421  19.704 -15.281  1.00  0.00     0.172 C 
BRANCH   9  10
HETATM   10  O1  UNL     1     -31.850  18.556 -15.945  1.00  0.00    -0.389 OA
ATOM     11  H1  UNL     1     -31.239  18.401 -16.656  1.00  0.00     0.210 HD
ENDBRANCH   9  10
BRANCH   9  12
HETATM   12  C4  UNL     1     -30.054  20.128 -15.789  1.00  0.00     0.094 C 
BRANCH  12  13
HETATM   13  C5  UNL     1     -29.854  19.417 -17.125  1.00  0.00     0.261 C 
BRANCH  13  14
HETATM   14  O2  UNL     1     -30.629  20.078 -18.062  1.00  0.00    -0.374 OA
ATOM     15  H2  UNL     1     -30.139  20.841 -18.346  1.00  0.00     0.212 HD
ENDBRANCH  13  14
BRANCH  13  16
HETATM   16  N3  UNL     1     -28.448  19.443 -17.474  1.00  0.00    -0.171 N 
HETATM   17  N4  UNL     1     -27.704  19.200 -18.563  1.00  0.00     0.017 NA
HETATM   18  N5  UNL     1     -26.595  19.489 -17.901  1.00  0.00    -0.209 N 
HETATM   19  N6  UNL     1     -27.323  19.727 -16.835  1.00  0.00    -0.212 N 
ATOM     20  H5  UNL     1     -25.600  19.515 -18.124  1.00  0.00     0.207 HD
ATOM     21  H6  UNL     1     -27.106  20.019 -15.882  1.00  0.00     0.211 HD
ENDBRANCH  13  16
ENDBRANCH  12  13
ENDBRANCH   9  12
ENDBRANCH   4   9
BRANCH   1  22
HETATM   22  N1  UNL     1     -29.392  19.907 -10.952  1.00  0.00    -0.234 N 
ATOM     23  H12 UNL     1     -29.005  19.295 -10.233  1.00  0.00     0.174 HD
ATOM     24  H11 UNL     1     -28.986  20.837 -11.048  1.00  0.00     0.174 HD
ENDBRANCH   1  22
BRANCH   6  25
HETATM   25  C8  UNL     1     -33.547  17.564 -11.363  1.00  0.00     0.152 A 
HETATM   26  N7  UNL     1     -34.692  17.390 -12.071  1.00  0.00    -0.292 N 
HETATM   27  C9  UNL     1     -35.713  16.681 -11.567  1.00  0.00     0.340 A 
ATOM     28  H7  UNL     1     -34.777  17.804 -13.000  1.00  0.00     0.172 HD
HETATM   29  O3  UNL     1     -36.779  16.513 -12.214  1.00  0.00    -0.246 OA
HETATM   30  N8  UNL     1     -35.616  16.122 -10.335  1.00  0.00    -0.141 N 
HETATM   31  C10 UNL     1     -34.498  16.276  -9.610  1.00  0.00     0.681 A 
ATOM     32  H8  UNL     1     -36.396  15.583  -9.959  1.00  0.00     0.189 HD
HETATM   33  N10 UNL     1     -33.496  16.995 -10.152  1.00  0.00    -0.174 N 
ATOM     34  H10 UNL     1     -32.643  17.114  -9.604  1.00  0.00     0.186 HD
BRANCH  31  35
HETATM   35  N9  UNL     1     -34.414  15.741  -8.438  1.00  0.00    -0.234 N 
ATOM     36  H92 UNL     1     -35.115  15.093  -8.079  1.00  0.00     0.174 HD
ATOM     37  H91 UNL     1     -33.623  15.965  -7.834  1.00  0.00     0.174 HD
ENDBRANCH  31  35
ENDBRANCH   6  25
TORSDOF 9
ENDMDL
