MODEL 1
REMARK VINA RESULT: -6.033997101      0.000      0.000
REMARK  2 active torsions:
REMARK  status: ('A' for Active; 'I' for Inactive)
REMARK    1  A    between atoms: N1_1  and  C1_5 
REMARK    2  A    between atoms: C1_5  and  C2_6 
ROOT
HETATM    1  C1  UNL     1      49.060 -28.198 -95.502  1.00  0.00     0.149 C 
HETATM    2  C3  UNL     1      47.641 -28.255 -95.119  1.00  0.00     0.041 C 
HETATM    3  C4  UNL     1      46.724 -27.336 -95.873  1.00  0.00     0.002 C 
HETATM    4  C5  UNL     1      47.097 -25.900 -95.795  1.00  0.00     0.000 C 
HETATM    5  C6  UNL     1      47.850 -25.650 -94.528  1.00  0.00     0.000 C 
HETATM    6  C7  UNL     1      49.318 -25.768 -94.774  1.00  0.00     0.002 C 
HETATM    7  C8  UNL     1      49.886 -27.076 -95.061  1.00  0.00     0.041 C 
ENDROOT
BRANCH   1   8
HETATM    8  N1  UNL     1      49.624 -29.470 -94.993  1.00  0.00    -0.068 N 
ATOM      9  H13 UNL     1      48.948 -30.091 -94.547  1.00  0.00     0.275 HD
ATOM     10  H12 UNL     1      49.906 -30.133 -95.715  1.00  0.00     0.275 HD
ATOM     11  H11 UNL     1      50.379 -29.153 -94.385  1.00  0.00     0.275 HD
ENDBRANCH   1   8
BRANCH   1  12
HETATM   12  C2  UNL     1      49.126 -28.386 -97.026  1.00  0.00     0.260 C 
HETATM   13  F1  UNL     1      50.471 -28.385 -97.408  1.00  0.00    -0.253 F 
ENDBRANCH   1  12
TORSDOF 2
ENDMDL
MODEL 2
REMARK VINA RESULT: -5.775717714      1.615      2.550
REMARK  2 active torsions:
REMARK  status: ('A' for Active; 'I' for Inactive)
REMARK    1  A    between atoms: N1_1  and  C1_5 
REMARK    2  A    between atoms: C1_5  and  C2_6 
ROOT
HETATM    1  C1  UNL     1      49.128 -27.957 -95.984  1.00  0.00     0.149 C 
HETATM    2  C3  UNL     1      49.752 -26.713 -95.508  1.00  0.00     0.041 C 
HETATM    3  C4  UNL     1      49.235 -26.181 -94.203  1.00  0.00     0.002 C 
HETATM    4  C5  UNL     1      47.772 -25.922 -94.183  1.00  0.00     0.000 C 
HETATM    5  C6  UNL     1      47.300 -25.635 -95.572  1.00  0.00     0.000 C 
HETATM    6  C7  UNL     1      46.823 -26.893 -96.219  1.00  0.00     0.002 C 
HETATM    7  C8  UNL     1      47.790 -27.920 -96.573  1.00  0.00     0.041 C 
ENDROOT
BRANCH   1   8
HETATM    8  N1  UNL     1      50.097 -28.497 -96.966  1.00  0.00    -0.068 N 
ATOM      9  H13 UNL     1      50.832 -29.079 -96.567  1.00  0.00     0.275 HD
ATOM     10  H12 UNL     1      49.723 -29.217 -97.585  1.00  0.00     0.275 HD
ATOM     11  H11 UNL     1      50.427 -27.656 -97.440  1.00  0.00     0.275 HD
ENDBRANCH   1   8
BRANCH   1  12
HETATM   12  C2  UNL     1      49.213 -28.974 -94.834  1.00  0.00     0.260 C 
HETATM   13  F1  UNL     1      47.922 -29.442 -94.569  1.00  0.00    -0.253 F 
ENDBRANCH   1  12
TORSDOF 2
ENDMDL
MODEL 3
REMARK VINA RESULT: -5.680205404      1.210      1.210
REMARK  2 active torsions:
REMARK  status: ('A' for Active; 'I' for Inactive)
REMARK    1  A    between atoms: N1_1  and  C1_5 
REMARK    2  A    between atoms: C1_5  and  C2_6 
ROOT
HETATM    1  C1  UNL     1      48.580 -28.418 -95.692  1.00  0.00     0.149 C 
HETATM    2  C3  UNL     1      47.291 -28.003 -95.120  1.00  0.00     0.041 C 
HETATM    3  C4  UNL     1      46.683 -26.763 -95.711  1.00  0.00     0.002 C 
HETATM    4  C5  UNL     1      47.553 -25.561 -95.639  1.00  0.00     0.000 C 
HETATM    5  C6  UNL     1      48.488 -25.692 -94.480  1.00  0.00     0.000 C 
HETATM    6  C7  UNL     1      49.776 -26.299 -94.930  1.00  0.00     0.002 C 
HETATM    7  C8  UNL     1      49.800 -27.696 -95.334  1.00  0.00     0.041 C 
ENDROOT
BRANCH   1   8
HETATM    8  N1  UNL     1      48.706 -29.843 -95.307  1.00  0.00    -0.068 N 
ATOM      9  H13 UNL     1      47.835 -30.285 -95.013  1.00  0.00     0.275 HD
ATOM     10  H12 UNL     1      48.886 -30.481 -96.081  1.00  0.00     0.275 HD
ATOM     11  H11 UNL     1      49.435 -29.819 -94.594  1.00  0.00     0.275 HD
ENDBRANCH   1   8
BRANCH   1  12
HETATM   12  C2  UNL     1      48.395 -28.496 -97.216  1.00  0.00     0.260 C 
HETATM   13  F1  UNL     1      47.442 -29.482 -97.490  1.00  0.00    -0.253 F 
ENDBRANCH   1  12
TORSDOF 2
ENDMDL
MODEL 4
REMARK VINA RESULT: -5.667009889      1.566      2.249
REMARK  2 active torsions:
REMARK  status: ('A' for Active; 'I' for Inactive)
REMARK    1  A    between atoms: N1_1  and  C1_5 
REMARK    2  A    between atoms: C1_5  and  C2_6 
ROOT
HETATM    1  C1  UNL     1      48.248 -28.551 -96.129  1.00  0.00     0.149 C 
HETATM    2  C3  UNL     1      47.389 -29.127 -97.175  1.00  0.00     0.041 C 
HETATM    3  C4  UNL     1      47.335 -28.365 -98.468  1.00  0.00     0.002 C 
HETATM    4  C5  UNL     1      46.895 -26.953 -98.328  1.00  0.00     0.000 C 
HETATM    5  C6  UNL     1      46.027 -26.820 -97.118  1.00  0.00     0.000 C 
HETATM    6  C7  UNL     1      46.853 -26.425 -95.938  1.00  0.00     0.002 C 
HETATM    7  C8  UNL     1      47.792 -27.384 -95.376  1.00  0.00     0.041 C 
ENDROOT
BRANCH   1   8
HETATM    8  N1  UNL     1      48.499 -29.681 -95.204  1.00  0.00    -0.068 N 
ATOM      9  H13 UNL     1      49.452 -29.736 -94.844  1.00  0.00     0.275 HD
ATOM     10  H12 UNL     1      48.052 -29.594 -94.291  1.00  0.00     0.275 HD
ATOM     11  H11 UNL     1      48.202 -30.489 -95.750  1.00  0.00     0.275 HD
ENDBRANCH   1   8
BRANCH   1  12
HETATM   12  C2  UNL     1      49.631 -28.316 -96.757  1.00  0.00     0.260 C 
HETATM   13  F1  UNL     1      50.252 -27.272 -96.065  1.00  0.00    -0.253 F 
ENDBRANCH   1  12
TORSDOF 2
ENDMDL
MODEL 5
REMARK VINA RESULT: -5.550347115      1.846      2.848
REMARK  2 active torsions:
REMARK  status: ('A' for Active; 'I' for Inactive)
REMARK    1  A    between atoms: N1_1  and  C1_5 
REMARK    2  A    between atoms: C1_5  and  C2_6 
ROOT
HETATM    1  C1  UNL     1      48.504 -28.373 -96.105  1.00  0.00     0.149 C 
HETATM    2  C3  UNL     1      48.410 -26.919 -95.905  1.00  0.00     0.041 C 
HETATM    3  C4  UNL     1      47.037 -26.389 -95.605  1.00  0.00     0.002 C 
HETATM    4  C5  UNL     1      46.016 -26.714 -96.635  1.00  0.00     0.000 C 
HETATM    5  C6  UNL     1      46.687 -26.900 -97.958  1.00  0.00     0.000 C 
HETATM    6  C7  UNL     1      47.008 -28.342 -98.170  1.00  0.00     0.002 C 
HETATM    7  C8  UNL     1      48.043 -28.966 -97.360  1.00  0.00     0.041 C 
ENDROOT
BRANCH   1   8
HETATM    8  N1  UNL     1      49.941 -28.674 -95.903  1.00  0.00    -0.068 N 
ATOM      9  H13 UNL     1      50.476 -28.800 -96.762  1.00  0.00     0.275 HD
ATOM     10  H12 UNL     1      50.496 -27.894 -95.552  1.00  0.00     0.275 HD
ATOM     11  H11 UNL     1      49.915 -29.490 -95.292  1.00  0.00     0.275 HD
ENDBRANCH   1   8
BRANCH   1  12
HETATM   12  C2  UNL     1      47.845 -29.041 -94.887  1.00  0.00     0.260 C 
HETATM   13  F1  UNL     1      48.388 -30.322 -94.745  1.00  0.00    -0.253 F 
ENDBRANCH   1  12
TORSDOF 2
ENDMDL
