MODEL 1
REMARK VINA RESULT: -6.123626514      0.000      0.000
REMARK  1 active torsions:
REMARK  status: ('A' for Active; 'I' for Inactive)
REMARK    1  A    between atoms: O1_1  and  C1_3 
ROOT
HETATM    1  C1  UNL     1      47.150 -26.018 -95.981  1.00  0.00     0.118 C 
HETATM    2  C2  UNL     1      46.070 -26.625 -96.850  1.00  0.00     0.032 C 
HETATM    3  C3  UNL     1      46.453 -26.726 -98.290  1.00  0.00     0.002 C 
HETATM    4  C4  UNL     1      46.690 -28.103 -98.786  1.00  0.00     0.000 C 
HETATM    5  C5  UNL     1      47.370 -29.027 -97.852  1.00  0.00     0.000 C 
HETATM    6  C6  UNL     1      48.402 -28.432 -96.975  1.00  0.00     0.000 C 
HETATM    7  C7  UNL     1      47.879 -28.386 -95.562  1.00  0.00     0.002 C 
HETATM    8  C8  UNL     1      47.774 -26.991 -95.040  1.00  0.00     0.032 C 
ENDROOT
BRANCH   1   9
HETATM    9  O1  UNL     1      46.637 -24.964 -95.188  1.00  0.00    -0.396 OA
ATOM     10  H1  UNL     1      47.288 -24.648 -94.572  1.00  0.00     0.210 HD
ENDBRANCH   1   9
TORSDOF 1
ENDMDL
MODEL 2
REMARK VINA RESULT: -6.052670126      1.748      2.923
REMARK  1 active torsions:
REMARK  status: ('A' for Active; 'I' for Inactive)
REMARK    1  A    between atoms: O1_1  and  C1_3 
ROOT
HETATM    1  C1  UNL     1      48.618 -26.124 -94.229  1.00  0.00     0.118 C 
HETATM    2  C2  UNL     1      49.587 -26.662 -95.259  1.00  0.00     0.032 C 
HETATM    3  C3  UNL     1      49.614 -28.153 -95.327  1.00  0.00     0.002 C 
HETATM    4  C4  UNL     1      49.026 -28.742 -96.554  1.00  0.00     0.000 C 
HETATM    5  C5  UNL     1      47.816 -28.077 -97.084  1.00  0.00     0.000 C 
HETATM    6  C6  UNL     1      46.883 -27.517 -96.082  1.00  0.00     0.000 C 
HETATM    7  C7  UNL     1      46.966 -26.012 -96.119  1.00  0.00     0.002 C 
HETATM    8  C8  UNL     1      47.436 -25.437 -94.824  1.00  0.00     0.032 C 
ENDROOT
BRANCH   1   9
HETATM    9  O1  UNL     1      49.245 -25.182 -93.379  1.00  0.00    -0.396 OA
ATOM     10  H1  UNL     1      49.376 -24.352 -93.823  1.00  0.00     0.210 HD
ENDBRANCH   1   9
TORSDOF 1
ENDMDL
MODEL 3
REMARK VINA RESULT: -5.961996103      1.627      2.302
REMARK  1 active torsions:
REMARK  status: ('A' for Active; 'I' for Inactive)
REMARK    1  A    between atoms: O1_1  and  C1_3 
ROOT
HETATM    1  C1  UNL     1      49.250 -26.525 -95.053  1.00  0.00     0.118 C 
HETATM    2  C2  UNL     1      47.754 -26.433 -94.851  1.00  0.00     0.032 C 
HETATM    3  C3  UNL     1      47.046 -25.735 -95.965  1.00  0.00     0.002 C 
HETATM    4  C4  UNL     1      46.201 -26.604 -96.820  1.00  0.00     0.000 C 
HETATM    5  C5  UNL     1      46.736 -27.950 -97.115  1.00  0.00     0.000 C 
HETATM    6  C6  UNL     1      48.203 -28.053 -97.279  1.00  0.00     0.000 C 
HETATM    7  C7  UNL     1      48.782 -28.768 -96.084  1.00  0.00     0.002 C 
HETATM    8  C8  UNL     1      49.732 -27.912 -95.314  1.00  0.00     0.032 C 
ENDROOT
BRANCH   1   9
HETATM    9  O1  UNL     1      49.950 -26.065 -93.912  1.00  0.00    -0.396 OA
ATOM     10  H1  UNL     1      49.353 -25.851 -93.205  1.00  0.00     0.210 HD
ENDBRANCH   1   9
TORSDOF 1
ENDMDL
MODEL 4
REMARK VINA RESULT: -5.945157471      1.604      2.704
REMARK  1 active torsions:
REMARK  status: ('A' for Active; 'I' for Inactive)
REMARK    1  A    between atoms: O1_1  and  C1_3 
ROOT
HETATM    1  C1  UNL     1      48.029 -28.507 -95.669  1.00  0.00     0.118 C 
HETATM    2  C2  UNL     1      48.417 -28.490 -97.132  1.00  0.00     0.032 C 
HETATM    3  C3  UNL     1      47.368 -29.056 -98.031  1.00  0.00     0.002 C 
HETATM    4  C4  UNL     1      46.676 -28.070 -98.895  1.00  0.00     0.000 C 
HETATM    5  C5  UNL     1      46.384 -26.756 -98.283  1.00  0.00     0.000 C 
HETATM    6  C6  UNL     1      46.039 -26.762 -96.845  1.00  0.00     0.000 C 
HETATM    7  C7  UNL     1      47.185 -26.173 -96.061  1.00  0.00     0.002 C 
HETATM    8  C8  UNL     1      47.781 -27.150 -95.103  1.00  0.00     0.032 C 
ENDROOT
BRANCH   1   9
HETATM    9  O1  UNL     1      49.045 -29.093 -94.877  1.00  0.00    -0.396 OA
ATOM     10  H1  UNL     1      49.606 -29.657 -95.398  1.00  0.00     0.210 HD
ENDBRANCH   1   9
TORSDOF 1
ENDMDL
MODEL 5
REMARK VINA RESULT: -5.758502559      1.031      1.131
REMARK  1 active torsions:
REMARK  status: ('A' for Active; 'I' for Inactive)
REMARK    1  A    between atoms: O1_1  and  C1_3 
ROOT
HETATM    1  C1  UNL     1      48.104 -26.354 -95.379  1.00  0.00     0.118 C 
HETATM    2  C2  UNL     1      46.794 -26.948 -95.849  1.00  0.00     0.032 C 
HETATM    3  C3  UNL     1      46.524 -26.720 -97.299  1.00  0.00     0.002 C 
HETATM    4  C4  UNL     1      46.607 -27.927 -98.156  1.00  0.00     0.000 C 
HETATM    5  C5  UNL     1      47.679 -28.892 -97.825  1.00  0.00     0.000 C 
HETATM    6  C6  UNL     1      48.950 -28.318 -97.332  1.00  0.00     0.000 C 
HETATM    7  C7  UNL     1      49.085 -28.617 -95.860  1.00  0.00     0.002 C 
HETATM    8  C8  UNL     1      49.132 -27.376 -95.030  1.00  0.00     0.032 C 
ENDROOT
BRANCH   1   9
HETATM    9  O1  UNL     1      47.920 -25.559 -94.223  1.00  0.00    -0.396 OA
ATOM     10  H1  UNL     1      47.718 -26.095 -93.465  1.00  0.00     0.210 HD
ENDBRANCH   1   9
TORSDOF 1
ENDMDL
