MODEL 1
REMARK VINA RESULT: -6.163534923      0.000      0.000
REMARK  0 active torsions:
REMARK  status: ('A' for Active; 'I' for Inactive)
ROOT
HETATM    1  F1  UNL     1      47.429 -28.775 -94.627  1.00  0.00    -0.249 F 
HETATM    2  C1  UNL     1      48.230 -27.846 -95.201  1.00  0.00     0.174 C 
HETATM    3  C2  UNL     1      47.936 -26.467 -94.583  1.00  0.00     0.038 C 
HETATM    4  C3  UNL     1      47.028 -25.750 -95.597  1.00  0.00     0.008 C 
HETATM    5  C4  UNL     1      46.583 -26.859 -96.458  1.00  0.00    -0.008 C 
HETATM    6  C5  UNL     1      46.280 -26.596 -97.871  1.00  0.00     0.005 C 
HETATM    7  C6  UNL     1      46.765 -27.873 -98.574  1.00  0.00     0.001 C 
HETATM    8  C7  UNL     1      47.491 -28.687 -97.489  1.00  0.00     0.008 C 
HETATM    9  C8  UNL     1      47.928 -27.607 -96.604  1.00  0.00     0.024 C 
ENDROOT
TORSDOF 0
ENDMDL
MODEL 2
REMARK VINA RESULT: -6.074855937      1.708      3.496
REMARK  0 active torsions:
REMARK  status: ('A' for Active; 'I' for Inactive)
ROOT
HETATM    1  F1  UNL     1      47.243 -28.878 -94.572  1.00  0.00    -0.249 F 
HETATM    2  C1  UNL     1      47.438 -28.171 -95.712  1.00  0.00     0.174 C 
HETATM    3  C2  UNL     1      48.468 -28.899 -96.593  1.00  0.00     0.038 C 
HETATM    4  C3  UNL     1      49.798 -28.160 -96.364  1.00  0.00     0.008 C 
HETATM    5  C4  UNL     1      49.517 -27.382 -95.145  1.00  0.00    -0.008 C 
HETATM    6  C5  UNL     1      50.192 -26.093 -94.943  1.00  0.00     0.005 C 
HETATM    7  C6  UNL     1      49.115 -25.241 -94.253  1.00  0.00     0.001 C 
HETATM    8  C7  UNL     1      47.832 -26.089 -94.298  1.00  0.00     0.008 C 
HETATM    9  C8  UNL     1      48.093 -26.891 -95.494  1.00  0.00     0.024 C 
ENDROOT
TORSDOF 0
ENDMDL
MODEL 3
REMARK VINA RESULT: -6.055612215      2.232      3.064
REMARK  0 active torsions:
REMARK  status: ('A' for Active; 'I' for Inactive)
ROOT
HETATM    1  F1  UNL     1      47.218 -25.715 -96.289  1.00  0.00    -0.249 F 
HETATM    2  C1  UNL     1      47.581 -25.958 -95.007  1.00  0.00     0.174 C 
HETATM    3  C2  UNL     1      48.861 -25.169 -94.680  1.00  0.00     0.038 C 
HETATM    4  C3  UNL     1      50.009 -26.187 -94.793  1.00  0.00     0.008 C 
HETATM    5  C4  UNL     1      49.371 -27.298 -95.519  1.00  0.00    -0.008 C 
HETATM    6  C5  UNL     1      49.828 -28.673 -95.275  1.00  0.00     0.005 C 
HETATM    7  C6  UNL     1      48.530 -29.492 -95.372  1.00  0.00     0.001 C 
HETATM    8  C7  UNL     1      47.400 -28.455 -95.477  1.00  0.00     0.008 C 
HETATM    9  C8  UNL     1      48.015 -27.327 -94.778  1.00  0.00     0.024 C 
ENDROOT
TORSDOF 0
ENDMDL
MODEL 4
REMARK VINA RESULT: -6.050419577      2.163      3.353
REMARK  0 active torsions:
REMARK  status: ('A' for Active; 'I' for Inactive)
ROOT
HETATM    1  F1  UNL     1      50.188 -28.176 -96.891  1.00  0.00    -0.249 F 
HETATM    2  C1  UNL     1      49.715 -28.508 -95.666  1.00  0.00     0.174 C 
HETATM    3  C2  UNL     1      48.366 -29.233 -95.819  1.00  0.00     0.038 C 
HETATM    4  C3  UNL     1      47.294 -28.170 -95.521  1.00  0.00     0.008 C 
HETATM    5  C4  UNL     1      48.062 -26.917 -95.614  1.00  0.00    -0.008 C 
HETATM    6  C5  UNL     1      47.663 -25.766 -94.793  1.00  0.00     0.005 C 
HETATM    7  C6  UNL     1      49.007 -25.121 -94.420  1.00  0.00     0.001 C 
HETATM    8  C7  UNL     1      50.083 -26.100 -94.921  1.00  0.00     0.008 C 
HETATM    9  C8  UNL     1      49.337 -27.358 -94.859  1.00  0.00     0.024 C 
ENDROOT
TORSDOF 0
ENDMDL
MODEL 5
REMARK VINA RESULT: -5.872029391      1.553      2.637
REMARK  0 active torsions:
REMARK  status: ('A' for Active; 'I' for Inactive)
ROOT
HETATM    1  F1  UNL     1      47.777 -25.940 -93.585  1.00  0.00    -0.249 F 
HETATM    2  C1  UNL     1      48.066 -25.668 -94.880  1.00  0.00     0.174 C 
HETATM    3  C2  UNL     1      46.757 -25.488 -95.668  1.00  0.00     0.038 C 
HETATM    4  C3  UNL     1      46.534 -26.823 -96.400  1.00  0.00     0.008 C 
HETATM    5  C4  UNL     1      47.459 -27.725 -95.694  1.00  0.00    -0.008 C 
HETATM    6  C5  UNL     1      48.065 -28.848 -96.422  1.00  0.00     0.005 C 
HETATM    7  C6  UNL     1      49.477 -28.932 -95.819  1.00  0.00     0.001 C 
HETATM    8  C7  UNL     1      49.608 -27.695 -94.914  1.00  0.00     0.008 C 
HETATM    9  C8  UNL     1      48.680 -26.783 -95.583  1.00  0.00     0.024 C 
ENDROOT
TORSDOF 0
ENDMDL
