MODEL 1
REMARK VINA RESULT: -6.328517644      0.000      0.000
REMARK  1 active torsions:
REMARK  status: ('A' for Active; 'I' for Inactive)
REMARK    1  A    between atoms: N1_1  and  C1_5 
ROOT
HETATM    1  C1  UNL     1      47.680 -25.508 -95.281  1.00  0.00     0.184 C 
HETATM    2  C2  UNL     1      48.767 -25.527 -94.303  1.00  0.00     0.044 C 
HETATM    3  C3  UNL     1      50.116 -26.179 -94.761  1.00  0.00     0.082 C 
HETATM    4  C4  UNL     1      49.717 -27.270 -95.549  1.00  0.00    -0.183 C 
HETATM    5  C5  UNL     1      49.731 -28.373 -96.418  1.00  0.00     0.080 C 
HETATM    6  C6  UNL     1      48.218 -28.676 -96.684  1.00  0.00     0.011 C 
HETATM    7  C7  UNL     1      47.332 -27.507 -96.778  1.00  0.00     0.003 C 
HETATM    8  C8  UNL     1      46.850 -26.752 -95.568  1.00  0.00     0.033 C 
ENDROOT
BRANCH   1   9
HETATM    9  N1  UNL     1      46.741 -24.479 -94.762  1.00  0.00    -0.075 N 
ATOM     10  H13 UNL     1      45.898 -24.359 -95.324  1.00  0.00     0.274 HD
ATOM     11  H12 UNL     1      46.264 -24.744 -93.901  1.00  0.00     0.274 HD
ATOM     12  H11 UNL     1      47.312 -23.637 -94.681  1.00  0.00     0.274 HD
ENDBRANCH   1   9
TORSDOF 1
ENDMDL
MODEL 2
REMARK VINA RESULT: -6.226776594      1.090      2.503
REMARK  1 active torsions:
REMARK  status: ('A' for Active; 'I' for Inactive)
REMARK    1  A    between atoms: N1_1  and  C1_5 
ROOT
HETATM    1  C1  UNL     1      47.815 -26.423 -94.767  1.00  0.00     0.184 C 
HETATM    2  C2  UNL     1      46.871 -25.830 -95.714  1.00  0.00     0.044 C 
HETATM    3  C3  UNL     1      46.286 -26.780 -96.814  1.00  0.00     0.082 C 
HETATM    4  C4  UNL     1      47.367 -27.608 -97.160  1.00  0.00    -0.183 C 
HETATM    5  C5  UNL     1      48.143 -28.635 -97.718  1.00  0.00     0.080 C 
HETATM    6  C6  UNL     1      49.534 -28.497 -97.012  1.00  0.00     0.011 C 
HETATM    7  C7  UNL     1      49.504 -28.103 -95.597  1.00  0.00     0.003 C 
HETATM    8  C8  UNL     1      49.266 -26.684 -95.153  1.00  0.00     0.033 C 
ENDROOT
BRANCH   1   9
HETATM    9  N1  UNL     1      47.841 -25.465 -93.631  1.00  0.00    -0.075 N 
ATOM     10  H13 UNL     1      47.675 -25.892 -92.719  1.00  0.00     0.274 HD
ATOM     11  H12 UNL     1      48.767 -25.097 -93.414  1.00  0.00     0.274 HD
ATOM     12  H11 UNL     1      47.159 -24.753 -93.889  1.00  0.00     0.274 HD
ENDBRANCH   1   9
TORSDOF 1
ENDMDL
MODEL 3
REMARK VINA RESULT: -6.221643147      1.506      2.645
REMARK  1 active torsions:
REMARK  status: ('A' for Active; 'I' for Inactive)
REMARK    1  A    between atoms: N1_1  and  C1_5 
ROOT
HETATM    1  C1  UNL     1      49.169 -26.498 -95.217  1.00  0.00     0.184 C 
HETATM    2  C2  UNL     1      49.667 -27.859 -95.414  1.00  0.00     0.044 C 
HETATM    3  C3  UNL     1      49.355 -28.531 -96.793  1.00  0.00     0.082 C 
HETATM    4  C4  UNL     1      48.057 -28.092 -97.101  1.00  0.00    -0.183 C 
HETATM    5  C5  UNL     1      46.853 -27.838 -97.776  1.00  0.00     0.080 C 
HETATM    6  C6  UNL     1      46.076 -26.864 -96.827  1.00  0.00     0.011 C 
HETATM    7  C7  UNL     1      46.892 -25.877 -96.106  1.00  0.00     0.003 C 
HETATM    8  C8  UNL     1      47.706 -26.229 -94.889  1.00  0.00     0.033 C 
ENDROOT
BRANCH   1   9
HETATM    9  N1  UNL     1      49.965 -25.980 -94.073  1.00  0.00    -0.075 N 
ATOM     10  H13 UNL     1      50.873 -26.431 -93.957  1.00  0.00     0.274 HD
ATOM     11  H12 UNL     1      50.326 -25.036 -94.207  1.00  0.00     0.274 HD
ATOM     12  H11 UNL     1      49.344 -26.081 -93.271  1.00  0.00     0.274 HD
ENDBRANCH   1   9
TORSDOF 1
ENDMDL
MODEL 4
REMARK VINA RESULT: -6.120132780      2.153      3.185
REMARK  1 active torsions:
REMARK  status: ('A' for Active; 'I' for Inactive)
REMARK    1  A    between atoms: N1_1  and  C1_5 
ROOT
HETATM    1  C1  UNL     1      48.778 -28.248 -95.478  1.00  0.00     0.184 C 
HETATM    2  C2  UNL     1      48.858 -26.903 -94.909  1.00  0.00     0.044 C 
HETATM    3  C3  UNL     1      47.550 -26.043 -94.945  1.00  0.00     0.082 C 
HETATM    4  C4  UNL     1      46.964 -26.365 -96.180  1.00  0.00    -0.183 C 
HETATM    5  C5  UNL     1      46.062 -26.462 -97.252  1.00  0.00     0.080 C 
HETATM    6  C6  UNL     1      46.720 -27.504 -98.217  1.00  0.00     0.011 C 
HETATM    7  C7  UNL     1      47.430 -28.620 -97.577  1.00  0.00     0.003 C 
HETATM    8  C8  UNL     1      48.807 -28.473 -96.985  1.00  0.00     0.033 C 
ENDROOT
BRANCH   1   9
HETATM    9  N1  UNL     1      49.962 -28.952 -94.918  1.00  0.00    -0.075 N 
ATOM     10  H13 UNL     1      50.699 -28.331 -94.584  1.00  0.00     0.274 HD
ATOM     11  H12 UNL     1      49.791 -29.413 -94.025  1.00  0.00     0.274 HD
ATOM     12  H11 UNL     1      50.253 -29.583 -95.665  1.00  0.00     0.274 HD
ENDBRANCH   1   9
TORSDOF 1
ENDMDL
MODEL 5
REMARK VINA RESULT: -6.106144785      1.308      1.930
REMARK  1 active torsions:
REMARK  status: ('A' for Active; 'I' for Inactive)
REMARK    1  A    between atoms: N1_1  and  C1_5 
ROOT
HETATM    1  C1  UNL     1      47.503 -26.063 -95.757  1.00  0.00     0.184 C 
HETATM    2  C2  UNL     1      48.187 -27.110 -94.999  1.00  0.00     0.044 C 
HETATM    3  C3  UNL     1      49.054 -28.123 -95.821  1.00  0.00     0.082 C 
HETATM    4  C4  UNL     1      48.315 -28.327 -96.999  1.00  0.00    -0.183 C 
HETATM    5  C5  UNL     1      47.929 -28.734 -98.285  1.00  0.00     0.080 C 
HETATM    6  C6  UNL     1      46.576 -27.987 -98.537  1.00  0.00     0.011 C 
HETATM    7  C7  UNL     1      46.477 -26.626 -97.991  1.00  0.00     0.003 C 
HETATM    8  C8  UNL     1      46.224 -26.353 -96.532  1.00  0.00     0.033 C 
ENDROOT
BRANCH   1   9
HETATM    9  N1  UNL     1      47.160 -25.039 -94.735  1.00  0.00    -0.075 N 
ATOM     10  H13 UNL     1      46.225 -24.642 -94.837  1.00  0.00     0.274 HD
ATOM     11  H12 UNL     1      47.019 -25.415 -93.797  1.00  0.00     0.274 HD
ATOM     12  H11 UNL     1      47.914 -24.356 -94.803  1.00  0.00     0.274 HD
ENDBRANCH   1   9
TORSDOF 1
ENDMDL
