MODEL 1
REMARK VINA RESULT: -8.369468702      0.000      0.000
REMARK  3 active torsions:
REMARK  status: ('A' for Active; 'I' for Inactive)
REMARK    1  A    between atoms: N1_1  and  C1_4 
REMARK    2  A    between atoms: C6_12  and  C7_13 
REMARK    3  A    between atoms: C7_13  and  C8_14 
ROOT
HETATM    1  C1  UNL     1      47.777 -25.381 -94.376  1.00  0.00     0.092 A 
HETATM    2  S1  UNL     1      49.392 -25.335 -93.829  1.00  0.00     0.004 SA
HETATM    3  N2  UNL     1      49.907 -26.835 -94.390  1.00  0.00    -0.328 N 
ATOM      4  H2  UNL     1      50.831 -27.257 -94.295  1.00  0.00     0.174 HD
HETATM    5  C2  UNL     1      48.824 -27.347 -94.990  1.00  0.00     0.029 A 
HETATM    6  C3  UNL     1      47.708 -26.608 -94.994  1.00  0.00     0.000 A 
HETATM    7  C4  UNL     1      46.592 -27.367 -95.704  1.00  0.00     0.044 C 
HETATM    8  C5  UNL     1      47.088 -28.789 -95.430  1.00  0.00     0.015 C 
HETATM    9  C6  UNL     1      48.526 -28.659 -95.747  1.00  0.00     0.037 C 
ENDROOT
BRANCH   9  10
HETATM   10  C7  UNL     1      48.949 -28.397 -97.129  1.00  0.00     0.015 C 
BRANCH  10  11
HETATM   11  C8  UNL     1      48.656 -29.255 -98.246  1.00  0.00    -0.014 C 
HETATM   12  C9  UNL     1      49.570 -29.265 -99.444  1.00  0.00     0.005 C 
HETATM   13  C10 UNL     1      48.850 -30.273-100.378  1.00  0.00     0.000 C 
HETATM   14  C11 UNL     1      47.396 -30.214 -99.977  1.00  0.00     0.000 C 
HETATM   15  C12 UNL     1      47.274 -29.200 -98.859  1.00  0.00     0.005 C 
ENDBRANCH  10  11
ENDBRANCH   9  10
BRANCH   1  16
HETATM   16  N1  UNL     1      46.823 -24.480 -94.249  1.00  0.00    -0.392 N 
ATOM     17  H12 UNL     1      46.714 -23.604 -94.759  1.00  0.00     0.156 HD
ATOM     18  H11 UNL     1      46.014 -24.475 -93.628  1.00  0.00     0.156 HD
ENDBRANCH   1  16
TORSDOF 3
ENDMDL
MODEL 2
REMARK VINA RESULT: -8.228362713      0.543      1.146
REMARK  3 active torsions:
REMARK  status: ('A' for Active; 'I' for Inactive)
REMARK    1  A    between atoms: N1_1  and  C1_4 
REMARK    2  A    between atoms: C6_12  and  C7_13 
REMARK    3  A    between atoms: C7_13  and  C8_14 
ROOT
HETATM    1  C1  UNL     1      47.728 -25.130 -94.464  1.00  0.00     0.092 A 
HETATM    2  S1  UNL     1      49.204 -25.486 -93.688  1.00  0.00     0.004 SA
HETATM    3  N2  UNL     1      49.459 -27.034 -94.295  1.00  0.00    -0.328 N 
ATOM      4  H2  UNL     1      50.240 -27.662 -94.104  1.00  0.00     0.174 HD
HETATM    5  C2  UNL     1      48.401 -27.251 -95.087  1.00  0.00     0.029 A 
HETATM    6  C3  UNL     1      47.490 -26.275 -95.188  1.00  0.00     0.000 A 
HETATM    7  C4  UNL     1      46.363 -26.719 -96.115  1.00  0.00     0.044 C 
HETATM    8  C5  UNL     1      46.483 -28.229 -95.896  1.00  0.00     0.015 C 
HETATM    9  C6  UNL     1      47.946 -28.419 -95.989  1.00  0.00     0.037 C 
ENDROOT
BRANCH   9  10
HETATM   10  C7  UNL     1      48.632 -28.191 -97.267  1.00  0.00     0.015 C 
BRANCH  10  11
HETATM   11  C8  UNL     1      48.295 -28.851 -98.501  1.00  0.00    -0.014 C 
HETATM   12  C9  UNL     1      47.239 -29.926 -98.512  1.00  0.00     0.005 C 
HETATM   13  C10 UNL     1      47.250 -30.360-100.001  1.00  0.00     0.000 C 
HETATM   14  C11 UNL     1      48.639 -30.035-100.497  1.00  0.00     0.000 C 
HETATM   15  C12 UNL     1      49.409 -29.445 -99.334  1.00  0.00     0.005 C 
ENDBRANCH  10  11
ENDBRANCH   9  10
BRANCH   1  16
HETATM   16  N1  UNL     1      46.988 -24.041 -94.399  1.00  0.00    -0.392 N 
ATOM     17  H12 UNL     1      47.291 -23.070 -94.465  1.00  0.00     0.156 HD
ATOM     18  H11 UNL     1      45.980 -23.948 -94.273  1.00  0.00     0.156 HD
ENDBRANCH   1  16
TORSDOF 3
ENDMDL
MODEL 3
REMARK VINA RESULT: -7.669118215      2.996      4.942
REMARK  3 active torsions:
REMARK  status: ('A' for Active; 'I' for Inactive)
REMARK    1  A    between atoms: N1_1  and  C1_4 
REMARK    2  A    between atoms: C6_12  and  C7_13 
REMARK    3  A    between atoms: C7_13  and  C8_14 
ROOT
HETATM    1  C1  UNL     1      49.441 -28.783 -97.880  1.00  0.00     0.092 A 
HETATM    2  S1  UNL     1      48.013 -29.275 -98.673  1.00  0.00     0.004 SA
HETATM    3  N2  UNL     1      47.174 -29.893 -97.353  1.00  0.00    -0.328 N 
ATOM      4  H2  UNL     1      46.243 -30.311 -97.341  1.00  0.00     0.174 HD
HETATM    5  C2  UNL     1      48.009 -29.709 -96.322  1.00  0.00     0.029 A 
HETATM    6  C3  UNL     1      49.191 -29.135 -96.574  1.00  0.00     0.000 A 
HETATM    7  C4  UNL     1      49.998 -29.032 -95.283  1.00  0.00     0.044 C 
HETATM    8  C5  UNL     1      49.375 -30.217 -94.542  1.00  0.00     0.015 C 
HETATM    9  C6  UNL     1      47.936 -29.999 -94.807  1.00  0.00     0.037 C 
ENDROOT
BRANCH   9  10
HETATM   10  C7  UNL     1      47.258 -28.828 -94.236  1.00  0.00     0.015 C 
BRANCH  10  11
HETATM   11  C8  UNL     1      47.328 -27.500 -94.785  1.00  0.00    -0.014 C 
HETATM   12  C9  UNL     1      47.608 -26.328 -93.880  1.00  0.00     0.005 C 
HETATM   13  C10 UNL     1      47.547 -25.140 -94.876  1.00  0.00     0.000 C 
HETATM   14  C11 UNL     1      46.643 -25.609 -95.993  1.00  0.00     0.000 C 
HETATM   15  C12 UNL     1      46.187 -27.011 -95.649  1.00  0.00     0.005 C 
ENDBRANCH  10  11
ENDBRANCH   9  10
BRANCH   1  16
HETATM   16  N1  UNL     1      50.520 -28.210 -98.375  1.00  0.00    -0.392 N 
ATOM     17  H12 UNL     1      50.575 -27.486 -99.092  1.00  0.00     0.156 HD
ATOM     18  H11 UNL     1      51.501 -28.368 -98.147  1.00  0.00     0.156 HD
ENDBRANCH   1  16
TORSDOF 3
ENDMDL
MODEL 4
REMARK VINA RESULT: -7.637135204      3.315      5.622
REMARK  3 active torsions:
REMARK  status: ('A' for Active; 'I' for Inactive)
REMARK    1  A    between atoms: N1_1  and  C1_4 
REMARK    2  A    between atoms: C6_12  and  C7_13 
REMARK    3  A    between atoms: C7_13  and  C8_14 
ROOT
HETATM    1  C1  UNL     1      48.893 -29.345 -99.466  1.00  0.00     0.092 A 
HETATM    2  S1  UNL     1      47.485 -30.227 -99.853  1.00  0.00     0.004 SA
HETATM    3  N2  UNL     1      46.780 -30.288 -98.327  1.00  0.00    -0.328 N 
ATOM      4  H2  UNL     1      45.899 -30.728 -98.060  1.00  0.00     0.174 HD
HETATM    5  C2  UNL     1      47.643 -29.627 -97.544  1.00  0.00     0.029 A 
HETATM    6  C3  UNL     1      48.746 -29.130 -98.115  1.00  0.00     0.000 A 
HETATM    7  C4  UNL     1      49.602 -28.435 -97.061  1.00  0.00     0.044 C 
HETATM    8  C5  UNL     1      49.141 -29.237 -95.842  1.00  0.00     0.015 C 
HETATM    9  C6  UNL     1      47.676 -29.255 -96.046  1.00  0.00     0.037 C 
ENDROOT
BRANCH   9  10
HETATM   10  C7  UNL     1      46.911 -28.004 -95.956  1.00  0.00     0.015 C 
BRANCH  10  11
HETATM   11  C8  UNL     1      47.403 -26.791 -95.358  1.00  0.00    -0.014 C 
HETATM   12  C9  UNL     1      47.598 -26.717 -93.865  1.00  0.00     0.005 C 
HETATM   13  C10 UNL     1      48.082 -25.254 -93.685  1.00  0.00     0.000 C 
HETATM   14  C11 UNL     1      47.507 -24.501 -94.862  1.00  0.00     0.000 C 
HETATM   15  C12 UNL     1      46.709 -25.488 -95.687  1.00  0.00     0.005 C 
ENDBRANCH  10  11
ENDBRANCH   9  10
BRANCH   1  16
HETATM   16  N1  UNL     1      49.882 -28.959-100.248  1.00  0.00    -0.392 N 
ATOM     17  H12 UNL     1      50.078 -29.251-101.205  1.00  0.00     0.156 HD
ATOM     18  H11 UNL     1      50.638 -28.301-100.060  1.00  0.00     0.156 HD
ENDBRANCH   1  16
TORSDOF 3
ENDMDL
MODEL 5
REMARK VINA RESULT: -7.535897777      1.585      2.324
REMARK  3 active torsions:
REMARK  status: ('A' for Active; 'I' for Inactive)
REMARK    1  A    between atoms: N1_1  and  C1_4 
REMARK    2  A    between atoms: C6_12  and  C7_13 
REMARK    3  A    between atoms: C7_13  and  C8_14 
ROOT
HETATM    1  C1  UNL     1      49.356 -27.207 -94.470  1.00  0.00     0.092 A 
HETATM    2  S1  UNL     1      49.783 -28.853 -94.602  1.00  0.00     0.004 SA
HETATM    3  N2  UNL     1      48.523 -29.377 -95.585  1.00  0.00    -0.328 N 
ATOM      4  H2  UNL     1      48.353 -30.319 -95.940  1.00  0.00     0.174 HD
HETATM    5  C2  UNL     1      47.793 -28.274 -95.795  1.00  0.00     0.029 A 
HETATM    6  C3  UNL     1      48.209 -27.137 -95.225  1.00  0.00     0.000 A 
HETATM    7  C4  UNL     1      47.242 -26.007 -95.566  1.00  0.00     0.044 C 
HETATM    8  C5  UNL     1      45.984 -26.854 -95.775  1.00  0.00     0.015 C 
HETATM    9  C6  UNL     1      46.514 -27.960 -96.601  1.00  0.00     0.037 C 
ENDROOT
BRANCH   9  10
HETATM   10  C7  UNL     1      46.990 -27.690 -97.964  1.00  0.00     0.015 C 
BRANCH  10  11
HETATM   11  C8  UNL     1      47.370 -28.706 -98.910  1.00  0.00    -0.014 C 
HETATM   12  C9  UNL     1      46.746 -30.075 -98.831  1.00  0.00     0.005 C 
HETATM   13  C10 UNL     1      47.472 -30.817 -99.983  1.00  0.00     0.000 C 
HETATM   14  C11 UNL     1      48.796 -30.107-100.138  1.00  0.00     0.000 C 
HETATM   15  C12 UNL     1      48.841 -29.001 -99.105  1.00  0.00     0.005 C 
ENDBRANCH  10  11
ENDBRANCH   9  10
BRANCH   1  16
HETATM   16  N1  UNL     1      49.960 -26.235 -93.815  1.00  0.00    -0.392 N 
ATOM     17  H12 UNL     1      50.959 -26.111 -93.653  1.00  0.00     0.156 HD
ATOM     18  H11 UNL     1      49.559 -25.423 -93.346  1.00  0.00     0.156 HD
ENDBRANCH   1  16
TORSDOF 3
ENDMDL
