MODEL 1
REMARK VINA RESULT: -8.318920507      0.000      0.000
REMARK  4 active torsions:
REMARK  status: ('A' for Active; 'I' for Inactive)
REMARK    1  A    between atoms: C2_2  and  O1_3 
REMARK    2  A    between atoms: C2_2  and  N1_5 
REMARK    3  A    between atoms: C2_2  and  C10_14 
REMARK    4  A    between atoms: N1_5  and  C3_7 
ROOT
HETATM    1  C1  UNL     1      47.683 -29.223 -94.785  1.00  0.00     0.071 C 
HETATM    2  C2  UNL     1      48.640 -28.095 -95.006  1.00  0.00     0.131 C 
ENDROOT
BRANCH   2   3
HETATM    3  O1  UNL     1      49.802 -28.474 -94.309  1.00  0.00    -0.371 OA
ATOM      4  H1  UNL     1      50.510 -28.323 -94.924  1.00  0.00     0.212 HD
ENDBRANCH   2   3
BRANCH   2   5
HETATM    5  N1  UNL     1      48.919 -27.863 -96.346  1.00  0.00    -0.365 N 
ATOM      6  H1  UNL     1      49.422 -27.003 -96.567  1.00  0.00     0.162 HD
BRANCH   5   7
HETATM    7  C3  UNL     1      48.583 -28.677 -97.412  1.00  0.00    -0.015 C 
HETATM    8  C4  UNL     1      47.377 -28.251 -98.225  1.00  0.00     0.052 C 
HETATM    9  C5  UNL     1      46.611 -29.454 -98.736  1.00  0.00     0.006 C 
HETATM   10  C6  UNL     1      47.482 -30.508 -99.337  1.00  0.00     0.000 C 
HETATM   11  C7  UNL     1      48.532 -29.993-100.281  1.00  0.00     0.000 C 
HETATM   12  C8  UNL     1      49.569 -29.121 -99.681  1.00  0.00     0.006 C 
HETATM   13  C9  UNL     1      49.711 -29.234 -98.175  1.00  0.00     0.052 C 
ENDBRANCH   5   7
ENDBRANCH   2   5
BRANCH   2  14
HETATM   14  C10 UNL     1      48.182 -26.807 -94.378  1.00  0.00     0.040 C 
HETATM   15  C11 UNL     1      49.235 -25.766 -94.183  1.00  0.00     0.009 C 
HETATM   16  C12 UNL     1      48.511 -24.435 -94.367  1.00  0.00     0.001 C 
HETATM   17  C13 UNL     1      47.067 -24.784 -94.484  1.00  0.00     0.001 C 
HETATM   18  C14 UNL     1      47.102 -26.151 -95.179  1.00  0.00     0.009 C 
ENDBRANCH   2  14
TORSDOF 4
ENDMDL
MODEL 2
REMARK VINA RESULT: -7.787994045      1.412      2.971
REMARK  4 active torsions:
REMARK  status: ('A' for Active; 'I' for Inactive)
REMARK    1  A    between atoms: C2_2  and  O1_3 
REMARK    2  A    between atoms: C2_2  and  N1_5 
REMARK    3  A    between atoms: C2_2  and  C10_14 
REMARK    4  A    between atoms: N1_5  and  C3_7 
ROOT
HETATM    1  C1  UNL     1      47.582 -26.185 -94.594  1.00  0.00     0.071 C 
HETATM    2  C2  UNL     1      47.591 -27.517 -95.275  1.00  0.00     0.131 C 
ENDROOT
BRANCH   2   3
HETATM    3  O1  UNL     1      46.233 -27.872 -95.378  1.00  0.00    -0.371 OA
ATOM      4  H1  UNL     1      46.091 -28.481 -94.663  1.00  0.00     0.212 HD
ENDBRANCH   2   3
BRANCH   2   5
HETATM    5  N1  UNL     1      48.193 -27.492 -96.526  1.00  0.00    -0.365 N 
ATOM      6  H1  UNL     1      48.775 -26.681 -96.737  1.00  0.00     0.162 HD
BRANCH   5   7
HETATM    7  C3  UNL     1      48.084 -28.453 -97.514  1.00  0.00    -0.015 C 
HETATM    8  C4  UNL     1      46.992 -28.235 -98.542  1.00  0.00     0.052 C 
HETATM    9  C5  UNL     1      46.401 -29.553 -98.998  1.00  0.00     0.006 C 
HETATM   10  C6  UNL     1      47.427 -30.588 -99.325  1.00  0.00     0.000 C 
HETATM   11  C7  UNL     1      48.571 -30.096-100.165  1.00  0.00     0.000 C 
HETATM   12  C8  UNL     1      49.439 -29.071 -99.540  1.00  0.00     0.006 C 
HETATM   13  C9  UNL     1      49.354 -28.993 -98.028  1.00  0.00     0.052 C 
ENDBRANCH   5   7
ENDBRANCH   2   5
BRANCH   2  14
HETATM   14  C10 UNL     1      48.240 -28.593 -94.449  1.00  0.00     0.040 C 
HETATM   15  C11 UNL     1      47.735 -29.981 -94.673  1.00  0.00     0.009 C 
HETATM   16  C12 UNL     1      48.951 -30.880 -94.463  1.00  0.00     0.001 C 
HETATM   17  C13 UNL     1      50.028 -29.978 -93.966  1.00  0.00     0.001 C 
HETATM   18  C14 UNL     1      49.717 -28.654 -94.675  1.00  0.00     0.009 C 
ENDBRANCH   2  14
TORSDOF 4
ENDMDL
MODEL 3
REMARK VINA RESULT: -7.598053250      1.131      1.392
REMARK  4 active torsions:
REMARK  status: ('A' for Active; 'I' for Inactive)
REMARK    1  A    between atoms: C2_2  and  O1_3 
REMARK    2  A    between atoms: C2_2  and  N1_5 
REMARK    3  A    between atoms: C2_2  and  C10_14 
REMARK    4  A    between atoms: N1_5  and  C3_7 
ROOT
HETATM    1  C1  UNL     1      46.005 -27.642 -95.385  1.00  0.00     0.071 C 
HETATM    2  C2  UNL     1      47.454 -28.001 -95.486  1.00  0.00     0.131 C 
ENDROOT
BRANCH   2   3
HETATM    3  O1  UNL     1      47.508 -29.360 -95.130  1.00  0.00    -0.371 OA
ATOM      4  H1  UNL     1      46.950 -29.796 -95.763  1.00  0.00     0.212 HD
ENDBRANCH   2   3
BRANCH   2   5
HETATM    5  N1  UNL     1      47.983 -27.798 -96.754  1.00  0.00    -0.365 N 
ATOM      6  H1  UNL     1      48.369 -26.873 -96.946  1.00  0.00     0.162 HD
BRANCH   5   7
HETATM    7  C3  UNL     1      48.041 -28.721 -97.781  1.00  0.00    -0.015 C 
HETATM    8  C4  UNL     1      47.011 -28.563 -98.882  1.00  0.00     0.052 C 
HETATM    9  C5  UNL     1      46.586 -29.909 -99.429  1.00  0.00     0.006 C 
HETATM   10  C6  UNL     1      47.729 -30.829 -99.713  1.00  0.00     0.000 C 
HETATM   11  C7  UNL     1      48.879 -30.195-100.445  1.00  0.00     0.000 C 
HETATM   12  C8  UNL     1      49.594 -29.121 -99.717  1.00  0.00     0.006 C 
HETATM   13  C9  UNL     1      49.391 -29.117 -98.214  1.00  0.00     0.052 C 
ENDBRANCH   5   7
ENDBRANCH   2   5
BRANCH   2  14
HETATM   14  C10 UNL     1      48.308 -27.274 -94.484  1.00  0.00     0.040 C 
HETATM   15  C11 UNL     1      49.734 -27.061 -94.876  1.00  0.00     0.009 C 
HETATM   16  C12 UNL     1      50.119 -25.725 -94.247  1.00  0.00     0.001 C 
HETATM   17  C13 UNL     1      48.957 -25.340 -93.396  1.00  0.00     0.001 C 
HETATM   18  C14 UNL     1      47.764 -25.917 -94.167  1.00  0.00     0.009 C 
ENDBRANCH   2  14
TORSDOF 4
ENDMDL
MODEL 4
REMARK VINA RESULT: -7.522833912      1.589      4.885
REMARK  4 active torsions:
REMARK  status: ('A' for Active; 'I' for Inactive)
REMARK    1  A    between atoms: C2_2  and  O1_3 
REMARK    2  A    between atoms: C2_2  and  N1_5 
REMARK    3  A    between atoms: C2_2  and  C10_14 
REMARK    4  A    between atoms: N1_5  and  C3_7 
ROOT
HETATM    1  C1  UNL     1      49.897 -30.089 -94.411  1.00  0.00     0.071 C 
HETATM    2  C2  UNL     1      48.599 -29.619 -94.986  1.00  0.00     0.131 C 
ENDROOT
BRANCH   2   3
HETATM    3  O1  UNL     1      47.877 -30.798 -95.243  1.00  0.00    -0.371 OA
ATOM      4  H1  UNL     1      47.935 -31.294 -94.435  1.00  0.00     0.212 HD
ENDBRANCH   2   3
BRANCH   2   5
HETATM    5  N1  UNL     1      47.893 -28.778 -94.137  1.00  0.00    -0.365 N 
ATOM      6  H1  UNL     1      47.566 -29.183 -93.259  1.00  0.00     0.162 HD
BRANCH   5   7
HETATM    7  C3  UNL     1      47.587 -27.448 -94.358  1.00  0.00    -0.015 C 
HETATM    8  C4  UNL     1      48.761 -26.524 -94.609  1.00  0.00     0.052 C 
HETATM    9  C5  UNL     1      48.507 -25.147 -94.032  1.00  0.00     0.006 C 
HETATM   10  C6  UNL     1      47.152 -24.605 -94.351  1.00  0.00     0.000 C 
HETATM   11  C7  UNL     1      46.733 -24.764 -95.786  1.00  0.00     0.000 C 
HETATM   12  C8  UNL     1      46.564 -26.159 -96.258  1.00  0.00     0.006 C 
HETATM   13  C9  UNL     1      46.381 -27.191 -95.163  1.00  0.00     0.052 C 
ENDBRANCH   5   7
ENDBRANCH   2   5
BRANCH   2  14
HETATM   14  C10 UNL     1      48.762 -28.934 -96.316  1.00  0.00     0.040 C 
HETATM   15  C11 UNL     1      50.155 -28.868 -96.849  1.00  0.00     0.009 C 
HETATM   16  C12 UNL     1      50.000 -28.956 -98.365  1.00  0.00     0.001 C 
HETATM   17  C13 UNL     1      48.533 -28.893 -98.617  1.00  0.00     0.001 C 
HETATM   18  C14 UNL     1      47.946 -29.592 -97.384  1.00  0.00     0.009 C 
ENDBRANCH   2  14
TORSDOF 4
ENDMDL
MODEL 5
REMARK VINA RESULT: -7.302067203      1.177      2.105
REMARK  4 active torsions:
REMARK  status: ('A' for Active; 'I' for Inactive)
REMARK    1  A    between atoms: C2_2  and  O1_3 
REMARK    2  A    between atoms: C2_2  and  N1_5 
REMARK    3  A    between atoms: C2_2  and  C10_14 
REMARK    4  A    between atoms: N1_5  and  C3_7 
ROOT
HETATM    1  C1  UNL     1      45.907 -27.557 -95.396  1.00  0.00     0.071 C 
HETATM    2  C2  UNL     1      47.353 -27.859 -95.633  1.00  0.00     0.131 C 
ENDROOT
BRANCH   2   3
HETATM    3  O1  UNL     1      47.459 -29.250 -95.447  1.00  0.00    -0.371 OA
ATOM      4  H1  UNL     1      48.289 -29.482 -95.846  1.00  0.00     0.212 HD
ENDBRANCH   2   3
BRANCH   2   5
HETATM    5  N1  UNL     1      47.792 -27.493 -96.898  1.00  0.00    -0.365 N 
ATOM      6  H1  UNL     1      48.064 -26.517 -97.024  1.00  0.00     0.162 HD
BRANCH   5   7
HETATM    7  C3  UNL     1      47.899 -28.314 -98.005  1.00  0.00    -0.015 C 
HETATM    8  C4  UNL     1      49.151 -29.163 -98.090  1.00  0.00     0.052 C 
HETATM    9  C5  UNL     1      49.597 -29.337 -99.528  1.00  0.00     0.006 C 
HETATM   10  C6  UNL     1      48.485 -29.693-100.460  1.00  0.00     0.000 C 
HETATM   11  C7  UNL     1      47.566 -30.771 -99.959  1.00  0.00     0.000 C 
HETATM   12  C8  UNL     1      46.781 -30.440 -98.747  1.00  0.00     0.006 C 
HETATM   13  C9  UNL     1      46.652 -28.958 -98.450  1.00  0.00     0.052 C 
ENDBRANCH   5   7
ENDBRANCH   2   5
BRANCH   2  14
HETATM   14  C10 UNL     1      48.258 -27.233 -94.608  1.00  0.00     0.040 C 
HETATM   15  C11 UNL     1      49.693 -27.103 -94.999  1.00  0.00     0.009 C 
HETATM   16  C12 UNL     1      50.171 -25.822 -94.319  1.00  0.00     0.001 C 
HETATM   17  C13 UNL     1      49.040 -25.391 -93.448  1.00  0.00     0.001 C 
HETATM   18  C14 UNL     1      47.808 -25.856 -94.235  1.00  0.00     0.009 C 
ENDBRANCH   2  14
TORSDOF 4
ENDMDL
