MODEL 1
REMARK VINA RESULT: -7.604023117      0.000      0.000
REMARK  2 active torsions:
REMARK  status: ('A' for Active; 'I' for Inactive)
REMARK    1  A    between atoms: C2_2  and  C3_4 
REMARK    2  A    between atoms: C13_14  and  O1_15 
ROOT
HETATM    1  C3  UNL     1      47.827 -27.266 -94.926  1.00  0.00    -0.027 C 
HETATM    2  C4  UNL     1      47.894 -26.643 -93.522  1.00  0.00     0.016 C 
HETATM    3  C5  UNL     1      46.811 -28.317 -94.900  1.00  0.00     0.018 C 
HETATM    4  C6  UNL     1      47.177 -29.627 -95.548  1.00  0.00     0.015 C 
HETATM    5  C7  UNL     1      48.070 -30.492 -94.773  1.00  0.00     0.007 C 
HETATM    6  C8  UNL     1      49.486 -30.129 -94.611  1.00  0.00     0.001 C 
HETATM    7  C9  UNL     1      49.785 -28.709 -94.321  1.00  0.00     0.005 C 
HETATM    8  C10 UNL     1      49.227 -27.698 -95.260  1.00  0.00    -0.005 C 
HETATM    9  C11 UNL     1      49.489 -27.930 -96.699  1.00  0.00     0.008 C 
HETATM   10  C12 UNL     1      48.756 -28.955 -97.420  1.00  0.00     0.032 C 
HETATM   11  C13 UNL     1      47.448 -29.414 -96.972  1.00  0.00     0.122 C 
ENDROOT
BRANCH   1  12
HETATM   12  C2  UNL     1      47.472 -26.107 -95.854  1.00  0.00     0.063 C 
HETATM   13  C1  UNL     1      46.112 -26.434 -96.464  1.00  0.00     0.023 C 
HETATM   14  S1  UNL     1      47.311 -24.568 -94.893  1.00  0.00    -0.092 SA
ENDBRANCH   1  12
BRANCH  11  15
HETATM   15  O1  UNL     1      47.146 -30.621 -97.654  1.00  0.00    -0.395 OA
ATOM     16  H1  UNL     1      47.781 -30.723 -98.353  1.00  0.00     0.210 HD
ENDBRANCH  11  15
TORSDOF 2
ENDMDL
MODEL 2
REMARK VINA RESULT: -6.698039152      1.462      3.069
REMARK  2 active torsions:
REMARK  status: ('A' for Active; 'I' for Inactive)
REMARK    1  A    between atoms: C2_2  and  C3_4 
REMARK    2  A    between atoms: C13_14  and  O1_15 
ROOT
HETATM    1  C3  UNL     1      47.692 -26.793 -95.438  1.00  0.00    -0.027 C 
HETATM    2  C4  UNL     1      46.945 -25.805 -96.348  1.00  0.00     0.016 C 
HETATM    3  C5  UNL     1      49.021 -27.008 -96.008  1.00  0.00     0.018 C 
HETATM    4  C6  UNL     1      49.503 -28.434 -96.083  1.00  0.00     0.015 C 
HETATM    5  C7  UNL     1      48.928 -29.243 -97.161  1.00  0.00     0.007 C 
HETATM    6  C8  UNL     1      47.525 -29.677 -97.084  1.00  0.00     0.001 C 
HETATM    7  C9  UNL     1      46.537 -28.675 -96.626  1.00  0.00     0.005 C 
HETATM    8  C10 UNL     1      46.810 -28.006 -95.325  1.00  0.00    -0.005 C 
HETATM    9  C11 UNL     1      47.111 -28.898 -94.182  1.00  0.00     0.008 C 
HETATM   10  C12 UNL     1      48.405 -29.548 -94.082  1.00  0.00     0.032 C 
HETATM   11  C13 UNL     1      49.586 -28.997 -94.733  1.00  0.00     0.122 C 
ENDROOT
BRANCH   1  12
HETATM   12  C2  UNL     1      47.724 -26.121 -94.068  1.00  0.00     0.063 C 
HETATM   13  C1  UNL     1      49.191 -25.856 -93.744  1.00  0.00     0.023 C 
HETATM   14  S1  UNL     1      46.857 -24.520 -94.142  1.00  0.00    -0.092 SA
ENDBRANCH   1  12
BRANCH  11  15
HETATM   15  O1  UNL     1      50.591 -29.999 -94.745  1.00  0.00    -0.395 OA
ATOM     16  H1  UNL     1      50.477 -30.531 -93.967  1.00  0.00     0.210 HD
ENDBRANCH  11  15
TORSDOF 2
ENDMDL
MODEL 3
REMARK VINA RESULT: -6.293361875      2.544      3.723
REMARK  2 active torsions:
REMARK  status: ('A' for Active; 'I' for Inactive)
REMARK    1  A    between atoms: C2_2  and  C3_4 
REMARK    2  A    between atoms: C13_14  and  O1_15 
ROOT
HETATM    1  C3  UNL     1      48.144 -28.657 -97.024  1.00  0.00    -0.027 C 
HETATM    2  C4  UNL     1      49.030 -29.210 -98.151  1.00  0.00     0.016 C 
HETATM    3  C5  UNL     1      48.615 -27.310 -96.706  1.00  0.00     0.018 C 
HETATM    4  C6  UNL     1      48.764 -26.972 -95.245  1.00  0.00     0.015 C 
HETATM    5  C7  UNL     1      49.950 -27.525 -94.584  1.00  0.00     0.007 C 
HETATM    6  C8  UNL     1      50.028 -28.966 -94.302  1.00  0.00     0.001 C 
HETATM    7  C9  UNL     1      49.575 -29.884 -95.370  1.00  0.00     0.005 C 
HETATM    8  C10 UNL     1      48.205 -29.665 -95.910  1.00  0.00    -0.005 C 
HETATM    9  C11 UNL     1      47.118 -29.566 -94.909  1.00  0.00     0.008 C 
HETATM   10  C12 UNL     1      46.962 -28.360 -94.116  1.00  0.00     0.032 C 
HETATM   11  C13 UNL     1      47.463 -27.074 -94.580  1.00  0.00     0.122 C 
ENDROOT
BRANCH   1  12
HETATM   12  C2  UNL     1      46.726 -28.684 -97.587  1.00  0.00     0.063 C 
HETATM   13  C1  UNL     1      46.419 -27.270 -98.072  1.00  0.00     0.023 C 
HETATM   14  S1  UNL     1      46.648 -29.807 -99.020  1.00  0.00    -0.092 SA
ENDBRANCH   1  12
BRANCH  11  15
HETATM   15  O1  UNL     1      47.472 -26.180 -93.477  1.00  0.00    -0.395 OA
ATOM     16  H1  UNL     1      48.168 -26.452 -92.892  1.00  0.00     0.210 HD
ENDBRANCH  11  15
TORSDOF 2
ENDMDL
MODEL 4
REMARK VINA RESULT: -6.178676573      2.392      3.440
REMARK  2 active torsions:
REMARK  status: ('A' for Active; 'I' for Inactive)
REMARK    1  A    between atoms: C2_2  and  C3_4 
REMARK    2  A    between atoms: C13_14  and  O1_15 
ROOT
HETATM    1  C3  UNL     1      47.670 -28.382 -97.072  1.00  0.00    -0.027 C 
HETATM    2  C4  UNL     1      47.496 -27.231 -98.075  1.00  0.00     0.016 C 
HETATM    3  C5  UNL     1      46.542 -28.340 -96.143  1.00  0.00     0.018 C 
HETATM    4  C6  UNL     1      46.866 -28.493 -94.679  1.00  0.00     0.015 C 
HETATM    5  C7  UNL     1      47.428 -27.308 -94.026  1.00  0.00     0.007 C 
HETATM    6  C8  UNL     1      48.804 -26.886 -94.328  1.00  0.00     0.001 C 
HETATM    7  C9  UNL     1      49.220 -26.921 -95.748  1.00  0.00     0.005 C 
HETATM    8  C10 UNL     1      49.038 -28.209 -96.471  1.00  0.00    -0.005 C 
HETATM    9  C11 UNL     1      49.591 -29.413 -95.809  1.00  0.00     0.008 C 
HETATM   10  C12 UNL     1      48.912 -29.997 -94.666  1.00  0.00     0.032 C 
HETATM   11  C13 UNL     1      47.487 -29.799 -94.445  1.00  0.00     0.122 C 
ENDROOT
BRANCH   1  12
HETATM   12  C2  UNL     1      47.702 -29.647 -97.925  1.00  0.00     0.063 C 
HETATM   13  C1  UNL     1      46.296 -29.833 -98.488  1.00  0.00     0.023 C 
HETATM   14  S1  UNL     1      48.851 -29.426 -99.322  1.00  0.00    -0.092 SA
ENDBRANCH   1  12
BRANCH  11  15
HETATM   15  O1  UNL     1      47.189 -30.185 -93.112  1.00  0.00    -0.395 OA
ATOM     16  H1  UNL     1      48.011 -30.265 -92.645  1.00  0.00     0.210 HD
ENDBRANCH  11  15
TORSDOF 2
ENDMDL
MODEL 5
REMARK VINA RESULT: -6.126797839      1.344      1.667
REMARK  2 active torsions:
REMARK  status: ('A' for Active; 'I' for Inactive)
REMARK    1  A    between atoms: C2_2  and  C3_4 
REMARK    2  A    between atoms: C13_14  and  O1_15 
ROOT
HETATM    1  C3  UNL     1      47.825 -27.320 -94.984  1.00  0.00    -0.027 C 
HETATM    2  C4  UNL     1      47.195 -27.305 -93.582  1.00  0.00     0.016 C 
HETATM    3  C5  UNL     1      46.765 -27.611 -95.947  1.00  0.00     0.018 C 
HETATM    4  C6  UNL     1      47.077 -28.633 -97.010  1.00  0.00     0.015 C 
HETATM    5  C7  UNL     1      47.044 -30.032 -96.574  1.00  0.00     0.007 C 
HETATM    6  C8  UNL     1      48.106 -30.554 -95.700  1.00  0.00     0.001 C 
HETATM    7  C9  UNL     1      48.538 -29.689 -94.580  1.00  0.00     0.005 C 
HETATM    8  C10 UNL     1      48.960 -28.304 -94.923  1.00  0.00    -0.005 C 
HETATM    9  C11 UNL     1      49.964 -28.177 -96.005  1.00  0.00     0.008 C 
HETATM   10  C12 UNL     1      49.574 -28.365 -97.390  1.00  0.00     0.032 C 
HETATM   11  C13 UNL     1      48.199 -28.167 -97.828  1.00  0.00     0.122 C 
ENDROOT
BRANCH   1  12
HETATM   12  C2  UNL     1      48.433 -25.931 -95.158  1.00  0.00     0.063 C 
HETATM   13  C1  UNL     1      47.274 -24.940 -95.146  1.00  0.00     0.023 C 
HETATM   14  S1  UNL     1      49.525 -25.550 -93.750  1.00  0.00    -0.092 SA
ENDBRANCH   1  12
BRANCH  11  15
HETATM   15  O1  UNL     1      48.059 -28.741 -99.118  1.00  0.00    -0.395 OA
ATOM     16  H1  UNL     1      47.474 -28.186 -99.619  1.00  0.00     0.210 HD
ENDBRANCH  11  15
TORSDOF 2
ENDMDL
