MODEL 1
REMARK VINA RESULT: -8.254780481      0.000      0.000
REMARK  8 active torsions:
REMARK  status: ('A' for Active; 'I' for Inactive)
REMARK    1  A    between atoms: N1_2  and  C2_3 
REMARK    2  A    between atoms: C2_3  and  C3_4 
REMARK    3  A    between atoms: C3_4  and  C4_5 
REMARK    4  A    between atoms: C4_5  and  C5_6 
REMARK    5  A    between atoms: C5_6  and  C6_7 
REMARK    6  A    between atoms: C6_7  and  C7_8 
REMARK    7  A    between atoms: C7_8  and  C8_9 
REMARK    8  A    between atoms: C8_9  and  C9_10 
ROOT
HETATM    1  C3  UNL     1      46.679 -30.542 -99.361  1.00  0.00     0.028 C 
ENDROOT
BRANCH   1   2
HETATM    2  C2  UNL     1      47.326 -30.600 -98.039  1.00  0.00     0.238 C 
BRANCH   2   3
HETATM    3  N1  UNL     1      48.333 -31.560 -97.765  1.00  0.00    -0.062 N 
HETATM    4  C1  UNL     1      47.817 -32.930 -97.666  1.00  0.00     0.273 C 
HETATM    5  C12 UNL     1      49.305 -31.588 -98.835  1.00  0.00     0.238 C 
HETATM    6  C13 UNL     1      50.758 -31.607 -98.497  1.00  0.00     0.032 C 
HETATM    7  C14 UNL     1      51.195 -30.766 -97.357  1.00  0.00    -0.010 C 
HETATM    8  C15 UNL     1      51.808 -31.457 -96.187  1.00  0.00     0.009 C 
HETATM    9  C22 UNL     1      49.936 -30.096 -96.871  1.00  0.00     0.044 C 
HETATM   10  C16 UNL     1      50.856 -32.026 -95.211  1.00  0.00    -0.012 C 
HETATM   11  C17 UNL     1      50.345 -31.131 -94.130  1.00  0.00     0.005 C 
HETATM   12  C21 UNL     1      49.616 -32.460 -95.973  1.00  0.00     0.044 C 
HETATM   13  C18 UNL     1      48.870 -30.930 -94.096  1.00  0.00     0.003 C 
HETATM   14  C19 UNL     1      48.171 -30.682 -95.409  1.00  0.00     0.039 C 
HETATM   15  C20 UNL     1      48.996 -31.231 -96.533  1.00  0.00     0.130 C 
ENDBRANCH   2   3
ENDBRANCH   1   2
BRANCH   1  16
HETATM   16  C4  UNL     1      46.648 -29.214-100.043  1.00  0.00     0.002 C 
BRANCH  16  17
HETATM   17  C5  UNL     1      47.465 -28.176 -99.275  1.00  0.00     0.000 C 
BRANCH  17  18
HETATM   18  C6  UNL     1      46.510 -27.053 -98.946  1.00  0.00     0.000 C 
BRANCH  18  19
HETATM   19  C7  UNL     1      46.143 -27.026 -97.478  1.00  0.00     0.002 C 
BRANCH  19  20
HETATM   20  C8  UNL     1      47.441 -27.197 -96.716  1.00  0.00     0.032 C 
BRANCH  20  21
HETATM   21  C9  UNL     1      47.406 -26.540 -95.358  1.00  0.00     0.145 C 
HETATM   22  N2  UNL     1      46.363 -25.524 -95.409  1.00  0.00    -0.354 N 
HETATM   23  C10 UNL     1      46.957 -24.271 -95.671  1.00  0.00     0.189 C 
ATOM     24  H2  UNL     1      45.365 -25.691 -95.277  1.00  0.00     0.163 HD
HETATM   25  N3  UNL     1      46.332 -23.031 -96.021  1.00  0.00    -0.063 NA
HETATM   26  N4  UNL     1      48.259 -24.344 -95.558  1.00  0.00    -0.323 N 
HETATM   27  C11 UNL     1      48.616 -25.668 -95.208  1.00  0.00     0.102 C 
ATOM     28  H4  UNL     1      48.910 -23.572 -95.700  1.00  0.00     0.169 HD
HETATM   29  S1  UNL     1      50.111 -26.106 -94.728  1.00  0.00    -0.063 SA
ENDBRANCH  20  21
ENDBRANCH  19  20
ENDBRANCH  18  19
ENDBRANCH  17  18
ENDBRANCH  16  17
ENDBRANCH   1  16
TORSDOF 8
ENDMDL
MODEL 2
REMARK VINA RESULT: -8.120980160      3.880      6.382
REMARK  8 active torsions:
REMARK  status: ('A' for Active; 'I' for Inactive)
REMARK    1  A    between atoms: N1_2  and  C2_3 
REMARK    2  A    between atoms: C2_3  and  C3_4 
REMARK    3  A    between atoms: C3_4  and  C4_5 
REMARK    4  A    between atoms: C4_5  and  C5_6 
REMARK    5  A    between atoms: C5_6  and  C6_7 
REMARK    6  A    between atoms: C6_7  and  C7_8 
REMARK    7  A    between atoms: C7_8  and  C8_9 
REMARK    8  A    between atoms: C8_9  and  C9_10 
ROOT
HETATM    1  C3  UNL     1      47.890 -29.038 -96.027  1.00  0.00     0.028 C 
ENDROOT
BRANCH   1   2
HETATM    2  C2  UNL     1      47.837 -30.001 -97.142  1.00  0.00     0.238 C 
BRANCH   2   3
HETATM    3  N1  UNL     1      49.002 -30.309 -97.889  1.00  0.00    -0.062 N 
HETATM    4  C1  UNL     1      49.021 -29.684 -99.216  1.00  0.00     0.273 C 
HETATM    5  C12 UNL     1      50.180 -29.818 -97.211  1.00  0.00     0.238 C 
HETATM    6  C13 UNL     1      51.374 -30.706 -97.092  1.00  0.00     0.032 C 
HETATM    7  C14 UNL     1      51.121 -32.141 -96.819  1.00  0.00    -0.010 C 
HETATM    8  C15 UNL     1      51.579 -33.126 -97.840  1.00  0.00     0.009 C 
HETATM    9  C22 UNL     1      49.621 -32.255 -96.729  1.00  0.00     0.044 C 
HETATM   10  C16 UNL     1      50.665 -33.334 -98.982  1.00  0.00    -0.012 C 
HETATM   11  C17 UNL     1      49.572 -34.339 -98.828  1.00  0.00     0.005 C 
HETATM   12  C21 UNL     1      49.949 -32.021 -99.247  1.00  0.00     0.044 C 
HETATM   13  C18 UNL     1      48.184 -33.818 -98.972  1.00  0.00     0.003 C 
HETATM   14  C19 UNL     1      47.854 -32.518 -98.281  1.00  0.00     0.039 C 
HETATM   15  C20 UNL     1      49.110 -31.733 -98.054  1.00  0.00     0.130 C 
ENDBRANCH   2   3
ENDBRANCH   1   2
BRANCH   1  16
HETATM   16  C4  UNL     1      47.159 -29.407 -94.778  1.00  0.00     0.002 C 
BRANCH  16  17
HETATM   17  C5  UNL     1      47.737 -30.674 -94.149  1.00  0.00     0.000 C 
BRANCH  17  18
HETATM   18  C6  UNL     1      49.161 -30.339 -93.771  1.00  0.00     0.000 C 
BRANCH  18  19
HETATM   19  C7  UNL     1      49.830 -31.462 -93.008  1.00  0.00     0.002 C 
BRANCH  19  20
HETATM   20  C8  UNL     1      48.755 -32.076 -92.134  1.00  0.00     0.032 C 
BRANCH  20  21
HETATM   21  C9  UNL     1      48.892 -31.679 -90.685  1.00  0.00     0.145 C 
HETATM   22  N2  UNL     1      50.309 -31.770 -90.356  1.00  0.00    -0.354 N 
HETATM   23  C10 UNL     1      50.556 -33.012 -89.733  1.00  0.00     0.189 C 
ATOM     24  H2  UNL     1      51.008 -31.052 -90.546  1.00  0.00     0.163 HD
HETATM   25  N3  UNL     1      51.808 -33.637 -89.431  1.00  0.00    -0.063 NA
HETATM   26  N4  UNL     1      49.431 -33.606 -89.423  1.00  0.00    -0.323 N 
HETATM   27  C11 UNL     1      48.352 -32.783 -89.826  1.00  0.00     0.102 C 
ATOM     28  H4  UNL     1      49.346 -34.513 -88.965  1.00  0.00     0.169 HD
HETATM   29  S1  UNL     1      46.803 -33.045 -89.393  1.00  0.00    -0.063 SA
ENDBRANCH  20  21
ENDBRANCH  19  20
ENDBRANCH  18  19
ENDBRANCH  17  18
ENDBRANCH  16  17
ENDBRANCH   1  16
TORSDOF 8
ENDMDL
MODEL 3
REMARK VINA RESULT: -8.113179741      1.875      4.146
REMARK  8 active torsions:
REMARK  status: ('A' for Active; 'I' for Inactive)
REMARK    1  A    between atoms: N1_2  and  C2_3 
REMARK    2  A    between atoms: C2_3  and  C3_4 
REMARK    3  A    between atoms: C3_4  and  C4_5 
REMARK    4  A    between atoms: C4_5  and  C5_6 
REMARK    5  A    between atoms: C5_6  and  C6_7 
REMARK    6  A    between atoms: C6_7  and  C7_8 
REMARK    7  A    between atoms: C7_8  and  C8_9 
REMARK    8  A    between atoms: C8_9  and  C9_10 
ROOT
HETATM    1  C3  UNL     1      50.293 -31.509 -93.737  1.00  0.00     0.028 C 
ENDROOT
BRANCH   1   2
HETATM    2  C2  UNL     1      50.671 -30.858 -95.004  1.00  0.00     0.238 C 
BRANCH   2   3
HETATM    3  N1  UNL     1      50.878 -31.624 -96.179  1.00  0.00    -0.062 N 
HETATM    4  C1  UNL     1      52.296 -31.848 -96.483  1.00  0.00     0.273 C 
HETATM    5  C12 UNL     1      50.301 -32.941 -96.030  1.00  0.00     0.238 C 
HETATM    6  C13 UNL     1      49.486 -33.509 -97.143  1.00  0.00     0.032 C 
HETATM    7  C14 UNL     1      48.587 -32.575 -97.863  1.00  0.00    -0.010 C 
HETATM    8  C15 UNL     1      48.835 -32.365 -99.318  1.00  0.00     0.009 C 
HETATM    9  C22 UNL     1      48.787 -31.247 -97.179  1.00  0.00     0.044 C 
HETATM   10  C16 UNL     1      49.883 -31.379 -99.651  1.00  0.00    -0.012 C 
HETATM   11  C17 UNL     1      49.487 -29.942 -99.740  1.00  0.00     0.005 C 
HETATM   12  C21 UNL     1      50.929 -31.426 -98.551  1.00  0.00     0.044 C 
HETATM   13  C18 UNL     1      50.180 -29.018 -98.800  1.00  0.00     0.003 C 
HETATM   14  C19 UNL     1      50.338 -29.470 -97.370  1.00  0.00     0.039 C 
HETATM   15  C20 UNL     1      50.268 -30.966 -97.302  1.00  0.00     0.130 C 
ENDBRANCH   2   3
ENDBRANCH   1   2
BRANCH   1  16
HETATM   16  C4  UNL     1      49.075 -30.991 -93.046  1.00  0.00     0.002 C 
BRANCH  16  17
HETATM   17  C5  UNL     1      47.798 -31.464 -93.739  1.00  0.00     0.000 C 
BRANCH  17  18
HETATM   18  C6  UNL     1      46.991 -30.218 -94.020  1.00  0.00     0.000 C 
BRANCH  18  19
HETATM   19  C7  UNL     1      47.845 -29.093 -94.565  1.00  0.00     0.002 C 
BRANCH  19  20
HETATM   20  C8  UNL     1      46.957 -28.312 -95.513  1.00  0.00     0.032 C 
BRANCH  20  21
HETATM   21  C9  UNL     1      47.746 -27.425 -96.444  1.00  0.00     0.145 C 
HETATM   22  N2  UNL     1      47.965 -26.168 -95.742  1.00  0.00    -0.354 N 
HETATM   23  C10 UNL     1      46.991 -25.235 -96.156  1.00  0.00     0.189 C 
ATOM     24  H2  UNL     1      48.704 -25.990 -95.060  1.00  0.00     0.163 HD
HETATM   25  N3  UNL     1      46.670 -23.956 -95.597  1.00  0.00    -0.063 NA
HETATM   26  N4  UNL     1      46.338 -25.681 -97.199  1.00  0.00    -0.323 N 
HETATM   27  C11 UNL     1      46.845 -26.956 -97.547  1.00  0.00     0.102 C 
ATOM     28  H4  UNL     1      45.585 -25.191 -97.682  1.00  0.00     0.169 HD
HETATM   29  S1  UNL     1      46.475 -27.731 -98.933  1.00  0.00    -0.063 SA
ENDBRANCH  20  21
ENDBRANCH  19  20
ENDBRANCH  18  19
ENDBRANCH  17  18
ENDBRANCH  16  17
ENDBRANCH   1  16
TORSDOF 8
ENDMDL
MODEL 4
REMARK VINA RESULT: -8.062054994      4.591      7.116
REMARK  8 active torsions:
REMARK  status: ('A' for Active; 'I' for Inactive)
REMARK    1  A    between atoms: N1_2  and  C2_3 
REMARK    2  A    between atoms: C2_3  and  C3_4 
REMARK    3  A    between atoms: C3_4  and  C4_5 
REMARK    4  A    between atoms: C4_5  and  C5_6 
REMARK    5  A    between atoms: C5_6  and  C6_7 
REMARK    6  A    between atoms: C6_7  and  C7_8 
REMARK    7  A    between atoms: C7_8  and  C8_9 
REMARK    8  A    between atoms: C8_9  and  C9_10 
ROOT
HETATM    1  C3  UNL     1      47.836 -29.693 -94.940  1.00  0.00     0.028 C 
ENDROOT
BRANCH   1   2
HETATM    2  C2  UNL     1      47.800 -30.411 -96.226  1.00  0.00     0.238 C 
BRANCH   2   3
HETATM    3  N1  UNL     1      48.948 -30.469 -97.056  1.00  0.00    -0.062 N 
HETATM    4  C1  UNL     1      48.879 -29.560 -98.206  1.00  0.00     0.273 C 
HETATM    5  C12 UNL     1      50.125 -30.071 -96.317  1.00  0.00     0.238 C 
HETATM    6  C13 UNL     1      51.369 -30.886 -96.437  1.00  0.00     0.032 C 
HETATM    7  C14 UNL     1      51.206 -32.359 -96.491  1.00  0.00    -0.010 C 
HETATM    8  C15 UNL     1      51.674 -33.057 -97.722  1.00  0.00     0.009 C 
HETATM    9  C22 UNL     1      49.720 -32.583 -96.388  1.00  0.00     0.044 C 
HETATM   10  C16 UNL     1      50.727 -33.058 -98.856  1.00  0.00    -0.012 C 
HETATM   11  C17 UNL     1      49.698 -34.139 -98.905  1.00  0.00     0.005 C 
HETATM   12  C21 UNL     1      49.930 -31.767 -98.794  1.00  0.00     0.044 C 
HETATM   13  C18 UNL     1      48.279 -33.686 -98.887  1.00  0.00     0.003 C 
HETATM   14  C19 UNL     1      47.907 -32.599 -97.910  1.00  0.00     0.039 C 
HETATM   15  C20 UNL     1      49.127 -31.809 -97.544  1.00  0.00     0.130 C 
ENDBRANCH   2   3
ENDBRANCH   1   2
BRANCH   1  16
HETATM   16  C4  UNL     1      47.289 -30.409 -93.749  1.00  0.00     0.002 C 
BRANCH  16  17
HETATM   17  C5  UNL     1      47.916 -31.794 -93.596  1.00  0.00     0.000 C 
BRANCH  17  18
HETATM   18  C6  UNL     1      49.103 -31.616 -92.679  1.00  0.00     0.000 C 
BRANCH  18  19
HETATM   19  C7  UNL     1      48.834 -32.143 -91.286  1.00  0.00     0.002 C 
BRANCH  19  20
HETATM   20  C8  UNL     1      50.189 -32.292 -90.623  1.00  0.00     0.032 C 
BRANCH  20  21
HETATM   21  C9  UNL     1      50.354 -33.626 -89.938  1.00  0.00     0.145 C 
HETATM   22  N2  UNL     1      49.093 -33.913 -89.266  1.00  0.00    -0.354 N 
HETATM   23  C10 UNL     1      49.201 -33.537 -87.910  1.00  0.00     0.189 C 
ATOM     24  H2  UNL     1      48.267 -34.319 -89.705  1.00  0.00     0.163 HD
HETATM   25  N3  UNL     1      48.173 -33.426 -86.919  1.00  0.00    -0.063 NA
HETATM   26  N4  UNL     1      50.445 -33.269 -87.602  1.00  0.00    -0.323 N 
HETATM   27  C11 UNL     1      51.252 -33.455 -88.750  1.00  0.00     0.102 C 
ATOM     28  H4  UNL     1      50.778 -32.976 -86.684  1.00  0.00     0.169 HD
HETATM   29  S1  UNL     1      52.882 -33.470 -88.719  1.00  0.00    -0.063 SA
ENDBRANCH  20  21
ENDBRANCH  19  20
ENDBRANCH  18  19
ENDBRANCH  17  18
ENDBRANCH  16  17
ENDBRANCH   1  16
TORSDOF 8
ENDMDL
MODEL 5
REMARK VINA RESULT: -7.936745360      5.238      7.710
REMARK  8 active torsions:
REMARK  status: ('A' for Active; 'I' for Inactive)
REMARK    1  A    between atoms: N1_2  and  C2_3 
REMARK    2  A    between atoms: C2_3  and  C3_4 
REMARK    3  A    between atoms: C3_4  and  C4_5 
REMARK    4  A    between atoms: C4_5  and  C5_6 
REMARK    5  A    between atoms: C5_6  and  C6_7 
REMARK    6  A    between atoms: C6_7  and  C7_8 
REMARK    7  A    between atoms: C7_8  and  C8_9 
REMARK    8  A    between atoms: C8_9  and  C9_10 
ROOT
HETATM    1  C3  UNL     1      49.939 -32.266 -93.743  1.00  0.00     0.028 C 
ENDROOT
BRANCH   1   2
HETATM    2  C2  UNL     1      49.326 -32.049 -95.066  1.00  0.00     0.238 C 
BRANCH   2   3
HETATM    3  N1  UNL     1      50.132 -31.910 -96.224  1.00  0.00    -0.062 N 
HETATM    4  C1  UNL     1      51.568 -31.845 -95.928  1.00  0.00     0.273 C 
HETATM    5  C12 UNL     1      49.967 -33.054 -97.093  1.00  0.00     0.238 C 
HETATM    6  C13 UNL     1      49.779 -32.834 -98.557  1.00  0.00     0.032 C 
HETATM    7  C14 UNL     1      48.929 -31.689 -98.962  1.00  0.00    -0.010 C 
HETATM    8  C15 UNL     1      49.568 -30.611 -99.769  1.00  0.00     0.009 C 
HETATM    9  C22 UNL     1      48.480 -31.068 -97.664  1.00  0.00     0.044 C 
HETATM   10  C16 UNL     1      50.315 -29.595 -99.001  1.00  0.00    -0.012 C 
HETATM   11  C17 UNL     1      49.555 -28.429 -98.459  1.00  0.00     0.005 C 
HETATM   12  C21 UNL     1      50.901 -30.278 -97.778  1.00  0.00     0.044 C 
HETATM   13  C18 UNL     1      49.583 -28.266 -96.979  1.00  0.00     0.003 C 
HETATM   14  C19 UNL     1      49.389 -29.504 -96.139  1.00  0.00     0.039 C 
HETATM   15  C20 UNL     1      49.758 -30.719 -96.936  1.00  0.00     0.130 C 
ENDBRANCH   2   3
ENDBRANCH   1   2
BRANCH   1  16
HETATM   16  C4  UNL     1      49.467 -31.394 -92.627  1.00  0.00     0.002 C 
BRANCH  16  17
HETATM   17  C5  UNL     1      47.984 -31.617 -92.335  1.00  0.00     0.000 C 
BRANCH  17  18
HETATM   18  C6  UNL     1      47.820 -31.429 -90.845  1.00  0.00     0.000 C 
BRANCH  18  19
HETATM   19  C7  UNL     1      47.200 -32.640 -90.181  1.00  0.00     0.002 C 
BRANCH  19  20
HETATM   20  C8  UNL     1      47.679 -32.622 -88.743  1.00  0.00     0.032 C 
BRANCH  20  21
HETATM   21  C9  UNL     1      48.417 -33.882 -88.365  1.00  0.00     0.145 C 
HETATM   22  N2  UNL     1      48.359 -33.985 -86.913  1.00  0.00    -0.354 N 
HETATM   23  C10 UNL     1      49.557 -33.473 -86.368  1.00  0.00     0.189 C 
ATOM     24  H2  UNL     1      47.579 -34.365 -86.376  1.00  0.00     0.163 HD
HETATM   25  N3  UNL     1      49.870 -33.167 -85.005  1.00  0.00    -0.063 NA
HETATM   26  N4  UNL     1      50.447 -33.281 -87.309  1.00  0.00    -0.323 N 
HETATM   27  C11 UNL     1      49.888 -33.659 -88.553  1.00  0.00     0.102 C 
ATOM     28  H4  UNL     1      51.389 -32.918 -87.168  1.00  0.00     0.169 HD
HETATM   29  S1  UNL     1      50.754 -33.811 -89.926  1.00  0.00    -0.063 SA
ENDBRANCH  20  21
ENDBRANCH  19  20
ENDBRANCH  18  19
ENDBRANCH  17  18
ENDBRANCH  16  17
ENDBRANCH   1  16
TORSDOF 8
ENDMDL
