MODEL 1
REMARK VINA RESULT: -8.631641364      0.000      0.000
REMARK  8 active torsions:
REMARK  status: ('A' for Active; 'I' for Inactive)
REMARK    1  A    between atoms: C3_3  and  N1_4 
REMARK    2  A    between atoms: C3_3  and  C9_12 
REMARK       I    between atoms: N1_4  and  C4_6 
REMARK    3  A    between atoms: C4_6  and  C5_8 
REMARK    4  A    between atoms: C9_12  and  C12_15 
REMARK    5  A    between atoms: C12_15  and  N2_16 
REMARK    6  A    between atoms: N2_16  and  C13_19 
REMARK    7  A    between atoms: C13_19  and  C15_21 
REMARK    8  A    between atoms: C15_21  and  C16_22 
ROOT
HETATM    1  C1  UNL     1      47.146 -24.595 -95.625  1.00  0.00     0.099 C 
HETATM    2  C2  UNL     1      47.333 -25.739 -96.014  1.00  0.00    -0.162 C 
HETATM    3  C3  UNL     1      47.576 -27.108 -96.463  1.00  0.00     0.160 C 
ENDROOT
BRANCH   3   4
HETATM    4  N1  UNL     1      47.560 -27.969 -95.311  1.00  0.00    -0.346 N 
HETATM    5  C4  UNL     1      48.607 -28.887 -95.018  1.00  0.00     0.222 C 
HETATM    6  O1  UNL     1      49.576 -28.934 -95.811  1.00  0.00    -0.273 OA
ATOM      7  H1  UNL     1      46.763 -27.919 -94.677  1.00  0.00     0.163 HD
BRANCH   5   8
HETATM    8  C5  UNL     1      48.625 -29.785 -93.846  1.00  0.00     0.078 C 
HETATM    9  C6  UNL     1      47.847 -31.076 -93.997  1.00  0.00     0.014 C 
HETATM   10  C7  UNL     1      49.036 -31.770 -93.318  1.00  0.00     0.002 C 
HETATM   11  C8  UNL     1      49.894 -30.603 -93.802  1.00  0.00     0.014 C 
ENDBRANCH   5   8
ENDBRANCH   3   4
BRANCH   3  12
HETATM   12  C9  UNL     1      46.519 -27.465 -97.473  1.00  0.00     0.007 C 
HETATM   13  C10 UNL     1      46.281 -26.332 -98.415  1.00  0.00     0.019 C 
HETATM   14  C11 UNL     1      45.266 -27.905 -96.754  1.00  0.00     0.019 C 
BRANCH  12  15
HETATM   15  C12 UNL     1      46.979 -28.653 -98.330  1.00  0.00     0.244 C 
BRANCH  15  16
HETATM   16  N2  UNL     1      47.779 -28.239 -99.422  1.00  0.00    -0.070 N 
ATOM     17  H22 UNL     1      47.197 -27.946-100.207  1.00  0.00     0.277 HD
ATOM     18  H21 UNL     1      48.243 -27.353 -99.216  1.00  0.00     0.277 HD
BRANCH  16  19
HETATM   19  C13 UNL     1      48.768 -29.264 -99.853  1.00  0.00     0.182 C 
HETATM   20  C14 UNL     1      48.714 -29.371-101.354  1.00  0.00     0.040 C 
BRANCH  19  21
HETATM   21  C15 UNL     1      48.305 -30.522 -99.217  1.00  0.00     0.042 C 
BRANCH  21  22
HETATM   22  C16 UNL     1      49.274 -31.548 -98.788  1.00  0.00    -0.037 C 
HETATM   23  C17 UNL     1      48.814 -31.928 -97.353  1.00  0.00     0.014 C 
HETATM   24  C18 UNL     1      49.750 -32.878 -96.689  1.00  0.00    -0.013 C 
HETATM   25  C19 UNL     1      49.822 -34.134 -97.543  1.00  0.00     0.009 C 
HETATM   26  C23 UNL     1      51.110 -32.278 -96.520  1.00  0.00     0.009 C 
HETATM   27  C20 UNL     1      50.414 -33.728 -98.854  1.00  0.00    -0.013 C 
HETATM   28  C21 UNL     1      51.754 -33.045 -98.728  1.00  0.00     0.009 C 
HETATM   29  C25 UNL     1      49.405 -32.801 -99.553  1.00  0.00     0.014 C 
HETATM   30  C22 UNL     1      51.598 -31.817 -97.881  1.00  0.00    -0.013 C 
HETATM   31  C24 UNL     1      50.642 -30.882 -98.544  1.00  0.00     0.014 C 
ENDBRANCH  21  22
ENDBRANCH  19  21
ENDBRANCH  16  19
ENDBRANCH  15  16
ENDBRANCH  12  15
ENDBRANCH   3  12
TORSDOF 8
ENDMDL
MODEL 2
REMARK VINA RESULT: -8.584705889      1.664      5.305
REMARK  8 active torsions:
REMARK  status: ('A' for Active; 'I' for Inactive)
REMARK    1  A    between atoms: C3_3  and  N1_4 
REMARK    2  A    between atoms: C3_3  and  C9_12 
REMARK       I    between atoms: N1_4  and  C4_6 
REMARK    3  A    between atoms: C4_6  and  C5_8 
REMARK    4  A    between atoms: C9_12  and  C12_15 
REMARK    5  A    between atoms: C12_15  and  N2_16 
REMARK    6  A    between atoms: N2_16  and  C13_19 
REMARK    7  A    between atoms: C13_19  and  C15_21 
REMARK    8  A    between atoms: C15_21  and  C16_22 
ROOT
HETATM    1  C1  UNL     1      52.121 -31.064 -97.962  1.00  0.00     0.099 C 
HETATM    2  C2  UNL     1      51.162 -31.726 -97.594  1.00  0.00    -0.162 C 
HETATM    3  C3  UNL     1      50.025 -32.517 -97.129  1.00  0.00     0.160 C 
ENDROOT
BRANCH   3   4
HETATM    4  N1  UNL     1      49.359 -31.780 -96.089  1.00  0.00    -0.346 N 
HETATM    5  C4  UNL     1      49.721 -31.882 -94.716  1.00  0.00     0.222 C 
HETATM    6  O1  UNL     1      50.662 -32.655 -94.420  1.00  0.00    -0.273 OA
ATOM      7  H1  UNL     1      48.594 -31.157 -96.346  1.00  0.00     0.163 HD
BRANCH   5   8
HETATM    8  C5  UNL     1      49.061 -31.141 -93.622  1.00  0.00     0.078 C 
HETATM    9  C6  UNL     1      47.619 -31.517 -93.353  1.00  0.00     0.014 C 
HETATM   10  C7  UNL     1      47.974 -31.459 -91.860  1.00  0.00     0.002 C 
HETATM   11  C8  UNL     1      49.420 -31.720 -92.274  1.00  0.00     0.014 C 
ENDBRANCH   5   8
ENDBRANCH   3   4
BRANCH   3  12
HETATM   12  C9  UNL     1      49.134 -32.795 -98.309  1.00  0.00     0.007 C 
HETATM   13  C10 UNL     1      47.699 -32.801 -97.900  1.00  0.00     0.019 C 
HETATM   14  C11 UNL     1      49.563 -34.082 -98.970  1.00  0.00     0.019 C 
BRANCH  12  15
HETATM   15  C12 UNL     1      49.280 -31.685 -99.362  1.00  0.00     0.244 C 
BRANCH  15  16
HETATM   16  N2  UNL     1      48.149 -30.835 -99.394  1.00  0.00    -0.070 N 
ATOM     17  H22 UNL     1      47.405 -31.243 -99.960  1.00  0.00     0.277 HD
ATOM     18  H21 UNL     1      47.682 -30.819 -98.487  1.00  0.00     0.277 HD
BRANCH  16  19
HETATM   19  C13 UNL     1      48.461 -29.453 -99.850  1.00  0.00     0.182 C 
HETATM   20  C14 UNL     1      49.414 -29.544-101.012  1.00  0.00     0.040 C 
BRANCH  19  21
HETATM   21  C15 UNL     1      49.113 -28.810 -98.683  1.00  0.00     0.042 C 
BRANCH  21  22
HETATM   22  C16 UNL     1      48.306 -28.300 -97.559  1.00  0.00    -0.037 C 
HETATM   23  C17 UNL     1      47.245 -27.388 -98.234  1.00  0.00     0.014 C 
HETATM   24  C18 UNL     1      46.396 -26.672 -97.241  1.00  0.00    -0.013 C 
HETATM   25  C19 UNL     1      45.691 -27.717 -96.392  1.00  0.00     0.009 C 
HETATM   26  C23 UNL     1      47.211 -25.757 -96.383  1.00  0.00     0.009 C 
HETATM   27  C20 UNL     1      46.758 -28.458 -95.652  1.00  0.00    -0.013 C 
HETATM   28  C21 UNL     1      47.657 -27.566 -94.831  1.00  0.00     0.009 C 
HETATM   29  C25 UNL     1      47.582 -29.243 -96.686  1.00  0.00     0.014 C 
HETATM   30  C22 UNL     1      48.318 -26.572 -95.739  1.00  0.00    -0.013 C 
HETATM   31  C24 UNL     1      49.149 -27.300 -96.743  1.00  0.00     0.014 C 
ENDBRANCH  21  22
ENDBRANCH  19  21
ENDBRANCH  16  19
ENDBRANCH  15  16
ENDBRANCH  12  15
ENDBRANCH   3  12
TORSDOF 8
ENDMDL
MODEL 3
REMARK VINA RESULT: -8.581545580      0.691      1.557
REMARK  8 active torsions:
REMARK  status: ('A' for Active; 'I' for Inactive)
REMARK    1  A    between atoms: C3_3  and  N1_4 
REMARK    2  A    between atoms: C3_3  and  C9_12 
REMARK       I    between atoms: N1_4  and  C4_6 
REMARK    3  A    between atoms: C4_6  and  C5_8 
REMARK    4  A    between atoms: C9_12  and  C12_15 
REMARK    5  A    between atoms: C12_15  and  N2_16 
REMARK    6  A    between atoms: N2_16  and  C13_19 
REMARK    7  A    between atoms: C13_19  and  C15_21 
REMARK    8  A    between atoms: C15_21  and  C16_22 
ROOT
HETATM    1  C1  UNL     1      47.686 -25.778 -94.707  1.00  0.00     0.099 C 
HETATM    2  C2  UNL     1      47.668 -26.725 -95.481  1.00  0.00    -0.162 C 
HETATM    3  C3  UNL     1      47.666 -27.866 -96.393  1.00  0.00     0.160 C 
ENDROOT
BRANCH   3   4
HETATM    4  N1  UNL     1      47.521 -29.065 -95.613  1.00  0.00    -0.346 N 
HETATM    5  C4  UNL     1      48.614 -29.699 -94.959  1.00  0.00     0.222 C 
HETATM    6  O1  UNL     1      49.746 -29.175 -95.081  1.00  0.00    -0.273 OA
ATOM      7  H1  UNL     1      46.593 -29.480 -95.525  1.00  0.00     0.163 HD
BRANCH   5   8
HETATM    8  C5  UNL     1      48.503 -30.930 -94.150  1.00  0.00     0.078 C 
HETATM    9  C6  UNL     1      49.461 -31.035 -92.982  1.00  0.00     0.014 C 
HETATM   10  C7  UNL     1      48.272 -31.562 -92.167  1.00  0.00     0.002 C 
HETATM   11  C8  UNL     1      47.369 -30.831 -93.157  1.00  0.00     0.014 C 
ENDBRANCH   5   8
ENDBRANCH   3   4
BRANCH   3  12
HETATM   12  C9  UNL     1      46.548 -27.674 -97.381  1.00  0.00     0.007 C 
HETATM   13  C10 UNL     1      46.581 -26.299 -97.960  1.00  0.00     0.019 C 
HETATM   14  C11 UNL     1      45.231 -28.001 -96.720  1.00  0.00     0.019 C 
BRANCH  12  15
HETATM   15  C12 UNL     1      46.705 -28.645 -98.561  1.00  0.00     0.244 C 
BRANCH  15  16
HETATM   16  N2  UNL     1      47.747 -28.251 -99.435  1.00  0.00    -0.070 N 
ATOM     17  H22 UNL     1      47.368 -27.893-100.312  1.00  0.00     0.277 HD
ATOM     18  H21 UNL     1      48.206 -27.406 -99.093  1.00  0.00     0.277 HD
BRANCH  16  19
HETATM   19  C13 UNL     1      48.743 -29.326 -99.691  1.00  0.00     0.182 C 
HETATM   20  C14 UNL     1      48.961 -29.424-101.177  1.00  0.00     0.040 C 
BRANCH  19  21
HETATM   21  C15 UNL     1      48.105 -30.560 -99.169  1.00  0.00     0.042 C 
BRANCH  21  22
HETATM   22  C16 UNL     1      48.915 -31.611 -98.526  1.00  0.00    -0.037 C 
HETATM   23  C17 UNL     1      50.223 -30.881 -98.110  1.00  0.00     0.014 C 
HETATM   24  C18 UNL     1      51.238 -31.813 -97.542  1.00  0.00    -0.013 C 
HETATM   25  C19 UNL     1      50.626 -32.480 -96.321  1.00  0.00     0.009 C 
HETATM   26  C23 UNL     1      51.661 -32.838 -98.546  1.00  0.00     0.009 C 
HETATM   27  C20 UNL     1      49.466 -33.287 -96.810  1.00  0.00    -0.013 C 
HETATM   28  C21 UNL     1      49.831 -34.284 -97.883  1.00  0.00     0.009 C 
HETATM   29  C25 UNL     1      48.402 -32.306 -97.331  1.00  0.00     0.014 C 
HETATM   30  C22 UNL     1      50.420 -33.549 -99.051  1.00  0.00    -0.013 C 
HETATM   31  C24 UNL     1      49.403 -32.604 -99.598  1.00  0.00     0.014 C 
ENDBRANCH  21  22
ENDBRANCH  19  21
ENDBRANCH  16  19
ENDBRANCH  15  16
ENDBRANCH  12  15
ENDBRANCH   3  12
TORSDOF 8
ENDMDL
MODEL 4
REMARK VINA RESULT: -8.576114954      1.452      4.146
REMARK  8 active torsions:
REMARK  status: ('A' for Active; 'I' for Inactive)
REMARK    1  A    between atoms: C3_3  and  N1_4 
REMARK    2  A    between atoms: C3_3  and  C9_12 
REMARK       I    between atoms: N1_4  and  C4_6 
REMARK    3  A    between atoms: C4_6  and  C5_8 
REMARK    4  A    between atoms: C9_12  and  C12_15 
REMARK    5  A    between atoms: C12_15  and  N2_16 
REMARK    6  A    between atoms: N2_16  and  C13_19 
REMARK    7  A    between atoms: C13_19  and  C15_21 
REMARK    8  A    between atoms: C15_21  and  C16_22 
ROOT
HETATM    1  C1  UNL     1      46.943 -24.285 -95.586  1.00  0.00     0.099 C 
HETATM    2  C2  UNL     1      47.229 -25.456 -95.791  1.00  0.00    -0.162 C 
HETATM    3  C3  UNL     1      47.548 -26.858 -96.049  1.00  0.00     0.160 C 
ENDROOT
BRANCH   3   4
HETATM    4  N1  UNL     1      47.586 -27.056 -97.473  1.00  0.00    -0.346 N 
HETATM    5  C4  UNL     1      46.808 -28.047 -98.136  1.00  0.00     0.222 C 
HETATM    6  O1  UNL     1      46.066 -28.769 -97.432  1.00  0.00    -0.273 OA
ATOM      7  H1  UNL     1      48.197 -26.461 -98.031  1.00  0.00     0.163 HD
BRANCH   5   8
HETATM    8  C5  UNL     1      46.821 -28.278 -99.595  1.00  0.00     0.078 C 
HETATM    9  C6  UNL     1      48.165 -28.649-100.188  1.00  0.00     0.014 C 
HETATM   10  C7  UNL     1      47.411 -29.699-101.016  1.00  0.00     0.002 C 
HETATM   11  C8  UNL     1      46.335 -29.666 -99.933  1.00  0.00     0.014 C 
ENDBRANCH   5   8
ENDBRANCH   3   4
BRANCH   3  12
HETATM   12  C9  UNL     1      48.860 -27.170 -95.381  1.00  0.00     0.007 C 
HETATM   13  C10 UNL     1      49.269 -26.062 -94.470  1.00  0.00     0.019 C 
HETATM   14  C11 UNL     1      49.898 -27.480 -96.433  1.00  0.00     0.019 C 
BRANCH  12  15
HETATM   15  C12 UNL     1      48.728 -28.426 -94.506  1.00  0.00     0.244 C 
BRANCH  15  16
HETATM   16  N2  UNL     1      47.591 -29.196 -94.854  1.00  0.00    -0.070 N 
ATOM     17  H22 UNL     1      46.772 -28.891 -94.329  1.00  0.00     0.277 HD
ATOM     18  H21 UNL     1      47.278 -28.972 -95.799  1.00  0.00     0.277 HD
BRANCH  16  19
HETATM   19  C13 UNL     1      47.801 -30.661 -94.701  1.00  0.00     0.182 C 
HETATM   20  C14 UNL     1      47.692 -31.003 -93.239  1.00  0.00     0.040 C 
BRANCH  19  21
HETATM   21  C15 UNL     1      49.179 -30.897 -95.196  1.00  0.00     0.042 C 
BRANCH  21  22
HETATM   22  C16 UNL     1      49.409 -31.493 -96.525  1.00  0.00    -0.037 C 
HETATM   23  C17 UNL     1      49.679 -32.994 -96.228  1.00  0.00     0.014 C 
HETATM   24  C18 UNL     1      50.059 -33.756 -97.450  1.00  0.00    -0.013 C 
HETATM   25  C19 UNL     1      48.916 -33.641 -98.445  1.00  0.00     0.009 C 
HETATM   26  C23 UNL     1      51.330 -33.238 -98.046  1.00  0.00     0.009 C 
HETATM   27  C20 UNL     1      48.807 -32.194 -98.807  1.00  0.00    -0.013 C 
HETATM   28  C21 UNL     1      50.090 -31.605 -99.340  1.00  0.00     0.009 C 
HETATM   29  C25 UNL     1      48.350 -31.433 -97.550  1.00  0.00     0.014 C 
HETATM   30  C22 UNL     1      51.163 -31.752 -98.302  1.00  0.00    -0.013 C 
HETATM   31  C24 UNL     1      50.763 -31.003 -97.074  1.00  0.00     0.014 C 
ENDBRANCH  21  22
ENDBRANCH  19  21
ENDBRANCH  16  19
ENDBRANCH  15  16
ENDBRANCH  12  15
ENDBRANCH   3  12
TORSDOF 8
ENDMDL
MODEL 5
REMARK VINA RESULT: -8.559554559      1.684      5.336
REMARK  8 active torsions:
REMARK  status: ('A' for Active; 'I' for Inactive)
REMARK    1  A    between atoms: C3_3  and  N1_4 
REMARK    2  A    between atoms: C3_3  and  C9_12 
REMARK       I    between atoms: N1_4  and  C4_6 
REMARK    3  A    between atoms: C4_6  and  C5_8 
REMARK    4  A    between atoms: C9_12  and  C12_15 
REMARK    5  A    between atoms: C12_15  and  N2_16 
REMARK    6  A    between atoms: N2_16  and  C13_19 
REMARK    7  A    between atoms: C13_19  and  C15_21 
REMARK    8  A    between atoms: C15_21  and  C16_22 
ROOT
HETATM    1  C1  UNL     1      52.086 -31.151 -97.797  1.00  0.00     0.099 C 
HETATM    2  C2  UNL     1      51.114 -31.802 -97.442  1.00  0.00    -0.162 C 
HETATM    3  C3  UNL     1      49.962 -32.580 -96.994  1.00  0.00     0.160 C 
ENDROOT
BRANCH   3   4
HETATM    4  N1  UNL     1      49.290 -31.835 -95.963  1.00  0.00    -0.346 N 
HETATM    5  C4  UNL     1      49.636 -31.933 -94.586  1.00  0.00     0.222 C 
HETATM    6  O1  UNL     1      50.570 -32.710 -94.278  1.00  0.00    -0.273 OA
ATOM      7  H1  UNL     1      48.531 -31.208 -96.231  1.00  0.00     0.163 HD
BRANCH   5   8
HETATM    8  C5  UNL     1      48.969 -31.184 -93.503  1.00  0.00     0.078 C 
HETATM    9  C6  UNL     1      47.533 -31.574 -93.224  1.00  0.00     0.014 C 
HETATM   10  C7  UNL     1      47.890 -31.488 -91.734  1.00  0.00     0.002 C 
HETATM   11  C8  UNL     1      49.339 -31.736 -92.147  1.00  0.00     0.014 C 
ENDBRANCH   5   8
ENDBRANCH   3   4
BRANCH   3  12
HETATM   12  C9  UNL     1      49.085 -32.848 -98.186  1.00  0.00     0.007 C 
HETATM   13  C10 UNL     1      47.643 -32.822 -97.801  1.00  0.00     0.019 C 
HETATM   14  C11 UNL     1      49.497 -34.150 -98.830  1.00  0.00     0.019 C 
BRANCH  12  15
HETATM   15  C12 UNL     1      49.272 -31.751 -99.245  1.00  0.00     0.244 C 
BRANCH  15  16
HETATM   16  N2  UNL     1      48.134 -30.914 -99.345  1.00  0.00    -0.070 N 
ATOM     17  H22 UNL     1      47.434 -31.327 -99.961  1.00  0.00     0.277 HD
ATOM     18  H21 UNL     1      47.609 -30.910 -98.470  1.00  0.00     0.277 HD
BRANCH  16  19
HETATM   19  C13 UNL     1      48.458 -29.526 -99.772  1.00  0.00     0.182 C 
HETATM   20  C14 UNL     1      49.347 -29.600-100.984  1.00  0.00     0.040 C 
BRANCH  19  21
HETATM   21  C15 UNL     1      49.185 -28.938 -98.619  1.00  0.00     0.042 C 
BRANCH  21  22
HETATM   22  C16 UNL     1      48.466 -28.157 -97.597  1.00  0.00    -0.037 C 
HETATM   23  C17 UNL     1      47.712 -29.227 -96.760  1.00  0.00     0.014 C 
HETATM   24  C18 UNL     1      46.817 -28.620 -95.735  1.00  0.00    -0.013 C 
HETATM   25  C19 UNL     1      47.675 -27.774 -94.809  1.00  0.00     0.009 C 
HETATM   26  C23 UNL     1      45.745 -27.789 -96.366  1.00  0.00     0.009 C 
HETATM   27  C20 UNL     1      48.249 -26.674 -95.644  1.00  0.00    -0.013 C 
HETATM   28  C21 UNL     1      47.208 -25.854 -96.365  1.00  0.00     0.009 C 
HETATM   29  C25 UNL     1      49.220 -27.313 -96.652  1.00  0.00     0.014 C 
HETATM   30  C22 UNL     1      46.410 -26.757 -97.259  1.00  0.00    -0.013 C 
HETATM   31  C24 UNL     1      47.319 -27.376 -98.268  1.00  0.00     0.014 C 
ENDBRANCH  21  22
ENDBRANCH  19  21
ENDBRANCH  16  19
ENDBRANCH  15  16
ENDBRANCH  12  15
ENDBRANCH   3  12
TORSDOF 8
ENDMDL
