MODEL 1
REMARK VINA RESULT: -7.879443889      0.000      0.000
REMARK  10 active torsions:
REMARK  status: ('A' for Active; 'I' for Inactive)
REMARK    1  A    between atoms: C2_2  and  C3_3 
REMARK    2  A    between atoms: C3_3  and  C4_4 
REMARK    3  A    between atoms: C4_4  and  N1_5 
REMARK    4  A    between atoms: N1_5  and  C5_7 
REMARK    5  A    between atoms: C5_7  and  C6_8 
REMARK    6  A    between atoms: C6_8  and  C7_9 
REMARK    7  A    between atoms: C7_9  and  N2_10 
REMARK    8  A    between atoms: N2_10  and  C8_11 
REMARK    9  A    between atoms: N2_10  and  C10_16 
REMARK   10  A    between atoms: C8_11  and  N3_13 
ROOT
HETATM    1  N2  UNL     1      47.403 -27.360 -95.663  1.00  0.00    -0.353 N 
ENDROOT
BRANCH   1   2
HETATM    2  C7  UNL     1      46.212 -27.415 -96.493  1.00  0.00     0.131 C 
BRANCH   2   3
HETATM    3  C6  UNL     1      46.382 -26.778 -97.844  1.00  0.00     0.064 C 
BRANCH   3   4
HETATM    4  C5  UNL     1      46.863 -27.696 -98.927  1.00  0.00     0.057 C 
BRANCH   4   5
HETATM    5  N1  UNL     1      46.443 -29.030 -98.877  1.00  0.00    -0.402 N 
ATOM      6  H1  UNL     1      45.752 -29.327 -98.187  1.00  0.00     0.158 HD
BRANCH   5   7
HETATM    7  C4  UNL     1      46.986 -29.966 -99.792  1.00  0.00     0.118 C 
BRANCH   7   8
HETATM    8  C3  UNL     1      47.796 -29.260-100.889  1.00  0.00     0.019 C 
BRANCH   8   9
HETATM    9  C2  UNL     1      49.202 -29.783-100.843  1.00  0.00    -0.003 C 
HETATM   10  C1  UNL     1      50.177 -28.694-100.403  1.00  0.00     0.005 C 
ENDBRANCH   8   9
ENDBRANCH   7   8
ENDBRANCH   5   7
ENDBRANCH   4   5
ENDBRANCH   3   4
ENDBRANCH   2   3
ENDBRANCH   1   2
BRANCH   1  11
HETATM   11  C8  UNL     1      47.868 -26.124 -95.158  1.00  0.00     0.169 C 
HETATM   12  S1  UNL     1      49.508 -26.061 -94.812  1.00  0.00    -0.041 SA
BRANCH  11  13
HETATM   13  N3  UNL     1      47.084 -24.987 -94.862  1.00  0.00    -0.371 N 
HETATM   14  C9  UNL     1      47.038 -23.904 -95.852  1.00  0.00     0.148 C 
ATOM     15  H3  UNL     1      46.565 -24.920 -93.987  1.00  0.00     0.161 HD
ENDBRANCH  11  13
ENDBRANCH   1  11
BRANCH   1  16
HETATM   16  C10 UNL     1      48.193 -28.542 -95.380  1.00  0.00     0.087 C 
HETATM   17  C11 UNL     1      49.471 -28.591 -96.235  1.00  0.00     0.031 C 
HETATM   18  C12 UNL     1      49.438 -29.864 -97.029  1.00  0.00     0.001 C 
HETATM   19  C13 UNL     1      50.781 -30.601 -96.947  1.00  0.00    -0.005 C 
HETATM   20  C20 UNL     1      48.553 -30.709 -96.156  1.00  0.00    -0.034 C 
HETATM   21  C14 UNL     1      51.172 -31.056 -98.319  1.00  0.00     0.006 C 
HETATM   22  C22 UNL     1      50.505 -31.813 -96.054  1.00  0.00    -0.005 C 
HETATM   23  C15 UNL     1      51.339 -32.571 -98.375  1.00  0.00     0.005 C 
HETATM   24  C16 UNL     1      50.020 -33.270 -98.037  1.00  0.00    -0.014 C 
HETATM   25  C17 UNL     1      50.376 -34.739 -97.857  1.00  0.00     0.010 C 
HETATM   26  C18 UNL     1      49.536 -32.773 -96.712  1.00  0.00    -0.006 C 
HETATM   27  C19 UNL     1      48.214 -32.012 -96.792  1.00  0.00     0.015 C 
HETATM   28  C21 UNL     1      49.539 -31.143 -95.066  1.00  0.00     0.015 C 
HETATM   29  C23 UNL     1      47.484 -29.844 -95.661  1.00  0.00     0.035 C 
ENDBRANCH   1  16
TORSDOF 10
ENDMDL
MODEL 2
REMARK VINA RESULT: -7.846393047      2.286      4.137
REMARK  10 active torsions:
REMARK  status: ('A' for Active; 'I' for Inactive)
REMARK    1  A    between atoms: C2_2  and  C3_3 
REMARK    2  A    between atoms: C3_3  and  C4_4 
REMARK    3  A    between atoms: C4_4  and  N1_5 
REMARK    4  A    between atoms: N1_5  and  C5_7 
REMARK    5  A    between atoms: C5_7  and  C6_8 
REMARK    6  A    between atoms: C6_8  and  C7_9 
REMARK    7  A    between atoms: C7_9  and  N2_10 
REMARK    8  A    between atoms: N2_10  and  C8_11 
REMARK    9  A    between atoms: N2_10  and  C10_16 
REMARK   10  A    between atoms: C8_11  and  N3_13 
ROOT
HETATM    1  N2  UNL     1      47.873 -28.127 -97.171  1.00  0.00    -0.353 N 
ENDROOT
BRANCH   1   2
HETATM    2  C7  UNL     1      47.475 -27.985 -98.560  1.00  0.00     0.131 C 
BRANCH   2   3
HETATM    3  C6  UNL     1      47.765 -29.196 -99.402  1.00  0.00     0.064 C 
BRANCH   3   4
HETATM    4  C5  UNL     1      49.141 -29.247 -99.995  1.00  0.00     0.057 C 
BRANCH   4   5
HETATM    5  N1  UNL     1      50.020 -30.219 -99.504  1.00  0.00    -0.402 N 
ATOM      6  H1  UNL     1      51.002 -29.992 -99.344  1.00  0.00     0.158 HD
BRANCH   5   7
HETATM    7  C4  UNL     1      49.535 -31.523 -99.232  1.00  0.00     0.118 C 
BRANCH   7   8
HETATM    8  C3  UNL     1      50.566 -32.341 -98.440  1.00  0.00     0.019 C 
BRANCH   8   9
HETATM    9  C2  UNL     1      51.711 -31.438 -98.087  1.00  0.00    -0.003 C 
HETATM   10  C1  UNL     1      52.290 -31.795 -96.721  1.00  0.00     0.005 C 
ENDBRANCH   8   9
ENDBRANCH   7   8
ENDBRANCH   5   7
ENDBRANCH   4   5
ENDBRANCH   3   4
ENDBRANCH   2   3
ENDBRANCH   1   2
BRANCH   1  11
HETATM   11  C8  UNL     1      48.215 -26.989 -96.403  1.00  0.00     0.169 C 
HETATM   12  S1  UNL     1      46.978 -25.880 -96.173  1.00  0.00    -0.041 SA
BRANCH  11  13
HETATM   13  N3  UNL     1      49.490 -26.678 -95.882  1.00  0.00    -0.371 N 
HETATM   14  C9  UNL     1      49.557 -25.879 -94.653  1.00  0.00     0.148 C 
ATOM     15  H3  UNL     1      50.340 -26.999 -96.346  1.00  0.00     0.161 HD
ENDBRANCH  11  13
ENDBRANCH   1  11
BRANCH   1  16
HETATM   16  C10 UNL     1      48.003 -29.426 -96.541  1.00  0.00     0.087 C 
HETATM   17  C11 UNL     1      47.066 -29.567 -95.328  1.00  0.00     0.031 C 
HETATM   18  C12 UNL     1      47.918 -29.865 -94.129  1.00  0.00     0.001 C 
HETATM   19  C13 UNL     1      47.343 -31.036 -93.321  1.00  0.00    -0.005 C 
HETATM   20  C20 UNL     1      49.116 -30.488 -94.791  1.00  0.00    -0.034 C 
HETATM   21  C14 UNL     1      47.363 -30.682 -91.867  1.00  0.00     0.006 C 
HETATM   22  C22 UNL     1      48.301 -32.200 -93.589  1.00  0.00    -0.005 C 
HETATM   23  C15 UNL     1      48.195 -31.677 -91.064  1.00  0.00     0.005 C 
HETATM   24  C16 UNL     1      49.649 -31.671 -91.541  1.00  0.00    -0.014 C 
HETATM   25  C17 UNL     1      50.299 -32.874 -90.871  1.00  0.00     0.010 C 
HETATM   26  C18 UNL     1      49.675 -31.925 -93.014  1.00  0.00    -0.006 C 
HETATM   27  C19 UNL     1      50.218 -30.751 -93.827  1.00  0.00     0.015 C 
HETATM   28  C21 UNL     1      48.599 -31.905 -95.066  1.00  0.00     0.015 C 
HETATM   29  C23 UNL     1      49.382 -29.721 -96.007  1.00  0.00     0.035 C 
ENDBRANCH   1  16
TORSDOF 10
ENDMDL
MODEL 3
REMARK VINA RESULT: -7.557314306      3.483      7.358
REMARK  10 active torsions:
REMARK  status: ('A' for Active; 'I' for Inactive)
REMARK    1  A    between atoms: C2_2  and  C3_3 
REMARK    2  A    between atoms: C3_3  and  C4_4 
REMARK    3  A    between atoms: C4_4  and  N1_5 
REMARK    4  A    between atoms: N1_5  and  C5_7 
REMARK    5  A    between atoms: C5_7  and  C6_8 
REMARK    6  A    between atoms: C6_8  and  C7_9 
REMARK    7  A    between atoms: C7_9  and  N2_10 
REMARK    8  A    between atoms: N2_10  and  C8_11 
REMARK    9  A    between atoms: N2_10  and  C10_16 
REMARK   10  A    between atoms: C8_11  and  N3_13 
ROOT
HETATM    1  N2  UNL     1      49.438 -32.303 -96.932  1.00  0.00    -0.353 N 
ENDROOT
BRANCH   1   2
HETATM    2  C7  UNL     1      49.024 -32.849 -95.651  1.00  0.00     0.131 C 
BRANCH   2   3
HETATM    3  C6  UNL     1      49.856 -32.378 -94.492  1.00  0.00     0.064 C 
BRANCH   3   4
HETATM    4  C5  UNL     1      49.142 -31.502 -93.507  1.00  0.00     0.057 C 
BRANCH   4   5
HETATM    5  N1  UNL     1      49.844 -31.113 -92.360  1.00  0.00    -0.402 N 
ATOM      6  H1  UNL     1      50.607 -30.438 -92.428  1.00  0.00     0.158 HD
BRANCH   5   7
HETATM    7  C4  UNL     1      49.487 -31.664 -91.104  1.00  0.00     0.118 C 
BRANCH   7   8
HETATM    8  C3  UNL     1      47.972 -31.897 -91.014  1.00  0.00     0.019 C 
BRANCH   8   9
HETATM    9  C2  UNL     1      47.639 -32.270 -89.598  1.00  0.00    -0.003 C 
HETATM   10  C1  UNL     1      46.601 -33.388 -89.556  1.00  0.00     0.005 C 
ENDBRANCH   8   9
ENDBRANCH   7   8
ENDBRANCH   5   7
ENDBRANCH   4   5
ENDBRANCH   3   4
ENDBRANCH   2   3
ENDBRANCH   1   2
BRANCH   1  11
HETATM   11  C8  UNL     1      50.320 -33.026 -97.769  1.00  0.00     0.169 C 
HETATM   12  S1  UNL     1      49.582 -33.970 -98.943  1.00  0.00    -0.041 SA
BRANCH  11  13
HETATM   13  N3  UNL     1      51.727 -33.076 -97.666  1.00  0.00    -0.371 N 
HETATM   14  C9  UNL     1      52.385 -32.140 -96.746  1.00  0.00     0.148 C 
ATOM     15  H3  UNL     1      52.271 -33.742 -98.214  1.00  0.00     0.161 HD
ENDBRANCH  11  13
ENDBRANCH   1  11
BRANCH   1  16
HETATM   16  C10 UNL     1      49.028 -30.983 -97.369  1.00  0.00     0.087 C 
HETATM   17  C11 UNL     1      50.036 -29.902 -96.940  1.00  0.00     0.031 C 
HETATM   18  C12 UNL     1      49.300 -28.903 -96.097  1.00  0.00     0.001 C 
HETATM   19  C13 UNL     1      49.619 -27.468 -96.537  1.00  0.00    -0.005 C 
HETATM   20  C20 UNL     1      47.898 -29.092 -96.607  1.00  0.00    -0.034 C 
HETATM   21  C14 UNL     1      49.891 -26.634 -95.323  1.00  0.00     0.006 C 
HETATM   22  C22 UNL     1      48.342 -26.982 -97.229  1.00  0.00    -0.005 C 
HETATM   23  C15 UNL     1      48.923 -25.459 -95.228  1.00  0.00     0.005 C 
HETATM   24  C16 UNL     1      47.481 -25.958 -95.107  1.00  0.00    -0.014 C 
HETATM   25  C17 UNL     1      46.609 -24.725 -95.296  1.00  0.00     0.010 C 
HETATM   26  C18 UNL     1      47.191 -26.878 -96.250  1.00  0.00    -0.006 C 
HETATM   27  C19 UNL     1      46.903 -28.315 -95.820  1.00  0.00     0.015 C 
HETATM   28  C21 UNL     1      47.949 -28.297 -97.917  1.00  0.00     0.015 C 
HETATM   29  C23 UNL     1      47.704 -30.528 -96.807  1.00  0.00     0.035 C 
ENDBRANCH   1  16
TORSDOF 10
ENDMDL
MODEL 4
REMARK VINA RESULT: -7.437257397      2.614      5.793
REMARK  10 active torsions:
REMARK  status: ('A' for Active; 'I' for Inactive)
REMARK    1  A    between atoms: C2_2  and  C3_3 
REMARK    2  A    between atoms: C3_3  and  C4_4 
REMARK    3  A    between atoms: C4_4  and  N1_5 
REMARK    4  A    between atoms: N1_5  and  C5_7 
REMARK    5  A    between atoms: C5_7  and  C6_8 
REMARK    6  A    between atoms: C6_8  and  C7_9 
REMARK    7  A    between atoms: C7_9  and  N2_10 
REMARK    8  A    between atoms: N2_10  and  C8_11 
REMARK    9  A    between atoms: N2_10  and  C10_16 
REMARK   10  A    between atoms: C8_11  and  N3_13 
ROOT
HETATM    1  N2  UNL     1      49.147 -31.955 -95.015  1.00  0.00    -0.353 N 
ENDROOT
BRANCH   1   2
HETATM    2  C7  UNL     1      49.462 -33.255 -95.582  1.00  0.00     0.131 C 
BRANCH   2   3
HETATM    3  C6  UNL     1      49.155 -33.370 -97.048  1.00  0.00     0.064 C 
BRANCH   3   4
HETATM    4  C5  UNL     1      50.332 -33.670 -97.926  1.00  0.00     0.057 C 
BRANCH   4   5
HETATM    5  N1  UNL     1      50.687 -32.711 -98.882  1.00  0.00    -0.402 N 
ATOM      6  H1  UNL     1      50.401 -32.824 -99.855  1.00  0.00     0.158 HD
BRANCH   5   7
HETATM    7  C4  UNL     1      51.447 -31.583 -98.487  1.00  0.00     0.118 C 
BRANCH   7   8
HETATM    8  C3  UNL     1      50.771 -30.277 -98.930  1.00  0.00     0.019 C 
BRANCH   8   9
HETATM    9  C2  UNL     1      49.599 -30.629 -99.800  1.00  0.00    -0.003 C 
HETATM   10  C1  UNL     1      49.345 -29.544-100.842  1.00  0.00     0.005 C 
ENDBRANCH   8   9
ENDBRANCH   7   8
ENDBRANCH   5   7
ENDBRANCH   4   5
ENDBRANCH   3   4
ENDBRANCH   2   3
ENDBRANCH   1   2
BRANCH   1  11
HETATM   11  C8  UNL     1      48.879 -31.821 -93.633  1.00  0.00     0.169 C 
HETATM   12  S1  UNL     1      50.149 -32.221 -92.613  1.00  0.00    -0.041 SA
BRANCH  11  13
HETATM   13  N3  UNL     1      47.647 -31.454 -93.047  1.00  0.00    -0.371 N 
HETATM   14  C9  UNL     1      47.597 -31.294 -91.589  1.00  0.00     0.148 C 
ATOM     15  H3  UNL     1      46.817 -31.304 -93.620  1.00  0.00     0.161 HD
ENDBRANCH  11  13
ENDBRANCH   1  11
BRANCH   1  16
HETATM   16  C10 UNL     1      49.029 -30.770 -95.841  1.00  0.00     0.087 C 
HETATM   17  C11 UNL     1      49.953 -29.641 -95.353  1.00  0.00     0.031 C 
HETATM   18  C12 UNL     1      49.093 -28.452 -95.040  1.00  0.00     0.001 C 
HETATM   19  C13 UNL     1      49.675 -27.172 -95.654  1.00  0.00    -0.005 C 
HETATM   20  C20 UNL     1      47.911 -28.727 -95.929  1.00  0.00    -0.034 C 
HETATM   21  C14 UNL     1      49.633 -26.078 -94.632  1.00  0.00     0.006 C 
HETATM   22  C22 UNL     1      48.736 -26.838 -96.816  1.00  0.00    -0.005 C 
HETATM   23  C15 UNL     1      48.806 -24.893 -95.121  1.00  0.00     0.005 C 
HETATM   24  C16 UNL     1      47.357 -25.316 -95.376  1.00  0.00    -0.014 C 
HETATM   25  C17 UNL     1      46.716 -24.145 -96.107  1.00  0.00     0.010 C 
HETATM   26  C18 UNL     1      47.351 -26.476 -96.319  1.00  0.00    -0.006 C 
HETATM   27  C19 UNL     1      46.801 -27.761 -95.704  1.00  0.00     0.015 C 
HETATM   28  C21 UNL     1      48.451 -28.270 -97.289  1.00  0.00     0.015 C 
HETATM   29  C23 UNL     1      47.648 -30.164 -95.861  1.00  0.00     0.035 C 
ENDBRANCH   1  16
TORSDOF 10
ENDMDL
MODEL 5
REMARK VINA RESULT: -7.427202812      3.454      7.460
REMARK  10 active torsions:
REMARK  status: ('A' for Active; 'I' for Inactive)
REMARK    1  A    between atoms: C2_2  and  C3_3 
REMARK    2  A    between atoms: C3_3  and  C4_4 
REMARK    3  A    between atoms: C4_4  and  N1_5 
REMARK    4  A    between atoms: N1_5  and  C5_7 
REMARK    5  A    between atoms: C5_7  and  C6_8 
REMARK    6  A    between atoms: C6_8  and  C7_9 
REMARK    7  A    between atoms: C7_9  and  N2_10 
REMARK    8  A    between atoms: N2_10  and  C8_11 
REMARK    9  A    between atoms: N2_10  and  C10_16 
REMARK   10  A    between atoms: C8_11  and  N3_13 
ROOT
HETATM    1  N2  UNL     1      49.486 -32.234 -96.600  1.00  0.00    -0.353 N 
ENDROOT
BRANCH   1   2
HETATM    2  C7  UNL     1      49.176 -32.648 -95.243  1.00  0.00     0.131 C 
BRANCH   2   3
HETATM    3  C6  UNL     1      50.254 -32.324 -94.247  1.00  0.00     0.064 C 
BRANCH   3   4
HETATM    4  C5  UNL     1      49.887 -31.295 -93.221  1.00  0.00     0.057 C 
BRANCH   4   5
HETATM    5  N1  UNL     1      49.357 -31.752 -92.008  1.00  0.00    -0.402 N 
ATOM      6  H1  UNL     1      49.975 -32.115 -91.281  1.00  0.00     0.158 HD
BRANCH   5   7
HETATM    7  C4  UNL     1      47.956 -31.706 -91.798  1.00  0.00     0.118 C 
BRANCH   7   8
HETATM    8  C3  UNL     1      47.626 -31.567 -90.305  1.00  0.00     0.019 C 
BRANCH   8   9
HETATM    9  C2  UNL     1      47.100 -32.885 -89.816  1.00  0.00    -0.003 C 
HETATM   10  C1  UNL     1      47.423 -33.090 -88.339  1.00  0.00     0.005 C 
ENDBRANCH   8   9
ENDBRANCH   7   8
ENDBRANCH   5   7
ENDBRANCH   4   5
ENDBRANCH   3   4
ENDBRANCH   2   3
ENDBRANCH   1   2
BRANCH   1  11
HETATM   11  C8  UNL     1      50.237 -33.075 -97.453  1.00  0.00     0.169 C 
HETATM   12  S1  UNL     1      51.830 -32.609 -97.699  1.00  0.00    -0.041 SA
BRANCH  11  13
HETATM   13  N3  UNL     1      49.761 -34.205 -98.153  1.00  0.00    -0.371 N 
HETATM   14  C9  UNL     1      48.757 -33.995 -99.202  1.00  0.00     0.148 C 
ATOM     15  H3  UNL     1      50.105 -35.140 -97.936  1.00  0.00     0.161 HD
ENDBRANCH  11  13
ENDBRANCH   1  11
BRANCH   1  16
HETATM   16  C10 UNL     1      49.104 -30.930 -97.107  1.00  0.00     0.087 C 
HETATM   17  C11 UNL     1      50.089 -29.835 -96.663  1.00  0.00     0.031 C 
HETATM   18  C12 UNL     1      49.310 -28.805 -95.899  1.00  0.00     0.001 C 
HETATM   19  C13 UNL     1      49.657 -27.387 -96.372  1.00  0.00    -0.005 C 
HETATM   20  C20 UNL     1      47.939 -29.012 -96.479  1.00  0.00    -0.034 C 
HETATM   21  C14 UNL     1      49.863 -26.510 -95.177  1.00  0.00     0.006 C 
HETATM   22  C22 UNL     1      48.422 -26.926 -97.152  1.00  0.00    -0.005 C 
HETATM   23  C15 UNL     1      48.894 -25.331 -95.178  1.00  0.00     0.005 C 
HETATM   24  C16 UNL     1      47.446 -25.825 -95.120  1.00  0.00    -0.014 C 
HETATM   25  C17 UNL     1      46.590 -24.599 -95.403  1.00  0.00     0.010 C 
HETATM   26  C18 UNL     1      47.218 -26.785 -96.243  1.00  0.00    -0.006 C 
HETATM   27  C19 UNL     1      46.903 -28.206 -95.778  1.00  0.00     0.015 C 
HETATM   28  C21 UNL     1      48.065 -28.265 -97.812  1.00  0.00     0.015 C 
HETATM   29  C23 UNL     1      47.752 -30.454 -96.637  1.00  0.00     0.035 C 
ENDBRANCH   1  16
TORSDOF 10
ENDMDL
