MODEL 1
REMARK VINA RESULT: -7.355957206      0.000      0.000
REMARK  7 active torsions:
REMARK  status: ('A' for Active; 'I' for Inactive)
REMARK    1  A    between atoms: C2_2  and  C3_3 
REMARK    2  A    between atoms: C3_3  and  N1_4 
REMARK    3  A    between atoms: N1_4  and  C4_6 
REMARK    4  A    between atoms: N3_10  and  C6_12 
REMARK    5  A    between atoms: C6_12  and  C7_13 
REMARK    6  A    between atoms: C14_23  and  S2_24 
REMARK    7  A    between atoms: S2_24  and  N5_25 
ROOT
HETATM    1  C4  UNL     1       7.976  37.952  54.974  1.00  0.00     0.117 A 
HETATM    2  N2  UNL     1       8.639  36.785  54.781  1.00  0.00    -0.322 N 
ATOM      3  H2  UNL     1       8.292  36.203  54.019  1.00  0.00     0.169 HD
HETATM    4  C5  UNL     1       9.667  36.299  55.441  1.00  0.00     0.148 A 
HETATM    5  N3  UNL     1      10.235  35.172  55.183  1.00  0.00    -0.370 N 
ATOM      6  H3  UNL     1      11.030  34.868  55.745  1.00  0.00     0.161 HD
HETATM    7  S1  UNL     1      10.222  37.286  56.702  1.00  0.00    -0.035 SA
HETATM    8  C11 UNL     1       9.309  38.728  56.850  1.00  0.00     0.093 A 
HETATM    9  N4  UNL     1       9.381  39.777  57.681  1.00  0.00    -0.349 N 
ATOM     10  H4  UNL     1      10.061  39.892  58.433  1.00  0.00     0.166 HD
HETATM   11  C12 UNL     1       8.417  40.647  57.363  1.00  0.00     0.047 A 
HETATM   12  C13 UNL     1       8.066  41.866  57.903  1.00  0.00     0.055 A 
HETATM   13  C14 UNL     1       7.020  42.609  57.411  1.00  0.00     0.083 A 
HETATM   14  C15 UNL     1       6.343  42.085  56.363  1.00  0.00     0.050 A 
HETATM   15  C16 UNL     1       6.643  40.853  55.768  1.00  0.00     0.049 A 
HETATM   16 CL1  UNL     1       5.661  40.344  54.431  1.00  0.00    -0.083 Cl
HETATM   17  C17 UNL     1       7.688  40.124  56.267  1.00  0.00     0.029 A 
HETATM   18  C18 UNL     1       8.262  38.882  55.932  1.00  0.00     0.056 A 
ENDROOT
BRANCH   5  19
HETATM   19  C6  UNL     1       9.760  34.329  54.104  1.00  0.00     0.130 C 
BRANCH  19  20
HETATM   20  C7  UNL     1      10.560  33.063  53.977  1.00  0.00    -0.035 C 
HETATM   21  C8  UNL     1      10.599  32.555  52.549  1.00  0.00     0.016 C 
HETATM   22  C9  UNL     1      11.982  33.367  54.402  1.00  0.00     0.016 C 
HETATM   23  C10 UNL     1      10.012  31.975  54.850  1.00  0.00     0.016 C 
ENDBRANCH  19  20
ENDBRANCH   5  19
BRANCH   1  24
HETATM   24  N1  UNL     1       7.013  38.102  54.135  1.00  0.00    -0.372 N 
ATOM     25  H1  UNL     1       6.635  39.044  54.042  1.00  0.00     0.161 HD
BRANCH  24  26
HETATM   26  C3  UNL     1       6.409  37.084  53.312  1.00  0.00     0.147 C 
BRANCH  26  27
HETATM   27  C2  UNL     1       4.990  36.931  53.662  1.00  0.00    -0.018 C 
HETATM   28  C1  UNL     1       4.552  36.892  54.934  1.00  0.00     0.008 C 
ENDBRANCH  26  27
ENDBRANCH  24  26
ENDBRANCH   1  24
BRANCH  13  29
HETATM   29  S2  UNL     1       6.639  44.128  58.138  1.00  0.00     0.256 S 
HETATM   30  O1  UNL     1       6.551  43.989  59.646  1.00  0.00    -0.201 OA
HETATM   31  O2  UNL     1       5.283  44.627  57.695  1.00  0.00    -0.201 OA
BRANCH  29  32
HETATM   32  N5  UNL     1       7.790  45.354  57.769  1.00  0.00    -0.324 N 
ATOM     33  H52 UNL     1       8.286  45.394  56.878  1.00  0.00     0.169 HD
ATOM     34  H51 UNL     1       7.916  46.021  58.530  1.00  0.00     0.169 HD
ENDBRANCH  29  32
ENDBRANCH  13  29
TORSDOF 7
ENDMDL
MODEL 2
REMARK VINA RESULT: -7.121295936      3.723      5.445
REMARK  7 active torsions:
REMARK  status: ('A' for Active; 'I' for Inactive)
REMARK    1  A    between atoms: C2_2  and  C3_3 
REMARK    2  A    between atoms: C3_3  and  N1_4 
REMARK    3  A    between atoms: N1_4  and  C4_6 
REMARK    4  A    between atoms: N3_10  and  C6_12 
REMARK    5  A    between atoms: C6_12  and  C7_13 
REMARK    6  A    between atoms: C14_23  and  S2_24 
REMARK    7  A    between atoms: S2_24  and  N5_25 
ROOT
HETATM    1  C4  UNL     1       6.660  40.486  56.703  1.00  0.00     0.117 A 
HETATM    2  N2  UNL     1       6.209  39.912  55.560  1.00  0.00    -0.322 N 
ATOM      3  H2  UNL     1       6.248  38.893  55.536  1.00  0.00     0.169 HD
HETATM    4  C5  UNL     1       5.730  40.486  54.480  1.00  0.00     0.148 A 
HETATM    5  N3  UNL     1       5.322  39.851  53.435  1.00  0.00    -0.370 N 
ATOM      6  H3  UNL     1       4.963  40.375  52.637  1.00  0.00     0.161 HD
HETATM    7  S1  UNL     1       5.679  42.178  54.547  1.00  0.00    -0.035 SA
HETATM    8  C11 UNL     1       6.273  42.788  56.033  1.00  0.00     0.093 A 
HETATM    9  N4  UNL     1       6.419  44.028  56.522  1.00  0.00    -0.349 N 
ATOM     10  H4  UNL     1       6.175  44.890  56.035  1.00  0.00     0.166 HD
HETATM   11  C12 UNL     1       6.938  43.949  57.752  1.00  0.00     0.047 A 
HETATM   12  C13 UNL     1       7.278  44.920  58.669  1.00  0.00     0.055 A 
HETATM   13  C14 UNL     1       7.806  44.611  59.899  1.00  0.00     0.083 A 
HETATM   14  C15 UNL     1       7.981  43.297  60.171  1.00  0.00     0.050 A 
HETATM   15  C16 UNL     1       7.661  42.260  59.288  1.00  0.00     0.049 A 
HETATM   16 CL1  UNL     1       7.957  40.633  59.813  1.00  0.00    -0.083 Cl
HETATM   17  C17 UNL     1       7.134  42.582  58.066  1.00  0.00     0.029 A 
HETATM   18  C18 UNL     1       6.705  41.828  56.957  1.00  0.00     0.056 A 
ENDROOT
BRANCH   5  19
HETATM   19  C6  UNL     1       5.366  38.405  53.379  1.00  0.00     0.130 C 
BRANCH  19  20
HETATM   20  C7  UNL     1       5.022  37.878  52.014  1.00  0.00    -0.035 C 
HETATM   21  C8  UNL     1       3.611  37.327  51.954  1.00  0.00     0.016 C 
HETATM   22  C9  UNL     1       5.114  39.030  51.034  1.00  0.00     0.016 C 
HETATM   23  C10 UNL     1       5.968  36.797  51.585  1.00  0.00     0.016 C 
ENDBRANCH  19  20
ENDBRANCH   5  19
BRANCH   1  24
HETATM   24  N1  UNL     1       7.059  39.611  57.557  1.00  0.00    -0.372 N 
ATOM     25  H1  UNL     1       6.909  39.835  58.540  1.00  0.00     0.161 HD
BRANCH  24  26
HETATM   26  C3  UNL     1       7.694  38.349  57.276  1.00  0.00     0.147 C 
BRANCH  26  27
HETATM   27  C2  UNL     1       9.152  38.524  57.206  1.00  0.00    -0.018 C 
HETATM   28  C1  UNL     1      10.011  37.488  57.187  1.00  0.00     0.008 C 
ENDBRANCH  26  27
ENDBRANCH  24  26
ENDBRANCH   1  24
BRANCH  13  29
HETATM   29  S2  UNL     1       8.207  45.882  60.997  1.00  0.00     0.256 S 
HETATM   30  O1  UNL     1       8.317  47.205  60.262  1.00  0.00    -0.201 OA
HETATM   31  O2  UNL     1       9.560  45.655  61.632  1.00  0.00    -0.201 OA
BRANCH  29  32
HETATM   32  N5  UNL     1       7.059  46.056  62.267  1.00  0.00    -0.324 N 
ATOM     33  H52 UNL     1       6.057  46.145  62.097  1.00  0.00     0.169 HD
ATOM     34  H51 UNL     1       7.489  46.059  63.192  1.00  0.00     0.169 HD
ENDBRANCH  29  32
ENDBRANCH  13  29
TORSDOF 7
ENDMDL
MODEL 3
REMARK VINA RESULT: -6.878903255      3.626      5.290
REMARK  7 active torsions:
REMARK  status: ('A' for Active; 'I' for Inactive)
REMARK    1  A    between atoms: C2_2  and  C3_3 
REMARK    2  A    between atoms: C3_3  and  N1_4 
REMARK    3  A    between atoms: N1_4  and  C4_6 
REMARK    4  A    between atoms: N3_10  and  C6_12 
REMARK    5  A    between atoms: C6_12  and  C7_13 
REMARK    6  A    between atoms: C14_23  and  S2_24 
REMARK    7  A    between atoms: S2_24  and  N5_25 
ROOT
HETATM    1  C4  UNL     1       6.788  40.252  56.307  1.00  0.00     0.117 A 
HETATM    2  N2  UNL     1       6.373  39.651  55.165  1.00  0.00    -0.322 N 
ATOM      3  H2  UNL     1       6.474  38.637  55.140  1.00  0.00     0.169 HD
HETATM    4  C5  UNL     1       5.858  40.195  54.084  1.00  0.00     0.148 A 
HETATM    5  N3  UNL     1       5.490  39.537  53.040  1.00  0.00    -0.370 N 
ATOM      6  H3  UNL     1       5.099  40.038  52.242  1.00  0.00     0.161 HD
HETATM    7  S1  UNL     1       5.702  41.881  54.153  1.00  0.00    -0.035 SA
HETATM    8  C11 UNL     1       6.258  42.526  55.639  1.00  0.00     0.093 A 
HETATM    9  N4  UNL     1       6.327  43.772  56.128  1.00  0.00    -0.349 N 
ATOM     10  H4  UNL     1       6.029  44.618  55.641  1.00  0.00     0.166 HD
HETATM   11  C12 UNL     1       6.851  43.725  57.357  1.00  0.00     0.047 A 
HETATM   12  C13 UNL     1       7.130  44.715  58.275  1.00  0.00     0.055 A 
HETATM   13  C14 UNL     1       7.678  44.439  59.505  1.00  0.00     0.083 A 
HETATM   14  C15 UNL     1       7.934  43.139  59.776  1.00  0.00     0.050 A 
HETATM   15  C16 UNL     1       7.678  42.083  58.892  1.00  0.00     0.049 A 
HETATM   16 CL1  UNL     1       8.075  40.478  59.416  1.00  0.00    -0.083 Cl
HETATM   17  C17 UNL     1       7.131  42.373  57.671  1.00  0.00     0.029 A 
HETATM   18  C18 UNL     1       6.750  41.594  56.562  1.00  0.00     0.056 A 
ENDROOT
BRANCH   5  19
HETATM   19  C6  UNL     1       5.623  38.096  52.983  1.00  0.00     0.130 C 
BRANCH  19  20
HETATM   20  C7  UNL     1       4.292  37.399  53.022  1.00  0.00    -0.035 C 
HETATM   21  C8  UNL     1       3.185  38.252  52.437  1.00  0.00     0.016 C 
HETATM   22  C9  UNL     1       4.402  36.140  52.185  1.00  0.00     0.016 C 
HETATM   23  C10 UNL     1       3.907  37.022  54.421  1.00  0.00     0.016 C 
ENDBRANCH  19  20
ENDBRANCH   5  19
BRANCH   1  24
HETATM   24  N1  UNL     1       7.241  39.403  57.160  1.00  0.00    -0.372 N 
ATOM     25  H1  UNL     1       7.249  39.700  58.136  1.00  0.00     0.161 HD
BRANCH  24  26
HETATM   26  C3  UNL     1       7.738  38.078  56.889  1.00  0.00     0.147 C 
BRANCH  26  27
HETATM   27  C2  UNL     1       9.011  37.865  57.593  1.00  0.00    -0.018 C 
HETATM   28  C1  UNL     1      10.194  37.793  56.955  1.00  0.00     0.008 C 
ENDBRANCH  26  27
ENDBRANCH  24  26
ENDBRANCH   1  24
BRANCH  13  29
HETATM   29  S2  UNL     1       7.999  45.732  60.602  1.00  0.00     0.256 S 
HETATM   30  O1  UNL     1       7.991  47.063  59.875  1.00  0.00    -0.201 OA
HETATM   31  O2  UNL     1       9.378  45.609  61.210  1.00  0.00    -0.201 OA
BRANCH  29  32
HETATM   32  N5  UNL     1       6.866  45.809  61.896  1.00  0.00    -0.324 N 
ATOM     33  H52 UNL     1       7.150  45.882  62.873  1.00  0.00     0.169 HD
ATOM     34  H51 UNL     1       5.898  45.773  61.577  1.00  0.00     0.169 HD
ENDBRANCH  29  32
ENDBRANCH  13  29
TORSDOF 7
ENDMDL
MODEL 4
REMARK VINA RESULT: -6.642450122      3.022      4.470
REMARK  7 active torsions:
REMARK  status: ('A' for Active; 'I' for Inactive)
REMARK    1  A    between atoms: C2_2  and  C3_3 
REMARK    2  A    between atoms: C3_3  and  N1_4 
REMARK    3  A    between atoms: N1_4  and  C4_6 
REMARK    4  A    between atoms: N3_10  and  C6_12 
REMARK    5  A    between atoms: C6_12  and  C7_13 
REMARK    6  A    between atoms: C14_23  and  S2_24 
REMARK    7  A    between atoms: S2_24  and  N5_25 
ROOT
HETATM    1  C4  UNL     1       7.092  39.480  55.045  1.00  0.00     0.117 A 
HETATM    2  N2  UNL     1       6.630  38.733  54.011  1.00  0.00    -0.322 N 
ATOM      3  H2  UNL     1       7.154  37.880  53.817  1.00  0.00     0.169 HD
HETATM    4  C5  UNL     1       5.600  38.956  53.225  1.00  0.00     0.148 A 
HETATM    5  N3  UNL     1       5.235  38.182  52.262  1.00  0.00    -0.370 N 
ATOM      6  H3  UNL     1       4.422  38.430  51.698  1.00  0.00     0.161 HD
HETATM    7  S1  UNL     1       4.749  40.380  53.570  1.00  0.00    -0.035 SA
HETATM    8  C11 UNL     1       5.422  41.238  54.891  1.00  0.00     0.093 A 
HETATM    9  N4  UNL     1       5.093  42.384  55.503  1.00  0.00    -0.349 N 
ATOM     10  H4  UNL     1       4.309  42.986  55.252  1.00  0.00     0.166 HD
HETATM   11  C12 UNL     1       5.961  42.608  56.495  1.00  0.00     0.047 A 
HETATM   12  C13 UNL     1       6.062  43.633  57.412  1.00  0.00     0.055 A 
HETATM   13  C14 UNL     1       7.051  43.665  58.366  1.00  0.00     0.083 A 
HETATM   14  C15 UNL     1       7.929  42.636  58.364  1.00  0.00     0.050 A 
HETATM   15  C16 UNL     1       7.887  41.565  57.463  1.00  0.00     0.049 A 
HETATM   16 CL1  UNL     1       9.101  40.335  57.614  1.00  0.00    -0.083 Cl
HETATM   17  C17 UNL     1       6.896  41.545  56.519  1.00  0.00     0.029 A 
HETATM   18  C18 UNL     1       6.552  40.657  55.482  1.00  0.00     0.056 A 
ENDROOT
BRANCH   5  19
HETATM   19  C6  UNL     1       5.964  36.965  51.968  1.00  0.00     0.130 C 
BRANCH  19  20
HETATM   20  C7  UNL     1       5.153  35.733  52.255  1.00  0.00    -0.035 C 
HETATM   21  C8  UNL     1       3.666  35.979  52.093  1.00  0.00     0.016 C 
HETATM   22  C9  UNL     1       5.560  34.666  51.258  1.00  0.00     0.016 C 
HETATM   23  C10 UNL     1       5.397  35.222  53.642  1.00  0.00     0.016 C 
ENDBRANCH  19  20
ENDBRANCH   5  19
BRANCH   1  24
HETATM   24  N1  UNL     1       8.128  38.953  55.593  1.00  0.00    -0.372 N 
ATOM     25  H1  UNL     1       8.306  39.207  56.565  1.00  0.00     0.161 HD
BRANCH  24  26
HETATM   26  C3  UNL     1       9.066  38.043  54.986  1.00  0.00     0.147 C 
BRANCH  26  27
HETATM   27  C2  UNL     1       9.437  36.990  55.943  1.00  0.00    -0.018 C 
HETATM   28  C1  UNL     1      10.256  37.210  56.987  1.00  0.00     0.008 C 
ENDBRANCH  26  27
ENDBRANCH  24  26
ENDBRANCH   1  24
BRANCH  13  29
HETATM   29  S2  UNL     1       7.114  44.980  59.481  1.00  0.00     0.256 S 
HETATM   30  O1  UNL     1       8.514  45.133  60.047  1.00  0.00    -0.201 OA
HETATM   31  O2  UNL     1       6.218  44.736  60.674  1.00  0.00    -0.201 OA
BRANCH  29  32
HETATM   32  N5  UNL     1       6.644  46.479  58.777  1.00  0.00    -0.324 N 
ATOM     33  H52 UNL     1       6.003  46.539  57.985  1.00  0.00     0.169 HD
ATOM     34  H51 UNL     1       7.072  47.284  59.234  1.00  0.00     0.169 HD
ENDBRANCH  29  32
ENDBRANCH  13  29
TORSDOF 7
ENDMDL
MODEL 5
REMARK VINA RESULT: -6.589588952      4.390      6.586
REMARK  7 active torsions:
REMARK  status: ('A' for Active; 'I' for Inactive)
REMARK    1  A    between atoms: C2_2  and  C3_3 
REMARK    2  A    between atoms: C3_3  and  N1_4 
REMARK    3  A    between atoms: N1_4  and  C4_6 
REMARK    4  A    between atoms: N3_10  and  C6_12 
REMARK    5  A    between atoms: C6_12  and  C7_13 
REMARK    6  A    between atoms: C14_23  and  S2_24 
REMARK    7  A    between atoms: S2_24  and  N5_25 
ROOT
HETATM    1  C4  UNL     1       5.257  39.931  58.823  1.00  0.00     0.117 A 
HETATM    2  N2  UNL     1       4.437  38.888  59.108  1.00  0.00    -0.322 N 
ATOM      3  H2  UNL     1       4.440  38.129  58.427  1.00  0.00     0.169 HD
HETATM    4  C5  UNL     1       3.640  38.721  60.139  1.00  0.00     0.148 A 
HETATM    5  N3  UNL     1       2.894  37.688  60.326  1.00  0.00    -0.370 N 
ATOM      6  H3  UNL     1       2.303  37.637  61.156  1.00  0.00     0.161 HD
HETATM    7  S1  UNL     1       3.656  39.998  61.253  1.00  0.00    -0.035 SA
HETATM    8  C11 UNL     1       4.724  41.254  60.788  1.00  0.00     0.093 A 
HETATM    9  N4  UNL     1       5.054  42.428  61.344  1.00  0.00    -0.349 N 
ATOM     10  H4  UNL     1       4.683  42.795  62.220  1.00  0.00     0.166 HD
HETATM   11  C12 UNL     1       5.950  43.039  60.561  1.00  0.00     0.047 A 
HETATM   12  C13 UNL     1       6.597  44.251  60.679  1.00  0.00     0.055 A 
HETATM   13  C14 UNL     1       7.498  44.693  59.740  1.00  0.00     0.083 A 
HETATM   14  C15 UNL     1       7.722  43.878  58.684  1.00  0.00     0.050 A 
HETATM   15  C16 UNL     1       7.099  42.637  58.499  1.00  0.00     0.049 A 
HETATM   16 CL1  UNL     1       7.514  41.731  57.080  1.00  0.00    -0.083 Cl
HETATM   17  C17 UNL     1       6.205  42.209  59.443  1.00  0.00     0.029 A 
HETATM   18  C18 UNL     1       5.414  41.053  59.586  1.00  0.00     0.056 A 
ENDROOT
BRANCH   5  19
HETATM   19  C6  UNL     1       2.882  36.596  59.374  1.00  0.00     0.130 C 
BRANCH  19  20
HETATM   20  C7  UNL     1       2.451  35.300  59.999  1.00  0.00    -0.035 C 
HETATM   21  C8  UNL     1       3.392  34.860  61.104  1.00  0.00     0.016 C 
HETATM   22  C9  UNL     1       1.081  35.511  60.612  1.00  0.00     0.016 C 
HETATM   23  C10 UNL     1       2.367  34.199  58.986  1.00  0.00     0.016 C 
ENDBRANCH  19  20
ENDBRANCH   5  19
BRANCH   1  24
HETATM   24  N1  UNL     1       5.895  39.753  57.720  1.00  0.00    -0.372 N 
ATOM     25  H1  UNL     1       5.863  40.521  57.049  1.00  0.00     0.161 HD
BRANCH  24  26
HETATM   26  C3  UNL     1       6.649  38.590  57.329  1.00  0.00     0.147 C 
BRANCH  26  27
HETATM   27  C2  UNL     1       7.927  38.551  58.055  1.00  0.00    -0.018 C 
HETATM   28  C1  UNL     1       9.027  37.953  57.563  1.00  0.00     0.008 C 
ENDBRANCH  26  27
ENDBRANCH  24  26
ENDBRANCH   1  24
BRANCH  13  29
HETATM   29  S2  UNL     1       8.270  46.222  59.955  1.00  0.00     0.256 S 
HETATM   30  O1  UNL     1       7.675  47.256  59.017  1.00  0.00    -0.201 OA
HETATM   31  O2  UNL     1       9.739  46.152  59.606  1.00  0.00    -0.201 OA
BRANCH  29  32
HETATM   32  N5  UNL     1       8.147  46.812  61.567  1.00  0.00    -0.324 N 
ATOM     33  H52 UNL     1       8.952  47.154  62.092  1.00  0.00     0.169 HD
ATOM     34  H51 UNL     1       7.194  46.781  61.930  1.00  0.00     0.169 HD
ENDBRANCH  29  32
ENDBRANCH  13  29
TORSDOF 7
ENDMDL
