MODEL 1
REMARK VINA RESULT: -8.041998758      0.000      0.000
REMARK  7 active torsions:
REMARK  status: ('A' for Active; 'I' for Inactive)
REMARK    1  A    between atoms: C2_2  and  C3_3 
REMARK    2  A    between atoms: N1_6  and  C6_7 
REMARK    3  A    between atoms: C9_11  and  O1_12 
REMARK    4  A    between atoms: C10_14  and  O2_16 
REMARK    5  A    between atoms: O2_16  and  C12_17 
REMARK    6  A    between atoms: C14_19  and  O3_20 
REMARK    7  A    between atoms: C16_23  and  O4_24 
ROOT
HETATM    1  C6  UNL     1       5.679  44.407  59.768  1.00  0.00     0.090 C 
HETATM    2  C7  UNL     1       6.653  45.118  60.297  1.00  0.00    -0.041 C 
HETATM    3  C8  UNL     1       7.889  45.610  59.634  1.00  0.00     0.120 C 
HETATM    4 BR1  UNL     1       7.501  46.928  58.271  1.00  0.00    -0.084 Br
HETATM    5  C9  UNL     1       8.694  46.256  60.771  1.00  0.00     0.172 C 
HETATM    6  C10 UNL     1       8.192  45.484  61.969  1.00  0.00     0.098 C 
HETATM    7  C11 UNL     1       8.626  44.046  61.781  1.00  0.00     0.050 C 
HETATM    8  C19 UNL     1       6.691  45.568  61.737  1.00  0.00     0.050 C 
HETATM    9  C20 UNL     1       5.919  44.626  62.603  1.00  0.00     0.018 C 
ENDROOT
BRANCH   6  10
HETATM   10  O2  UNL     1       8.590  45.988  63.203  1.00  0.00    -0.337 OA
BRANCH  10  11
HETATM   11  C12 UNL     1       9.428  45.232  64.009  1.00  0.00     0.075 A 
HETATM   12  C13 UNL     1       8.834  44.591  65.102  1.00  0.00     0.073 A 
HETATM   13  C14 UNL     1       9.652  43.838  65.911  1.00  0.00     0.070 A 
HETATM   14  C15 UNL     1      11.001  43.695  65.690  1.00  0.00     0.073 A 
HETATM   15  C16 UNL     1      11.600  44.319  64.619  1.00  0.00     0.073 A 
HETATM   16  C18 UNL     1      10.781  45.086  63.791  1.00  0.00     0.073 A 
BRANCH  13  17
HETATM   17  O3  UNL     1       9.048  43.201  67.000  1.00  0.00    -0.361 OA
ATOM     18  H3  UNL     1       8.653  42.353  66.835  1.00  0.00     0.217 HD
ENDBRANCH  13  17
BRANCH  15  19
HETATM   19  O4  UNL     1      12.940  44.224  64.334  1.00  0.00    -0.356 OA
HETATM   20  C17 UNL     1      13.810  43.802  65.391  1.00  0.00     0.210 C 
ENDBRANCH  15  19
ENDBRANCH  10  11
ENDBRANCH   6  10
BRANCH   5  21
HETATM   21  O1  UNL     1       8.232  47.588  60.806  1.00  0.00    -0.391 OA
ATOM     22  H1  UNL     1       8.557  47.967  59.998  1.00  0.00     0.210 HD
ENDBRANCH   5  21
BRANCH   1  23
HETATM   23  N1  UNL     1       5.635  43.968  58.417  1.00  0.00    -0.389 N 
HETATM   24  C5  UNL     1       4.604  44.270  57.450  1.00  0.00     0.122 C 
HETATM   25  C4  UNL     1       4.629  43.042  56.566  1.00  0.00     0.026 C 
HETATM   26  C3  UNL     1       6.109  42.786  56.422  1.00  0.00     0.005 C 
HETATM   27  C21 UNL     1       6.642  43.144  57.786  1.00  0.00     0.126 C 
BRANCH  26  28
HETATM   28  C2  UNL     1       6.347  41.347  56.054  1.00  0.00     0.002 C 
HETATM   29  C1  UNL     1       7.513  40.784  56.827  1.00  0.00     0.005 C 
ENDBRANCH  26  28
ENDBRANCH   1  23
TORSDOF 7
ENDMDL
MODEL 2
REMARK VINA RESULT: -7.957326991      0.740      1.330
REMARK  7 active torsions:
REMARK  status: ('A' for Active; 'I' for Inactive)
REMARK    1  A    between atoms: C2_2  and  C3_3 
REMARK    2  A    between atoms: N1_6  and  C6_7 
REMARK    3  A    between atoms: C9_11  and  O1_12 
REMARK    4  A    between atoms: C10_14  and  O2_16 
REMARK    5  A    between atoms: O2_16  and  C12_17 
REMARK    6  A    between atoms: C14_19  and  O3_20 
REMARK    7  A    between atoms: C16_23  and  O4_24 
ROOT
HETATM    1  C6  UNL     1       5.448  44.316  59.825  1.00  0.00     0.090 C 
HETATM    2  C7  UNL     1       6.479  44.981  60.305  1.00  0.00    -0.041 C 
HETATM    3  C8  UNL     1       7.756  45.307  59.620  1.00  0.00     0.120 C 
HETATM    4 BR1  UNL     1       7.493  46.536  58.149  1.00  0.00    -0.084 Br
HETATM    5  C9  UNL     1       8.609  45.971  60.710  1.00  0.00     0.172 C 
HETATM    6  C10 UNL     1       8.035  45.348  61.960  1.00  0.00     0.098 C 
HETATM    7  C11 UNL     1       8.342  43.866  61.896  1.00  0.00     0.050 C 
HETATM    8  C19 UNL     1       6.549  45.543  61.704  1.00  0.00     0.050 C 
HETATM    9  C20 UNL     1       5.692  44.746  62.635  1.00  0.00     0.018 C 
ENDROOT
BRANCH   6  10
HETATM   10  O2  UNL     1       8.470  45.915  63.154  1.00  0.00    -0.337 OA
BRANCH  10  11
HETATM   11  C12 UNL     1       9.342  45.206  63.967  1.00  0.00     0.075 A 
HETATM   12  C13 UNL     1       8.781  44.559  65.073  1.00  0.00     0.073 A 
HETATM   13  C14 UNL     1       9.633  43.852  65.889  1.00  0.00     0.070 A 
HETATM   14  C15 UNL     1      10.985  43.760  65.662  1.00  0.00     0.073 A 
HETATM   15  C16 UNL     1      11.553  44.392  64.579  1.00  0.00     0.073 A 
HETATM   16  C18 UNL     1      10.699  45.112  63.744  1.00  0.00     0.073 A 
BRANCH  13  17
HETATM   17  O3  UNL     1       9.060  43.208  66.991  1.00  0.00    -0.361 OA
ATOM     18  H3  UNL     1       9.118  42.260  67.011  1.00  0.00     0.217 HD
ENDBRANCH  13  17
BRANCH  15  19
HETATM   19  O4  UNL     1      12.894  44.347  64.287  1.00  0.00    -0.356 OA
HETATM   20  C17 UNL     1      13.762  43.763  65.267  1.00  0.00     0.210 C 
ENDBRANCH  15  19
ENDBRANCH  10  11
ENDBRANCH   6  10
BRANCH   5  21
HETATM   21  O1  UNL     1       8.266  47.337  60.630  1.00  0.00    -0.391 OA
ATOM     22  H1  UNL     1       9.103  47.785  60.607  1.00  0.00     0.210 HD
ENDBRANCH   5  21
BRANCH   1  23
HETATM   23  N1  UNL     1       5.373  43.773  58.513  1.00  0.00    -0.389 N 
HETATM   24  C5  UNL     1       5.970  42.536  58.061  1.00  0.00     0.122 C 
HETATM   25  C4  UNL     1       6.243  42.832  56.602  1.00  0.00     0.026 C 
HETATM   26  C3  UNL     1       4.990  43.563  56.187  1.00  0.00     0.005 C 
HETATM   27  C21 UNL     1       4.663  44.382  57.409  1.00  0.00     0.126 C 
BRANCH  26  28
HETATM   28  C2  UNL     1       5.267  44.403  54.970  1.00  0.00     0.002 C 
HETATM   29  C1  UNL     1       5.765  43.548  53.833  1.00  0.00     0.005 C 
ENDBRANCH  26  28
ENDBRANCH   1  23
TORSDOF 7
ENDMDL
MODEL 3
REMARK VINA RESULT: -7.448533360      2.928      4.829
REMARK  7 active torsions:
REMARK  status: ('A' for Active; 'I' for Inactive)
REMARK    1  A    between atoms: C2_2  and  C3_3 
REMARK    2  A    between atoms: N1_6  and  C6_7 
REMARK    3  A    between atoms: C9_11  and  O1_12 
REMARK    4  A    between atoms: C10_14  and  O2_16 
REMARK    5  A    between atoms: O2_16  and  C12_17 
REMARK    6  A    between atoms: C14_19  and  O3_20 
REMARK    7  A    between atoms: C16_23  and  O4_24 
ROOT
HETATM    1  C6  UNL     1       6.082  39.873  57.772  1.00  0.00     0.090 C 
HETATM    2  C7  UNL     1       6.097  41.171  58.000  1.00  0.00    -0.041 C 
HETATM    3  C8  UNL     1       6.806  42.226  57.231  1.00  0.00     0.120 C 
HETATM    4 BR1  UNL     1       6.089  42.424  55.445  1.00  0.00    -0.084 Br
HETATM    5  C9  UNL     1       6.560  43.509  58.039  1.00  0.00     0.172 C 
HETATM    6  C10 UNL     1       6.365  42.954  59.430  1.00  0.00     0.098 C 
HETATM    7  C11 UNL     1       7.679  42.327  59.845  1.00  0.00     0.050 C 
HETATM    8  C19 UNL     1       5.370  41.840  59.142  1.00  0.00     0.050 C 
HETATM    9  C20 UNL     1       5.211  40.896  60.289  1.00  0.00     0.018 C 
ENDROOT
BRANCH   6  10
HETATM   10  O2  UNL     1       5.909  43.873  60.371  1.00  0.00    -0.337 OA
BRANCH  10  11
HETATM   11  C12 UNL     1       6.819  44.485  61.220  1.00  0.00     0.075 A 
HETATM   12  C13 UNL     1       7.264  45.758  60.849  1.00  0.00     0.073 A 
HETATM   13  C14 UNL     1       8.167  46.378  61.681  1.00  0.00     0.070 A 
HETATM   14  C15 UNL     1       8.636  45.805  62.839  1.00  0.00     0.073 A 
HETATM   15  C16 UNL     1       8.207  44.553  63.219  1.00  0.00     0.073 A 
HETATM   16  C18 UNL     1       7.292  43.914  62.382  1.00  0.00     0.073 A 
BRANCH  13  17
HETATM   17  O3  UNL     1       8.605  47.650  61.300  1.00  0.00    -0.361 OA
ATOM     18  H3  UNL     1       9.470  47.911  61.593  1.00  0.00     0.217 HD
ENDBRANCH  13  17
BRANCH  15  19
HETATM   19  O4  UNL     1       8.630  43.916  64.359  1.00  0.00    -0.356 OA
HETATM   20  C17 UNL     1       9.691  44.530  65.101  1.00  0.00     0.210 C 
ENDBRANCH  15  19
ENDBRANCH  10  11
ENDBRANCH   6  10
BRANCH   5  21
HETATM   21  O1  UNL     1       5.346  44.010  57.525  1.00  0.00    -0.391 OA
ATOM     22  H1  UNL     1       4.807  44.148  58.296  1.00  0.00     0.210 HD
ENDBRANCH   5  21
BRANCH   1  23
HETATM   23  N1  UNL     1       6.769  39.229  56.708  1.00  0.00    -0.389 N 
HETATM   24  C5  UNL     1       6.175  38.692  55.504  1.00  0.00     0.122 C 
HETATM   25  C4  UNL     1       7.110  37.549  55.172  1.00  0.00     0.026 C 
HETATM   26  C3  UNL     1       8.463  38.157  55.450  1.00  0.00     0.005 C 
HETATM   27  C21 UNL     1       8.199  39.016  56.659  1.00  0.00     0.126 C 
BRANCH  26  28
HETATM   28  C2  UNL     1       9.470  37.069  55.707  1.00  0.00     0.002 C 
HETATM   29  C1  UNL     1      10.187  37.303  57.013  1.00  0.00     0.005 C 
ENDBRANCH  26  28
ENDBRANCH   1  23
TORSDOF 7
ENDMDL
MODEL 4
REMARK VINA RESULT: -7.242634405      3.259      5.524
REMARK  7 active torsions:
REMARK  status: ('A' for Active; 'I' for Inactive)
REMARK    1  A    between atoms: C2_2  and  C3_3 
REMARK    2  A    between atoms: N1_6  and  C6_7 
REMARK    3  A    between atoms: C9_11  and  O1_12 
REMARK    4  A    between atoms: C10_14  and  O2_16 
REMARK    5  A    between atoms: O2_16  and  C12_17 
REMARK    6  A    between atoms: C14_19  and  O3_20 
REMARK    7  A    between atoms: C16_23  and  O4_24 
ROOT
HETATM    1  C6  UNL     1       6.047  39.569  57.531  1.00  0.00     0.090 C 
HETATM    2  C7  UNL     1       6.035  40.870  57.738  1.00  0.00    -0.041 C 
HETATM    3  C8  UNL     1       6.749  41.924  56.973  1.00  0.00     0.120 C 
HETATM    4 BR1  UNL     1       6.080  42.082  55.165  1.00  0.00    -0.084 Br
HETATM    5  C9  UNL     1       6.460  43.215  57.752  1.00  0.00     0.172 C 
HETATM    6  C10 UNL     1       6.234  42.680  59.146  1.00  0.00     0.098 C 
HETATM    7  C11 UNL     1       7.546  42.080  59.608  1.00  0.00     0.050 C 
HETATM    8  C19 UNL     1       5.266  41.545  58.848  1.00  0.00     0.050 C 
HETATM    9  C20 UNL     1       5.088  40.617  60.006  1.00  0.00     0.018 C 
ENDROOT
BRANCH   6  10
HETATM   10  O2  UNL     1       5.738  43.605  60.059  1.00  0.00    -0.337 OA
BRANCH  10  11
HETATM   11  C12 UNL     1       6.573  44.603  60.539  1.00  0.00     0.075 A 
HETATM   12  C13 UNL     1       6.772  44.642  61.923  1.00  0.00     0.073 A 
HETATM   13  C14 UNL     1       7.597  45.627  62.414  1.00  0.00     0.070 A 
HETATM   14  C15 UNL     1       8.220  46.553  61.612  1.00  0.00     0.073 A 
HETATM   15  C16 UNL     1       8.034  46.528  60.248  1.00  0.00     0.073 A 
HETATM   16  C18 UNL     1       7.199  45.534  59.738  1.00  0.00     0.073 A 
BRANCH  13  17
HETATM   17  O3  UNL     1       7.789  45.656  63.799  1.00  0.00    -0.361 OA
ATOM     18  H3  UNL     1       7.534  46.452  64.250  1.00  0.00     0.217 HD
ENDBRANCH  13  17
BRANCH  15  19
HETATM   19  O4  UNL     1       8.621  47.418  59.383  1.00  0.00    -0.356 OA
HETATM   20  C17 UNL     1       7.883  47.779  58.208  1.00  0.00     0.210 C 
ENDBRANCH  15  19
ENDBRANCH  10  11
ENDBRANCH   6  10
BRANCH   5  21
HETATM   21  O1  UNL     1       5.254  43.689  57.197  1.00  0.00    -0.391 OA
ATOM     22  H1  UNL     1       5.330  44.635  57.250  1.00  0.00     0.210 HD
ENDBRANCH   5  21
BRANCH   1  23
HETATM   23  N1  UNL     1       6.774  38.919  56.497  1.00  0.00    -0.389 N 
HETATM   24  C5  UNL     1       6.218  38.315  55.307  1.00  0.00     0.122 C 
HETATM   25  C4  UNL     1       7.206  37.204  55.025  1.00  0.00     0.026 C 
HETATM   26  C3  UNL     1       8.527  37.879  55.295  1.00  0.00     0.005 C 
HETATM   27  C21 UNL     1       8.212  38.768  56.471  1.00  0.00     0.126 C 
BRANCH  26  28
HETATM   28  C2  UNL     1       9.578  36.846  55.601  1.00  0.00     0.002 C 
HETATM   29  C1  UNL     1      10.241  37.134  56.925  1.00  0.00     0.005 C 
ENDBRANCH  26  28
ENDBRANCH   1  23
TORSDOF 7
ENDMDL
MODEL 5
REMARK VINA RESULT: -7.048617229      1.907      2.905
REMARK  7 active torsions:
REMARK  status: ('A' for Active; 'I' for Inactive)
REMARK    1  A    between atoms: C2_2  and  C3_3 
REMARK    2  A    between atoms: N1_6  and  C6_7 
REMARK    3  A    between atoms: C9_11  and  O1_12 
REMARK    4  A    between atoms: C10_14  and  O2_16 
REMARK    5  A    between atoms: O2_16  and  C12_17 
REMARK    6  A    between atoms: C14_19  and  O3_20 
REMARK    7  A    between atoms: C16_23  and  O4_24 
ROOT
HETATM    1  C6  UNL     1       5.570  41.949  58.705  1.00  0.00     0.090 C 
HETATM    2  C7  UNL     1       5.986  43.123  59.134  1.00  0.00    -0.041 C 
HETATM    3  C8  UNL     1       6.888  44.081  58.444  1.00  0.00     0.120 C 
HETATM    4 BR1  UNL     1       6.077  44.815  56.848  1.00  0.00    -0.084 Br
HETATM    5  C9  UNL     1       7.114  45.196  59.476  1.00  0.00     0.172 C 
HETATM    6  C10 UNL     1       6.912  44.448  60.772  1.00  0.00     0.098 C 
HETATM    7  C11 UNL     1       8.022  43.423  60.869  1.00  0.00     0.050 C 
HETATM    8  C19 UNL     1       5.611  43.721  60.468  1.00  0.00     0.050 C 
HETATM    9  C20 UNL     1       5.304  42.646  61.459  1.00  0.00     0.018 C 
ENDROOT
BRANCH   6  10
HETATM   10  O2  UNL     1       6.846  45.248  61.909  1.00  0.00    -0.337 OA
BRANCH  10  11
HETATM   11  C12 UNL     1       7.913  45.262  62.795  1.00  0.00     0.075 A 
HETATM   12  C13 UNL     1       8.871  46.263  62.607  1.00  0.00     0.073 A 
HETATM   13  C14 UNL     1       9.935  46.289  63.478  1.00  0.00     0.070 A 
HETATM   14  C15 UNL     1      10.087  45.387  64.504  1.00  0.00     0.073 A 
HETATM   15  C16 UNL     1       9.152  44.395  64.703  1.00  0.00     0.073 A 
HETATM   16  C18 UNL     1       8.069  44.359  63.825  1.00  0.00     0.073 A 
BRANCH  13  17
HETATM   17  O3  UNL     1      10.887  47.294  63.281  1.00  0.00    -0.361 OA
ATOM     18  H3  UNL     1      11.784  47.014  63.142  1.00  0.00     0.217 HD
ENDBRANCH  13  17
BRANCH  15  19
HETATM   19  O4  UNL     1       9.235  43.460  65.704  1.00  0.00    -0.356 OA
HETATM   20  C17 UNL     1      10.534  43.185  66.243  1.00  0.00     0.210 C 
ENDBRANCH  15  19
ENDBRANCH  10  11
ENDBRANCH   6  10
BRANCH   5  21
HETATM   21  O1  UNL     1       6.052  46.096  59.247  1.00  0.00    -0.391 OA
ATOM     22  H1  UNL     1       5.825  45.959  58.335  1.00  0.00     0.210 HD
ENDBRANCH   5  21
BRANCH   1  23
HETATM   23  N1  UNL     1       5.923  41.370  57.456  1.00  0.00    -0.389 N 
HETATM   24  C5  UNL     1       5.038  41.139  56.337  1.00  0.00     0.122 C 
HETATM   25  C4  UNL     1       5.656  39.917  55.692  1.00  0.00     0.026 C 
HETATM   26  C3  UNL     1       7.130  40.230  55.769  1.00  0.00     0.005 C 
HETATM   27  C21 UNL     1       7.252  40.923  57.102  1.00  0.00     0.126 C 
BRANCH  26  28
HETATM   28  C2  UNL     1       7.929  38.958  55.690  1.00  0.00     0.002 C 
HETATM   29  C1  UNL     1       8.895  38.861  56.844  1.00  0.00     0.005 C 
ENDBRANCH  26  28
ENDBRANCH   1  23
TORSDOF 7
ENDMDL
