MODEL 1
REMARK VINA RESULT: -7.372702528      0.000      0.000
REMARK  6 active torsions:
REMARK  status: ('A' for Active; 'I' for Inactive)
REMARK    1  A    between atoms: O1_2  and  C2_3 
REMARK    2  A    between atoms: C5_7  and  C6_8 
REMARK    3  A    between atoms: C14_19  and  C15_20 
REMARK    4  A    between atoms: C15_20  and  C16_21 
REMARK    5  A    between atoms: C16_21  and  O3_22 
REMARK    6  A    between atoms: C20_28  and  O4_29 
ROOT
HETATM    1  C6  UNL     1       8.373  45.020  59.785  1.00  0.00     0.022 C 
HETATM    2  C7  UNL     1       7.981  45.148  61.012  1.00  0.00    -0.030 C 
HETATM    3  C8  UNL     1       6.570  45.314  61.457  1.00  0.00     0.041 C 
HETATM    4  C9  UNL     1       6.352  44.970  62.886  1.00  0.00     0.009 C 
HETATM    5  C10 UNL     1       7.352  43.960  63.375  1.00  0.00     0.043 C 
HETATM    6  C11 UNL     1       8.700  44.536  63.282  1.00  0.00    -0.009 A 
HETATM    7  C12 UNL     1       9.026  45.130  62.060  1.00  0.00     0.049 A 
HETATM    8  N1  UNL     1      10.238  45.662  61.878  1.00  0.00    -0.322 N 
ATOM      9  H1  UNL     1      10.463  46.091  60.980  1.00  0.00     0.169 HD
HETATM   10  C13 UNL     1      11.165  45.645  62.847  1.00  0.00     0.253 A 
HETATM   11  O2  UNL     1      12.320  46.134  62.721  1.00  0.00    -0.268 OA
HETATM   12  C14 UNL     1      10.849  45.054  64.078  1.00  0.00     0.033 A 
HETATM   13  C17 UNL     1       9.604  44.487  64.315  1.00  0.00     0.065 A 
HETATM   14  C18 UNL     1       9.267  43.877  65.568  1.00  0.00     0.101 C 
HETATM   15  N2  UNL     1       9.010  43.386  66.558  1.00  0.00    -0.191 NA
ENDROOT
BRANCH  12  16
HETATM   16  C15 UNL     1      11.822  45.003  65.186  1.00  0.00     0.072 C 
BRANCH  16  17
HETATM   17  C16 UNL     1      12.669  43.747  65.130  1.00  0.00     0.169 C 
BRANCH  17  18
HETATM   18  O3  UNL     1      13.592  43.823  64.082  1.00  0.00    -0.401 OA
ATOM     19  H3  UNL     1      14.446  44.081  64.407  1.00  0.00     0.209 HD
ENDBRANCH  17  18
ENDBRANCH  16  17
ENDBRANCH  12  16
BRANCH   1  20
HETATM   20  C5  UNL     1       7.469  45.014  58.627  1.00  0.00    -0.015 A 
HETATM   21  C4  UNL     1       6.983  43.821  58.152  1.00  0.00     0.024 A 
HETATM   22  C3  UNL     1       6.104  43.832  57.078  1.00  0.00     0.059 A 
HETATM   23 BR1  UNL     1       7.549  42.164  58.934  1.00  0.00    -0.050 Br
HETATM   24  C2  UNL     1       5.725  45.011  56.495  1.00  0.00     0.102 A 
HETATM   25  C20 UNL     1       6.212  46.245  56.966  1.00  0.00     0.102 A 
HETATM   26  C19 UNL     1       7.079  46.203  58.028  1.00  0.00     0.052 A 
BRANCH  24  27
HETATM   27  O1  UNL     1       4.861  45.121  55.428  1.00  0.00    -0.353 OA
HETATM   28  C1  UNL     1       5.222  44.792  54.127  1.00  0.00     0.210 C 
ENDBRANCH  24  27
BRANCH  25  29
HETATM   29  O4  UNL     1       5.816  47.431  56.364  1.00  0.00    -0.353 OA
HETATM   30  C21 UNL     1       4.933  48.268  57.075  1.00  0.00     0.210 C 
ENDBRANCH  25  29
ENDBRANCH   1  20
TORSDOF 6
ENDMDL
MODEL 2
REMARK VINA RESULT: -7.193260442      3.800      5.208
REMARK  6 active torsions:
REMARK  status: ('A' for Active; 'I' for Inactive)
REMARK    1  A    between atoms: O1_2  and  C2_3 
REMARK    2  A    between atoms: C5_7  and  C6_8 
REMARK    3  A    between atoms: C14_19  and  C15_20 
REMARK    4  A    between atoms: C15_20  and  C16_21 
REMARK    5  A    between atoms: C16_21  and  O3_22 
REMARK    6  A    between atoms: C20_28  and  O4_29 
ROOT
HETATM    1  C6  UNL     1       7.572  41.679  57.332  1.00  0.00     0.022 C 
HETATM    2  C7  UNL     1       6.723  42.249  58.124  1.00  0.00    -0.030 C 
HETATM    3  C8  UNL     1       5.253  42.006  58.138  1.00  0.00     0.041 C 
HETATM    4  C9  UNL     1       4.595  42.408  59.409  1.00  0.00     0.009 C 
HETATM    5  C10 UNL     1       5.544  42.340  60.573  1.00  0.00     0.043 C 
HETATM    6  C11 UNL     1       6.644  43.287  60.351  1.00  0.00    -0.009 A 
HETATM    7  C12 UNL     1       7.259  43.226  59.098  1.00  0.00     0.049 A 
HETATM    8  N1  UNL     1       8.282  44.037  58.815  1.00  0.00    -0.322 N 
ATOM      9  H1  UNL     1       8.722  43.981  57.897  1.00  0.00     0.169 HD
HETATM   10  C13 UNL     1       8.742  44.925  59.709  1.00  0.00     0.253 A 
HETATM   11  O2  UNL     1       9.703  45.709  59.487  1.00  0.00    -0.268 OA
HETATM   12  C14 UNL     1       8.133  44.998  60.969  1.00  0.00     0.033 A 
HETATM   13  C17 UNL     1       7.068  44.175  61.311  1.00  0.00     0.065 A 
HETATM   14  C18 UNL     1       6.435  44.237  62.595  1.00  0.00     0.101 C 
HETATM   15  N2  UNL     1       5.945  44.283  63.618  1.00  0.00    -0.191 NA
ENDROOT
BRANCH  12  16
HETATM   16  C15 UNL     1       8.589  45.952  61.998  1.00  0.00     0.072 C 
BRANCH  16  17
HETATM   17  C16 UNL     1       9.715  45.376  62.835  1.00  0.00     0.169 C 
BRANCH  17  18
HETATM   18  O3  UNL     1      10.956  45.715  62.289  1.00  0.00    -0.401 OA
ATOM     19  H3  UNL     1      11.215  45.082  61.630  1.00  0.00     0.209 HD
ENDBRANCH  17  18
ENDBRANCH  16  17
ENDBRANCH  12  16
BRANCH   1  20
HETATM   20  C5  UNL     1       7.210  40.685  56.311  1.00  0.00    -0.015 A 
HETATM   21  C4  UNL     1       7.581  39.374  56.478  1.00  0.00     0.024 A 
HETATM   22  C3  UNL     1       7.205  38.441  55.523  1.00  0.00     0.059 A 
HETATM   23 BR1  UNL     1       8.646  38.854  57.987  1.00  0.00    -0.050 Br
HETATM   24  C2  UNL     1       6.474  38.815  54.429  1.00  0.00     0.102 A 
HETATM   25  C20 UNL     1       6.084  40.153  54.237  1.00  0.00     0.102 A 
HETATM   26  C19 UNL     1       6.470  41.054  55.197  1.00  0.00     0.052 A 
BRANCH  24  27
HETATM   27  O1  UNL     1       6.056  37.962  53.431  1.00  0.00    -0.353 OA
HETATM   28  C1  UNL     1       6.087  36.578  53.557  1.00  0.00     0.210 C 
ENDBRANCH  24  27
BRANCH  25  29
HETATM   29  O4  UNL     1       5.342  40.514  53.121  1.00  0.00    -0.353 OA
HETATM   30  C21 UNL     1       5.686  41.711  52.460  1.00  0.00     0.210 C 
ENDBRANCH  25  29
ENDBRANCH   1  20
TORSDOF 6
ENDMDL
MODEL 3
REMARK VINA RESULT: -6.981081206      1.376      2.225
REMARK  6 active torsions:
REMARK  status: ('A' for Active; 'I' for Inactive)
REMARK    1  A    between atoms: O1_2  and  C2_3 
REMARK    2  A    between atoms: C5_7  and  C6_8 
REMARK    3  A    between atoms: C14_19  and  C15_20 
REMARK    4  A    between atoms: C15_20  and  C16_21 
REMARK    5  A    between atoms: C16_21  and  O3_22 
REMARK    6  A    between atoms: C20_28  and  O4_29 
ROOT
HETATM    1  C6  UNL     1       8.272  44.754  59.735  1.00  0.00     0.022 C 
HETATM    2  C7  UNL     1       7.881  44.927  60.955  1.00  0.00    -0.030 C 
HETATM    3  C8  UNL     1       6.465  45.050  61.402  1.00  0.00     0.041 C 
HETATM    4  C9  UNL     1       6.271  44.772  62.849  1.00  0.00     0.009 C 
HETATM    5  C10 UNL     1       7.320  43.836  63.382  1.00  0.00     0.043 C 
HETATM    6  C11 UNL     1       8.639  44.468  63.249  1.00  0.00    -0.009 A 
HETATM    7  C12 UNL     1       8.931  45.013  61.996  1.00  0.00     0.049 A 
HETATM    8  N1  UNL     1      10.115  45.590  61.777  1.00  0.00    -0.322 N 
ATOM      9  H1  UNL     1      10.316  45.982  60.857  1.00  0.00     0.169 HD
HETATM   10  C13 UNL     1      11.047  45.667  62.739  1.00  0.00     0.253 A 
HETATM   11  O2  UNL     1      12.177  46.202  62.580  1.00  0.00    -0.268 OA
HETATM   12  C14 UNL     1      10.765  45.127  64.002  1.00  0.00     0.033 A 
HETATM   13  C17 UNL     1       9.549  44.516  64.277  1.00  0.00     0.065 A 
HETATM   14  C18 UNL     1       9.247  43.958  65.562  1.00  0.00     0.101 C 
HETATM   15  N2  UNL     1       9.019  43.508  66.578  1.00  0.00    -0.191 NA
ENDROOT
BRANCH  12  16
HETATM   16  C15 UNL     1      11.745  45.179  65.104  1.00  0.00     0.072 C 
BRANCH  16  17
HETATM   17  C16 UNL     1      12.603  43.930  65.150  1.00  0.00     0.169 C 
BRANCH  17  18
HETATM   18  O3  UNL     1      13.482  43.898  64.063  1.00  0.00    -0.401 OA
ATOM     19  H3  UNL     1      14.375  44.046  64.351  1.00  0.00     0.209 HD
ENDBRANCH  17  18
ENDBRANCH  16  17
ENDBRANCH  12  16
BRANCH   1  20
HETATM   20  C5  UNL     1       7.364  44.645  58.585  1.00  0.00    -0.015 A 
HETATM   21  C4  UNL     1       7.049  45.768  57.860  1.00  0.00     0.024 A 
HETATM   22  C3  UNL     1       6.216  45.646  56.757  1.00  0.00     0.059 A 
HETATM   23 BR1  UNL     1       7.714  47.486  58.397  1.00  0.00    -0.050 Br
HETATM   24  C2  UNL     1       5.713  44.427  56.392  1.00  0.00     0.102 A 
HETATM   25  C20 UNL     1       6.022  43.264  57.120  1.00  0.00     0.102 A 
HETATM   26  C19 UNL     1       6.847  43.415  58.205  1.00  0.00     0.052 A 
BRANCH  24  27
HETATM   27  O1  UNL     1       4.881  44.208  55.315  1.00  0.00    -0.353 OA
HETATM   28  C1  UNL     1       5.316  44.279  53.998  1.00  0.00     0.210 C 
ENDBRANCH  24  27
BRANCH  25  29
HETATM   29  O4  UNL     1       5.504  42.036  56.735  1.00  0.00    -0.353 OA
HETATM   30  C21 UNL     1       6.387  41.096  56.166  1.00  0.00     0.210 C 
ENDBRANCH  25  29
ENDBRANCH   1  20
TORSDOF 6
ENDMDL
MODEL 4
REMARK VINA RESULT: -6.960975117      4.349      5.790
REMARK  6 active torsions:
REMARK  status: ('A' for Active; 'I' for Inactive)
REMARK    1  A    between atoms: O1_2  and  C2_3 
REMARK    2  A    between atoms: C5_7  and  C6_8 
REMARK    3  A    between atoms: C14_19  and  C15_20 
REMARK    4  A    between atoms: C15_20  and  C16_21 
REMARK    5  A    between atoms: C16_21  and  O3_22 
REMARK    6  A    between atoms: C20_28  and  O4_29 
ROOT
HETATM    1  C6  UNL     1       7.974  41.694  57.708  1.00  0.00     0.022 C 
HETATM    2  C7  UNL     1       7.041  42.181  58.460  1.00  0.00    -0.030 C 
HETATM    3  C8  UNL     1       5.637  41.688  58.527  1.00  0.00     0.041 C 
HETATM    4  C9  UNL     1       4.923  42.088  59.768  1.00  0.00     0.009 C 
HETATM    5  C10 UNL     1       5.873  42.300  60.913  1.00  0.00     0.043 C 
HETATM    6  C11 UNL     1       6.788  43.399  60.581  1.00  0.00    -0.009 A 
HETATM    7  C12 UNL     1       7.401  43.326  59.327  1.00  0.00     0.049 A 
HETATM    8  N1  UNL     1       8.263  44.273  58.948  1.00  0.00    -0.322 N 
ATOM      9  H1  UNL     1       8.704  44.206  58.030  1.00  0.00     0.169 HD
HETATM   10  C13 UNL     1       8.564  45.308  59.745  1.00  0.00     0.253 A 
HETATM   11  O2  UNL     1       9.371  46.224  59.430  1.00  0.00    -0.268 OA
HETATM   12  C14 UNL     1       7.955  45.395  61.005  1.00  0.00     0.033 A 
HETATM   13  C17 UNL     1       7.053  44.435  61.444  1.00  0.00     0.065 A 
HETATM   14  C18 UNL     1       6.423  44.509  62.730  1.00  0.00     0.101 C 
HETATM   15  N2  UNL     1       5.937  44.567  63.753  1.00  0.00    -0.191 NA
ENDROOT
BRANCH  12  16
HETATM   16  C15 UNL     1       8.240  46.508  61.930  1.00  0.00     0.072 C 
BRANCH  16  17
HETATM   17  C16 UNL     1       9.360  46.164  62.892  1.00  0.00     0.169 C 
BRANCH  17  18
HETATM   18  O3  UNL     1      10.499  45.750  62.193  1.00  0.00    -0.401 OA
ATOM     19  H3  UNL     1      11.170  45.453  62.796  1.00  0.00     0.209 HD
ENDBRANCH  17  18
ENDBRANCH  16  17
ENDBRANCH  12  16
BRANCH   1  20
HETATM   20  C5  UNL     1       7.789  40.559  56.793  1.00  0.00    -0.015 A 
HETATM   21  C4  UNL     1       7.003  40.709  55.677  1.00  0.00     0.024 A 
HETATM   22  C3  UNL     1       6.863  39.639  54.805  1.00  0.00     0.059 A 
HETATM   23 BR1  UNL     1       6.076  42.358  55.358  1.00  0.00    -0.050 Br
HETATM   24  C2  UNL     1       7.495  38.450  55.047  1.00  0.00     0.102 A 
HETATM   25  C20 UNL     1       8.305  38.275  56.185  1.00  0.00     0.102 A 
HETATM   26  C19 UNL     1       8.425  39.349  57.030  1.00  0.00     0.052 A 
BRANCH  24  27
HETATM   27  O1  UNL     1       7.416  37.335  54.241  1.00  0.00    -0.353 OA
HETATM   28  C1  UNL     1       6.284  37.019  53.499  1.00  0.00     0.210 C 
ENDBRANCH  24  27
BRANCH  25  29
HETATM   29  O4  UNL     1       8.939  37.063  56.415  1.00  0.00    -0.353 OA
HETATM   30  C21 UNL     1      10.244  37.092  56.949  1.00  0.00     0.210 C 
ENDBRANCH  25  29
ENDBRANCH   1  20
TORSDOF 6
ENDMDL
MODEL 5
REMARK VINA RESULT: -6.805106946      5.153      9.588
REMARK  6 active torsions:
REMARK  status: ('A' for Active; 'I' for Inactive)
REMARK    1  A    between atoms: O1_2  and  C2_3 
REMARK    2  A    between atoms: C5_7  and  C6_8 
REMARK    3  A    between atoms: C14_19  and  C15_20 
REMARK    4  A    between atoms: C15_20  and  C16_21 
REMARK    5  A    between atoms: C16_21  and  O3_22 
REMARK    6  A    between atoms: C20_28  and  O4_29 
ROOT
HETATM    1  C6  UNL     1       6.810  42.145  57.368  1.00  0.00     0.022 C 
HETATM    2  C7  UNL     1       7.439  41.134  56.861  1.00  0.00    -0.030 C 
HETATM    3  C8  UNL     1       8.702  40.547  57.388  1.00  0.00     0.041 C 
HETATM    4  C9  UNL     1       8.948  39.155  56.930  1.00  0.00     0.009 C 
HETATM    5  C10 UNL     1       7.665  38.435  56.621  1.00  0.00     0.043 C 
HETATM    6  C11 UNL     1       6.981  39.125  55.520  1.00  0.00    -0.009 A 
HETATM    7  C12 UNL     1       6.851  40.509  55.654  1.00  0.00     0.049 A 
HETATM    8  N1  UNL     1       6.225  41.217  54.710  1.00  0.00    -0.322 N 
ATOM      9  H1  UNL     1       6.136  42.227  54.822  1.00  0.00     0.169 HD
HETATM   10  C13 UNL     1       5.712  40.630  53.618  1.00  0.00     0.253 A 
HETATM   11  O2  UNL     1       5.114  41.257  52.702  1.00  0.00    -0.268 OA
HETATM   12  C14 UNL     1       5.838  39.243  53.470  1.00  0.00     0.033 A 
HETATM   13  C17 UNL     1       6.479  38.464  54.425  1.00  0.00     0.065 A 
HETATM   14  C18 UNL     1       6.614  37.044  54.288  1.00  0.00     0.101 C 
HETATM   15  N2  UNL     1       6.708  35.919  54.180  1.00  0.00    -0.191 NA
ENDROOT
BRANCH  12  16
HETATM   16  C15 UNL     1       5.297  38.535  52.293  1.00  0.00     0.072 C 
BRANCH  16  17
HETATM   17  C16 UNL     1       3.829  38.200  52.467  1.00  0.00     0.169 C 
BRANCH  17  18
HETATM   18  O3  UNL     1       3.027  39.202  51.910  1.00  0.00    -0.401 OA
ATOM     19  H3  UNL     1       3.371  40.061  52.123  1.00  0.00     0.209 HD
ENDBRANCH  17  18
ENDBRANCH  16  17
ENDBRANCH  12  16
BRANCH   1  20
HETATM   20  C5  UNL     1       7.252  42.877  58.562  1.00  0.00    -0.015 A 
HETATM   21  C4  UNL     1       6.972  42.375  59.809  1.00  0.00     0.024 A 
HETATM   22  C3  UNL     1       7.424  43.060  60.928  1.00  0.00     0.059 A 
HETATM   23 BR1  UNL     1       5.929  40.775  59.997  1.00  0.00    -0.050 Br
HETATM   24  C2  UNL     1       8.139  44.219  60.798  1.00  0.00     0.102 A 
HETATM   25  C20 UNL     1       8.437  44.752  59.530  1.00  0.00     0.102 A 
HETATM   26  C19 UNL     1       7.977  44.055  58.443  1.00  0.00     0.052 A 
BRANCH  24  27
HETATM   27  O1  UNL     1       8.627  44.966  61.848  1.00  0.00    -0.353 OA
HETATM   28  C1  UNL     1       7.813  45.736  62.670  1.00  0.00     0.210 C 
ENDBRANCH  24  27
BRANCH  25  29
HETATM   29  O4  UNL     1       9.163  45.929  59.417  1.00  0.00    -0.353 OA
HETATM   30  C21 UNL     1       8.454  47.121  59.169  1.00  0.00     0.210 C 
ENDBRANCH  25  29
ENDBRANCH   1  20
TORSDOF 6
ENDMDL
