MODEL 1
REMARK VINA RESULT: -7.170379464      0.000      0.000
REMARK  8 active torsions:
REMARK  status: ('A' for Active; 'I' for Inactive)
REMARK    1  A    between atoms: C3_3  and  C4_4 
REMARK    2  A    between atoms: C5_5  and  C6_6 
REMARK    3  A    between atoms: C6_6  and  N1_7 
REMARK    4  A    between atoms: N1_7  and  C7_10 
REMARK    5  A    between atoms: C7_10  and  C8_11 
REMARK    6  A    between atoms: C8_11  and  O1_12 
REMARK    7  A    between atoms: C12_21  and  N4_22 
REMARK    8  A    between atoms: N4_22  and  C13_24 
ROOT
HETATM    1  C1  UNL     1       7.804  46.482  57.492  1.00  0.00     0.112 C 
HETATM    2  C2  UNL     1       7.522  45.883  58.779  1.00  0.00    -0.105 C 
HETATM    3  C3  UNL     1       7.282  45.427  59.867  1.00  0.00    -0.065 C 
ENDROOT
BRANCH   3   4
HETATM    4  C4  UNL     1       6.948  44.925  61.217  1.00  0.00     0.049 A 
HETATM    5  C5  UNL     1       7.612  45.379  62.283  1.00  0.00     0.030 A 
HETATM    6  S1  UNL     1       6.849  44.561  63.603  1.00  0.00    -0.073 SA
HETATM    7  C10 UNL     1       5.701  43.659  62.717  1.00  0.00     0.091 A 
HETATM    8  N2  UNL     1       4.777  42.707  63.091  1.00  0.00    -0.346 N 
HETATM    9  C20 UNL     1       5.949  44.022  61.426  1.00  0.00     0.062 A 
HETATM   10  C11 UNL     1       4.054  42.061  62.157  1.00  0.00     0.182 A 
ATOM     11  H2  UNL     1       4.641  42.491  64.078  1.00  0.00     0.167 HD
HETATM   12  N3  UNL     1       4.297  42.395  60.897  1.00  0.00    -0.338 N 
HETATM   13  C12 UNL     1       5.177  43.315  60.467  1.00  0.00     0.121 A 
ATOM     14  H3  UNL     1       3.761  41.904  60.182  1.00  0.00     0.168 HD
BRANCH   5  15
HETATM   15  C6  UNL     1       8.725  46.352  62.534  1.00  0.00     0.280 C 
BRANCH  15  16
HETATM   16  N1  UNL     1       9.992  45.706  62.301  1.00  0.00    -0.069 N 
ATOM     17  H12 UNL     1       9.849  44.771  61.919  1.00  0.00     0.277 HD
ATOM     18  H11 UNL     1      10.475  46.145  61.517  1.00  0.00     0.277 HD
BRANCH  16  19
HETATM   19  C7  UNL     1      10.828  45.651  63.415  1.00  0.00     0.258 C 
BRANCH  19  20
HETATM   20  C8  UNL     1      10.419  45.212  64.763  1.00  0.00     0.194 C 
BRANCH  20  21
HETATM   21  O1  UNL     1      10.251  43.876  64.997  1.00  0.00    -0.394 OA
HETATM   22  C9  UNL     1      11.166  43.386  65.915  1.00  0.00     0.201 C 
ENDBRANCH  20  21
ENDBRANCH  19  20
ENDBRANCH  16  19
ENDBRANCH  15  16
ENDBRANCH   5  15
BRANCH  13  23
HETATM   23  N4  UNL     1       5.501  43.387  59.215  1.00  0.00    -0.341 N 
ATOM     24  H4  UNL     1       5.146  44.133  58.618  1.00  0.00     0.167 HD
BRANCH  23  25
HETATM   25  C13 UNL     1       6.362  42.391  58.713  1.00  0.00     0.039 A 
HETATM   26  C14 UNL     1       6.980  41.506  59.617  1.00  0.00     0.031 A 
HETATM   27  C15 UNL     1       7.819  40.514  59.216  1.00  0.00     0.021 A 
HETATM   28  C16 UNL     1       8.098  40.340  57.878  1.00  0.00     0.011 A 
HETATM   29 BR1  UNL     1       9.268  38.938  57.258  1.00  0.00    -0.051 Br
HETATM   30  C17 UNL     1       7.500  41.201  56.967  1.00  0.00     0.028 A 
HETATM   31  C18 UNL     1       6.630  42.227  57.394  1.00  0.00    -0.034 A 
HETATM   32  C19 UNL     1       6.041  43.087  56.363  1.00  0.00     0.050 C 
ENDBRANCH  23  25
ENDBRANCH  13  23
ENDBRANCH   3   4
TORSDOF 8
ENDMDL
MODEL 2
REMARK VINA RESULT: -7.131507999      1.718      2.279
REMARK  8 active torsions:
REMARK  status: ('A' for Active; 'I' for Inactive)
REMARK    1  A    between atoms: C3_3  and  C4_4 
REMARK    2  A    between atoms: C5_5  and  C6_6 
REMARK    3  A    between atoms: C6_6  and  N1_7 
REMARK    4  A    between atoms: N1_7  and  C7_10 
REMARK    5  A    between atoms: C7_10  and  C8_11 
REMARK    6  A    between atoms: C8_11  and  O1_12 
REMARK    7  A    between atoms: C12_21  and  N4_22 
REMARK    8  A    between atoms: N4_22  and  C13_24 
ROOT
HETATM    1  C1  UNL     1       9.027  45.331  59.363  1.00  0.00     0.112 C 
HETATM    2  C2  UNL     1       7.836  44.776  59.970  1.00  0.00    -0.105 C 
HETATM    3  C3  UNL     1       6.857  44.272  60.457  1.00  0.00    -0.065 C 
ENDROOT
BRANCH   3   4
HETATM    4  C4  UNL     1       5.689  43.593  61.058  1.00  0.00     0.049 A 
HETATM    5  C5  UNL     1       5.439  43.723  62.363  1.00  0.00     0.030 A 
HETATM    6  S1  UNL     1       3.982  42.815  62.578  1.00  0.00    -0.073 SA
HETATM    7  C10 UNL     1       3.759  42.300  60.966  1.00  0.00     0.091 A 
HETATM    8  N2  UNL     1       2.835  41.466  60.375  1.00  0.00    -0.346 N 
HETATM    9  C20 UNL     1       4.824  42.848  60.314  1.00  0.00     0.062 A 
HETATM   10  C11 UNL     1       2.952  41.135  59.076  1.00  0.00     0.182 A 
ATOM     11  H2  UNL     1       2.058  41.097  60.925  1.00  0.00     0.167 HD
HETATM   12  N3  UNL     1       3.993  41.650  58.435  1.00  0.00    -0.338 N 
HETATM   13  C12 UNL     1       4.924  42.471  58.949  1.00  0.00     0.121 A 
ATOM     14  H3  UNL     1       4.096  41.398  57.453  1.00  0.00     0.168 HD
BRANCH   5  15
HETATM   15  C6  UNL     1       6.072  44.431  63.523  1.00  0.00     0.280 C 
BRANCH  15  16
HETATM   16  N1  UNL     1       7.226  43.692  63.968  1.00  0.00    -0.069 N 
ATOM     17  H12 UNL     1       7.008  43.170  64.817  1.00  0.00     0.277 HD
ATOM     18  H11 UNL     1       7.419  42.919  63.331  1.00  0.00     0.277 HD
BRANCH  16  19
HETATM   19  C7  UNL     1       8.372  44.464  64.154  1.00  0.00     0.258 C 
BRANCH  19  20
HETATM   20  C8  UNL     1       9.352  44.280  65.242  1.00  0.00     0.194 C 
BRANCH  20  21
HETATM   21  O1  UNL     1      10.420  45.129  65.315  1.00  0.00    -0.394 OA
HETATM   22  C9  UNL     1      10.830  45.564  64.064  1.00  0.00     0.201 C 
ENDBRANCH  20  21
ENDBRANCH  19  20
ENDBRANCH  16  19
ENDBRANCH  15  16
ENDBRANCH   5  15
BRANCH  13  23
HETATM   23  N4  UNL     1       6.018  42.718  58.302  1.00  0.00    -0.341 N 
ATOM     24  H4  UNL     1       6.283  43.670  58.049  1.00  0.00     0.167 HD
BRANCH  23  25
HETATM   25  C13 UNL     1       6.828  41.617  57.960  1.00  0.00     0.039 A 
HETATM   26  C14 UNL     1       7.490  40.914  58.986  1.00  0.00     0.031 A 
HETATM   27  C15 UNL     1       8.284  39.837  58.743  1.00  0.00     0.021 A 
HETATM   28  C16 UNL     1       8.471  39.389  57.454  1.00  0.00     0.011 A 
HETATM   29 BR1  UNL     1       9.574  37.857  57.061  1.00  0.00    -0.051 Br
HETATM   30  C17 UNL     1       7.829  40.066  56.426  1.00  0.00     0.028 A 
HETATM   31  C18 UNL     1       7.005  41.182  56.689  1.00  0.00    -0.034 A 
HETATM   32  C19 UNL     1       6.363  41.833  55.542  1.00  0.00     0.050 C 
ENDBRANCH  23  25
ENDBRANCH  13  23
ENDBRANCH   3   4
TORSDOF 8
ENDMDL
MODEL 3
REMARK VINA RESULT: -7.033751767      3.449      6.094
REMARK  8 active torsions:
REMARK  status: ('A' for Active; 'I' for Inactive)
REMARK    1  A    between atoms: C3_3  and  C4_4 
REMARK    2  A    between atoms: C5_5  and  C6_6 
REMARK    3  A    between atoms: C6_6  and  N1_7 
REMARK    4  A    between atoms: N1_7  and  C7_10 
REMARK    5  A    between atoms: C7_10  and  C8_11 
REMARK    6  A    between atoms: C8_11  and  O1_12 
REMARK    7  A    between atoms: C12_21  and  N4_22 
REMARK    8  A    between atoms: N4_22  and  C13_24 
ROOT
HETATM    1  C1  UNL     1       3.433  42.345  55.706  1.00  0.00     0.112 C 
HETATM    2  C2  UNL     1       4.368  43.127  56.485  1.00  0.00    -0.105 C 
HETATM    3  C3  UNL     1       5.156  43.803  57.095  1.00  0.00    -0.065 C 
ENDROOT
BRANCH   3   4
HETATM    4  C4  UNL     1       6.110  44.687  57.800  1.00  0.00     0.049 A 
HETATM    5  C5  UNL     1       6.409  45.886  57.294  1.00  0.00     0.030 A 
HETATM    6  S1  UNL     1       7.494  46.550  58.467  1.00  0.00    -0.073 SA
HETATM    7  C10 UNL     1       7.519  45.242  59.564  1.00  0.00     0.091 A 
HETATM    8  N2  UNL     1       8.232  45.011  60.720  1.00  0.00    -0.346 N 
HETATM    9  C20 UNL     1       6.685  44.332  58.982  1.00  0.00     0.062 A 
HETATM   10  C11 UNL     1       8.140  43.825  61.349  1.00  0.00     0.182 A 
ATOM     11  H2  UNL     1       8.833  45.743  61.101  1.00  0.00     0.167 HD
HETATM   12  N3  UNL     1       7.344  42.927  60.785  1.00  0.00    -0.338 N 
HETATM   13  C12 UNL     1       6.619  43.089  59.665  1.00  0.00     0.121 A 
ATOM     14  H3  UNL     1       7.275  42.021  61.247  1.00  0.00     0.168 HD
BRANCH   5  15
HETATM   15  C6  UNL     1       6.019  46.681  56.083  1.00  0.00     0.280 C 
BRANCH  15  16
HETATM   16  N1  UNL     1       6.791  46.241  54.949  1.00  0.00    -0.069 N 
ATOM     17  H12 UNL     1       7.525  46.918  54.736  1.00  0.00     0.277 HD
ATOM     18  H11 UNL     1       7.364  45.435  55.201  1.00  0.00     0.277 HD
BRANCH  16  19
HETATM   19  C7  UNL     1       6.040  45.964  53.809  1.00  0.00     0.258 C 
BRANCH  19  20
HETATM   20  C8  UNL     1       5.757  44.613  53.286  1.00  0.00     0.194 C 
BRANCH  20  21
HETATM   21  O1  UNL     1       6.519  43.566  53.722  1.00  0.00    -0.394 OA
HETATM   22  C9  UNL     1       6.183  42.377  53.094  1.00  0.00     0.201 C 
ENDBRANCH  20  21
ENDBRANCH  19  20
ENDBRANCH  16  19
ENDBRANCH  15  16
ENDBRANCH   5  15
BRANCH  13  23
HETATM   23  N4  UNL     1       6.069  42.074  59.079  1.00  0.00    -0.341 N 
ATOM     24  H4  UNL     1       5.062  42.032  58.922  1.00  0.00     0.167 HD
BRANCH  23  25
HETATM   25  C13 UNL     1       6.919  41.027  58.669  1.00  0.00     0.039 A 
HETATM   26  C14 UNL     1       7.925  41.299  57.722  1.00  0.00     0.031 A 
HETATM   27  C15 UNL     1       8.791  40.349  57.278  1.00  0.00     0.021 A 
HETATM   28  C16 UNL     1       8.708  39.059  57.753  1.00  0.00     0.011 A 
HETATM   29 BR1  UNL     1       9.924  37.681  57.166  1.00  0.00    -0.051 Br
HETATM   30  C17 UNL     1       7.724  38.767  58.688  1.00  0.00     0.028 A 
HETATM   31  C18 UNL     1       6.831  39.761  59.143  1.00  0.00    -0.034 A 
HETATM   32  C19 UNL     1       5.826  39.363  60.134  1.00  0.00     0.050 C 
ENDBRANCH  23  25
ENDBRANCH  13  23
ENDBRANCH   3   4
TORSDOF 8
ENDMDL
MODEL 4
REMARK VINA RESULT: -6.940918046      2.819      4.778
REMARK  8 active torsions:
REMARK  status: ('A' for Active; 'I' for Inactive)
REMARK    1  A    between atoms: C3_3  and  C4_4 
REMARK    2  A    between atoms: C5_5  and  C6_6 
REMARK    3  A    between atoms: C6_6  and  N1_7 
REMARK    4  A    between atoms: N1_7  and  C7_10 
REMARK    5  A    between atoms: C7_10  and  C8_11 
REMARK    6  A    between atoms: C8_11  and  O1_12 
REMARK    7  A    between atoms: C12_21  and  N4_22 
REMARK    8  A    between atoms: N4_22  and  C13_24 
ROOT
HETATM    1  C1  UNL     1       3.821  39.840  58.805  1.00  0.00     0.112 C 
HETATM    2  C2  UNL     1       4.500  40.986  59.371  1.00  0.00    -0.105 C 
HETATM    3  C3  UNL     1       5.075  41.913  59.879  1.00  0.00    -0.065 C 
ENDROOT
BRANCH   3   4
HETATM    4  C4  UNL     1       5.821  43.006  60.539  1.00  0.00     0.049 A 
HETATM    5  C5  UNL     1       5.475  43.407  61.765  1.00  0.00     0.030 A 
HETATM    6  S1  UNL     1       6.639  44.635  62.124  1.00  0.00    -0.073 SA
HETATM    7  C10 UNL     1       7.526  44.582  60.666  1.00  0.00     0.091 A 
HETATM    8  N2  UNL     1       8.574  45.337  60.186  1.00  0.00    -0.346 N 
HETATM    9  C20 UNL     1       6.888  43.613  59.948  1.00  0.00     0.062 A 
HETATM   10  C11 UNL     1       9.028  45.150  58.933  1.00  0.00     0.182 A 
ATOM     11  H2  UNL     1       9.008  46.042  60.784  1.00  0.00     0.167 HD
HETATM   12  N3  UNL     1       8.405  44.221  58.221  1.00  0.00    -0.338 N 
HETATM   13  C12 UNL     1       7.384  43.449  58.629  1.00  0.00     0.121 A 
ATOM     14  H3  UNL     1       8.734  44.079  57.266  1.00  0.00     0.168 HD
BRANCH   5  15
HETATM   15  C6  UNL     1       4.429  43.033  62.773  1.00  0.00     0.280 C 
BRANCH  15  16
HETATM   16  N1  UNL     1       4.622  43.802  63.976  1.00  0.00    -0.069 N 
ATOM     17  H12 UNL     1       5.132  43.254  64.670  1.00  0.00     0.277 HD
ATOM     18  H11 UNL     1       5.296  44.551  63.814  1.00  0.00     0.277 HD
BRANCH  16  19
HETATM   19  C7  UNL     1       3.451  44.316  64.530  1.00  0.00     0.258 C 
BRANCH  19  20
HETATM   20  C8  UNL     1       3.067  45.741  64.534  1.00  0.00     0.194 C 
BRANCH  20  21
HETATM   21  O1  UNL     1       3.281  46.483  63.406  1.00  0.00    -0.394 OA
HETATM   22  C9  UNL     1       2.415  46.138  62.380  1.00  0.00     0.201 C 
ENDBRANCH  20  21
ENDBRANCH  19  20
ENDBRANCH  16  19
ENDBRANCH  15  16
ENDBRANCH   5  15
BRANCH  13  23
HETATM   23  N4  UNL     1       6.703  42.749  57.778  1.00  0.00    -0.341 N 
ATOM     24  H4  UNL     1       5.781  43.048  57.462  1.00  0.00     0.167 HD
BRANCH  23  25
HETATM   25  C13 UNL     1       7.288  41.556  57.308  1.00  0.00     0.039 A 
HETATM   26  C14 UNL     1       8.390  41.019  58.002  1.00  0.00     0.031 A 
HETATM   27  C15 UNL     1       9.008  39.870  57.620  1.00  0.00     0.021 A 
HETATM   28  C16 UNL     1       8.564  39.177  56.515  1.00  0.00     0.011 A 
HETATM   29 BR1  UNL     1       9.398  37.535  55.944  1.00  0.00    -0.051 Br
HETATM   30  C17 UNL     1       7.480  39.687  55.815  1.00  0.00     0.028 A 
HETATM   31  C18 UNL     1       6.844  40.881  56.221  1.00  0.00    -0.034 A 
HETATM   32  C19 UNL     1       5.702  41.343  55.424  1.00  0.00     0.050 C 
ENDBRANCH  23  25
ENDBRANCH  13  23
ENDBRANCH   3   4
TORSDOF 8
ENDMDL
MODEL 5
REMARK VINA RESULT: -6.824629776      3.068      5.675
REMARK  8 active torsions:
REMARK  status: ('A' for Active; 'I' for Inactive)
REMARK    1  A    between atoms: C3_3  and  C4_4 
REMARK    2  A    between atoms: C5_5  and  C6_6 
REMARK    3  A    between atoms: C6_6  and  N1_7 
REMARK    4  A    between atoms: N1_7  and  C7_10 
REMARK    5  A    between atoms: C7_10  and  C8_11 
REMARK    6  A    between atoms: C8_11  and  O1_12 
REMARK    7  A    between atoms: C12_21  and  N4_22 
REMARK    8  A    between atoms: N4_22  and  C13_24 
ROOT
HETATM    1  C1  UNL     1       2.154  39.880  59.101  1.00  0.00     0.112 C 
HETATM    2  C2  UNL     1       2.863  40.865  59.890  1.00  0.00    -0.105 C 
HETATM    3  C3  UNL     1       3.412  41.694  60.569  1.00  0.00    -0.065 C 
ENDROOT
BRANCH   3   4
HETATM    4  C4  UNL     1       4.038  42.702  61.451  1.00  0.00     0.049 A 
HETATM    5  C5  UNL     1       3.299  43.349  62.357  1.00  0.00     0.030 A 
HETATM    6  S1  UNL     1       4.452  44.357  63.161  1.00  0.00    -0.073 SA
HETATM    7  C10 UNL     1       5.846  43.902  62.286  1.00  0.00     0.091 A 
HETATM    8  N2  UNL     1       7.150  44.348  62.316  1.00  0.00    -0.346 N 
HETATM    9  C20 UNL     1       5.370  42.983  61.398  1.00  0.00     0.062 A 
HETATM   10  C11 UNL     1       8.046  43.883  61.427  1.00  0.00     0.182 A 
ATOM     11  H2  UNL     1       7.436  45.033  63.015  1.00  0.00     0.167 HD
HETATM   12  N3  UNL     1       7.591  43.000  60.548  1.00  0.00    -0.338 N 
HETATM   13  C12 UNL     1       6.338  42.521  60.468  1.00  0.00     0.121 A 
ATOM     14  H3  UNL     1       8.260  42.649  59.863  1.00  0.00     0.168 HD
BRANCH   5  15
HETATM   15  C6  UNL     1       1.860  43.354  62.779  1.00  0.00     0.280 C 
BRANCH  15  16
HETATM   16  N1  UNL     1       1.634  42.300  63.735  1.00  0.00    -0.069 N 
ATOM     17  H12 UNL     1       2.523  41.909  64.049  1.00  0.00     0.277 HD
ATOM     18  H11 UNL     1       1.291  42.687  64.614  1.00  0.00     0.277 HD
BRANCH  16  19
HETATM   19  C7  UNL     1       0.789  41.285  63.290  1.00  0.00     0.258 C 
BRANCH  19  20
HETATM   20  C8  UNL     1       1.204  39.897  63.006  1.00  0.00     0.194 C 
BRANCH  20  21
HETATM   21  O1  UNL     1       2.360  39.429  63.565  1.00  0.00    -0.394 OA
HETATM   22  C9  UNL     1       3.011  38.526  62.741  1.00  0.00     0.201 C 
ENDBRANCH  20  21
ENDBRANCH  19  20
ENDBRANCH  16  19
ENDBRANCH  15  16
ENDBRANCH   5  15
BRANCH  13  23
HETATM   23  N4  UNL     1       5.950  41.851  59.430  1.00  0.00    -0.341 N 
ATOM     24  H4  UNL     1       5.032  42.001  59.014  1.00  0.00     0.167 HD
BRANCH  23  25
HETATM   25  C13 UNL     1       6.851  40.905  58.900  1.00  0.00     0.039 A 
HETATM   26  C14 UNL     1       7.770  41.317  57.917  1.00  0.00     0.031 A 
HETATM   27  C15 UNL     1       8.677  40.471  57.359  1.00  0.00     0.021 A 
HETATM   28  C16 UNL     1       8.724  39.150  57.748  1.00  0.00     0.011 A 
HETATM   29 BR1  UNL     1      10.002  37.915  56.998  1.00  0.00    -0.051 Br
HETATM   30  C17 UNL     1       7.827  38.720  58.716  1.00  0.00     0.028 A 
HETATM   31  C18 UNL     1       6.890  39.607  59.290  1.00  0.00    -0.034 A 
HETATM   32  C19 UNL     1       5.984  39.068  60.309  1.00  0.00     0.050 C 
ENDBRANCH  23  25
ENDBRANCH  13  23
ENDBRANCH   3   4
TORSDOF 8
ENDMDL
