MODEL 1
REMARK VINA RESULT: -7.547839798      0.000      0.000
REMARK  10 active torsions:
REMARK  status: ('A' for Active; 'I' for Inactive)
REMARK    1  A    between atoms: N1_2  and  C2_4 
REMARK    2  A    between atoms: C5_7  and  C6_8 
REMARK    3  A    between atoms: C6_8  and  C7_9 
REMARK    4  A    between atoms: C7_9  and  N2_10 
REMARK    5  A    between atoms: N2_10  and  C8_12 
REMARK    6  A    between atoms: C9_17  and  N5_18 
REMARK    7  A    between atoms: N5_18  and  C10_20 
REMARK    8  A    between atoms: C10_20  and  C11_21 
REMARK    9  A    between atoms: C11_21  and  C12_22 
REMARK   10  A    between atoms: C12_22  and  O1_23 
ROOT
HETATM    1  C8  UNL     1       0.173 -37.560  76.592  1.00  0.00     0.707 A 
HETATM    2  N3  UNL     1       0.570 -38.623  77.343  1.00  0.00    -0.117 N 
ATOM      3  H3  UNL     1       1.474 -38.712  77.807  1.00  0.00     0.206 HD
HETATM    4  N4  UNL     1      -0.398 -39.524  77.377  1.00  0.00    -0.117 N 
ATOM      5  H4  UNL     1      -0.365 -40.418  77.868  1.00  0.00     0.206 HD
HETATM    6  C9  UNL     1      -1.431 -39.060  76.653  1.00  0.00     0.707 A 
HETATM    7  N6  UNL     1      -1.070 -37.858  76.179  1.00  0.00    -0.020 N 
ATOM      8  H6  UNL     1      -1.651 -37.260  75.593  1.00  0.00     0.203 HD
ENDROOT
BRANCH   1   9
HETATM    9  N2  UNL     1       0.863 -36.489  76.339  1.00  0.00    -0.224 N 
ATOM     10  H2  UNL     1       1.541 -36.459  75.578  1.00  0.00     0.177 HD
BRANCH   9  11
HETATM   11  C7  UNL     1       0.625 -35.340  77.187  1.00  0.00     0.142 C 
BRANCH  11  12
HETATM   12  C6  UNL     1      -0.281 -34.398  76.403  1.00  0.00     0.060 C 
BRANCH  12  13
HETATM   13  C5  UNL     1      -1.557 -34.239  77.125  1.00  0.00    -0.041 A 
HETATM   14  C4  UNL     1      -2.619 -33.582  76.565  1.00  0.00     0.012 A 
HETATM   15  C3  UNL     1      -3.783 -33.463  77.281  1.00  0.00     0.049 A 
HETATM   16  C2  UNL     1      -3.918 -33.986  78.550  1.00  0.00     0.100 A 
HETATM   17  N7  UNL     1      -2.843 -34.618  79.044  1.00  0.00    -0.352 N 
HETATM   18  C14 UNL     1      -1.681 -34.761  78.384  1.00  0.00     0.096 A 
ATOM     19  H7  UNL     1      -2.913 -35.017  79.981  1.00  0.00     0.166 HD
BRANCH  16  20
HETATM   20  N1  UNL     1      -5.019 -33.859  79.194  1.00  0.00    -0.381 N 
HETATM   21  C1  UNL     1      -5.096 -33.862  80.637  1.00  0.00     0.147 C 
ATOM     22  H1  UNL     1      -5.883 -33.752  78.662  1.00  0.00     0.160 HD
ENDBRANCH  16  20
ENDBRANCH  12  13
ENDBRANCH  11  12
ENDBRANCH   9  11
ENDBRANCH   1   9
BRANCH   6  23
HETATM   23  N5  UNL     1      -2.588 -39.618  76.418  1.00  0.00    -0.224 N 
ATOM     24  H5  UNL     1      -3.015 -39.625  75.491  1.00  0.00     0.177 HD
BRANCH  23  25
HETATM   25  C10 UNL     1      -3.241 -40.251  77.611  1.00  0.00     0.140 C 
BRANCH  25  26
HETATM   26  C11 UNL     1      -4.584 -39.638  77.678  1.00  0.00     0.046 C 
BRANCH  26  27
HETATM   27  C12 UNL     1      -4.771 -38.195  77.508  1.00  0.00     0.168 C 
BRANCH  27  28
HETATM   28  O1  UNL     1      -5.064 -37.670  76.326  1.00  0.00    -0.396 OA
HETATM   29  C13 UNL     1      -4.403 -36.651  75.742  1.00  0.00     0.201 C 
ENDBRANCH  27  28
ENDBRANCH  26  27
ENDBRANCH  25  26
ENDBRANCH  23  25
ENDBRANCH   6  23
TORSDOF 10
ENDMDL
MODEL 2
REMARK VINA RESULT: -7.523098797      0.760      1.089
REMARK  10 active torsions:
REMARK  status: ('A' for Active; 'I' for Inactive)
REMARK    1  A    between atoms: N1_2  and  C2_4 
REMARK    2  A    between atoms: C5_7  and  C6_8 
REMARK    3  A    between atoms: C6_8  and  C7_9 
REMARK    4  A    between atoms: C7_9  and  N2_10 
REMARK    5  A    between atoms: N2_10  and  C8_12 
REMARK    6  A    between atoms: C9_17  and  N5_18 
REMARK    7  A    between atoms: N5_18  and  C10_20 
REMARK    8  A    between atoms: C10_20  and  C11_21 
REMARK    9  A    between atoms: C11_21  and  C12_22 
REMARK   10  A    between atoms: C12_22  and  O1_23 
ROOT
HETATM    1  C8  UNL     1       0.165 -37.515  76.763  1.00  0.00     0.707 A 
HETATM    2  N3  UNL     1       0.552 -38.630  77.440  1.00  0.00    -0.117 N 
ATOM      3  H3  UNL     1       1.448 -38.753  77.911  1.00  0.00     0.206 HD
HETATM    4  N4  UNL     1      -0.415 -39.532  77.393  1.00  0.00    -0.117 N 
ATOM      5  H4  UNL     1      -0.389 -40.459  77.818  1.00  0.00     0.206 HD
HETATM    6  C9  UNL     1      -1.438 -39.016  76.689  1.00  0.00     0.707 A 
HETATM    7  N6  UNL     1      -1.071 -37.783  76.310  1.00  0.00    -0.020 N 
ATOM      8  H6  UNL     1      -1.644 -37.144  75.759  1.00  0.00     0.203 HD
ENDROOT
BRANCH   1   9
HETATM    9  N2  UNL     1       0.857 -36.428  76.600  1.00  0.00    -0.224 N 
ATOM     10  H2  UNL     1       1.646 -36.390  75.954  1.00  0.00     0.177 HD
BRANCH   9  11
HETATM   11  C7  UNL     1       0.458 -35.274  77.377  1.00  0.00     0.142 C 
BRANCH  11  12
HETATM   12  C6  UNL     1      -0.312 -34.356  76.434  1.00  0.00     0.060 C 
BRANCH  12  13
HETATM   13  C5  UNL     1      -1.664 -34.129  76.976  1.00  0.00    -0.041 A 
HETATM   14  C4  UNL     1      -2.022 -34.580  78.217  1.00  0.00     0.012 A 
HETATM   15  C3  UNL     1      -3.294 -34.341  78.674  1.00  0.00     0.049 A 
HETATM   16  C2  UNL     1      -4.225 -33.659  77.919  1.00  0.00     0.100 A 
HETATM   17  N7  UNL     1      -3.815 -33.243  76.712  1.00  0.00    -0.352 N 
HETATM   18  C14 UNL     1      -2.582 -33.452  76.220  1.00  0.00     0.096 A 
ATOM     19  H7  UNL     1      -4.482 -32.735  76.130  1.00  0.00     0.166 HD
BRANCH  16  20
HETATM   20  N1  UNL     1      -5.406 -33.451  78.373  1.00  0.00    -0.381 N 
HETATM   21  C1  UNL     1      -5.675 -33.109  79.751  1.00  0.00     0.147 C 
ATOM     22  H1  UNL     1      -6.193 -33.531  77.730  1.00  0.00     0.160 HD
ENDBRANCH  16  20
ENDBRANCH  12  13
ENDBRANCH  11  12
ENDBRANCH   9  11
ENDBRANCH   1   9
BRANCH   6  23
HETATM   23  N5  UNL     1      -2.590 -39.556  76.395  1.00  0.00    -0.224 N 
ATOM     24  H5  UNL     1      -3.001 -39.496  75.463  1.00  0.00     0.177 HD
BRANCH  23  25
HETATM   25  C10 UNL     1      -3.262 -40.271  77.528  1.00  0.00     0.140 C 
BRANCH  25  26
HETATM   26  C11 UNL     1      -4.581 -39.619  77.661  1.00  0.00     0.046 C 
BRANCH  26  27
HETATM   27  C12 UNL     1      -4.736 -38.173  77.481  1.00  0.00     0.168 C 
BRANCH  27  28
HETATM   28  O1  UNL     1      -5.048 -37.652  76.302  1.00  0.00    -0.396 OA
HETATM   29  C13 UNL     1      -4.425 -36.605  75.726  1.00  0.00     0.201 C 
ENDBRANCH  27  28
ENDBRANCH  26  27
ENDBRANCH  25  26
ENDBRANCH  23  25
ENDBRANCH   6  23
TORSDOF 10
ENDMDL
MODEL 3
REMARK VINA RESULT: -7.361667870      1.396      2.231
REMARK  10 active torsions:
REMARK  status: ('A' for Active; 'I' for Inactive)
REMARK    1  A    between atoms: N1_2  and  C2_4 
REMARK    2  A    between atoms: C5_7  and  C6_8 
REMARK    3  A    between atoms: C6_8  and  C7_9 
REMARK    4  A    between atoms: C7_9  and  N2_10 
REMARK    5  A    between atoms: N2_10  and  C8_12 
REMARK    6  A    between atoms: C9_17  and  N5_18 
REMARK    7  A    between atoms: N5_18  and  C10_20 
REMARK    8  A    between atoms: C10_20  and  C11_21 
REMARK    9  A    between atoms: C11_21  and  C12_22 
REMARK   10  A    between atoms: C12_22  and  O1_23 
ROOT
HETATM    1  C8  UNL     1       0.007 -36.499  77.571  1.00  0.00     0.707 A 
HETATM    2  N3  UNL     1       0.633 -36.640  76.371  1.00  0.00    -0.117 N 
ATOM      3  H3  UNL     1       1.290 -35.973  75.967  1.00  0.00     0.206 HD
HETATM    4  N4  UNL     1       0.257 -37.778  75.809  1.00  0.00    -0.117 N 
ATOM      5  H4  UNL     1       0.573 -38.131  74.906  1.00  0.00     0.206 HD
HETATM    6  C9  UNL     1      -0.614 -38.387  76.634  1.00  0.00     0.707 A 
HETATM    7  N6  UNL     1      -0.757 -37.595  77.707  1.00  0.00    -0.020 N 
ATOM      8  H6  UNL     1      -1.357 -37.795  78.507  1.00  0.00     0.203 HD
ENDROOT
BRANCH   1   9
HETATM    9  N2  UNL     1       0.134 -35.507  78.399  1.00  0.00    -0.224 N 
ATOM     10  H2  UNL     1       1.041 -35.078  78.582  1.00  0.00     0.177 HD
BRANCH   9  11
HETATM   11  C7  UNL     1      -1.071 -35.037  79.051  1.00  0.00     0.142 C 
BRANCH  11  12
HETATM   12  C6  UNL     1      -2.014 -34.575  77.946  1.00  0.00     0.060 C 
BRANCH  12  13
HETATM   13  C5  UNL     1      -3.297 -34.165  78.544  1.00  0.00    -0.041 A 
HETATM   14  C4  UNL     1      -3.580 -34.401  79.863  1.00  0.00     0.012 A 
HETATM   15  C3  UNL     1      -4.790 -33.999  80.369  1.00  0.00     0.049 A 
HETATM   16  C2  UNL     1      -5.734 -33.364  79.590  1.00  0.00     0.100 A 
HETATM   17  N7  UNL     1      -5.399 -33.162  78.306  1.00  0.00    -0.352 N 
HETATM   18  C14 UNL     1      -4.229 -33.536  77.763  1.00  0.00     0.096 A 
ATOM     19  H7  UNL     1      -6.077 -32.694  77.705  1.00  0.00     0.166 HD
BRANCH  16  20
HETATM   20  N1  UNL     1      -6.856 -33.000  80.091  1.00  0.00    -0.381 N 
HETATM   21  C1  UNL     1      -7.395 -31.667  79.940  1.00  0.00     0.147 C 
ATOM     22  H1  UNL     1      -7.394 -33.683  80.623  1.00  0.00     0.160 HD
ENDBRANCH  16  20
ENDBRANCH  12  13
ENDBRANCH  11  12
ENDBRANCH   9  11
ENDBRANCH   1   9
BRANCH   6  23
HETATM   23  N5  UNL     1      -1.233 -39.526  76.480  1.00  0.00    -0.224 N 
ATOM     24  H5  UNL     1      -1.266 -40.015  75.585  1.00  0.00     0.177 HD
BRANCH  23  25
HETATM   25  C10 UNL     1      -1.893 -40.061  77.716  1.00  0.00     0.140 C 
BRANCH  25  26
HETATM   26  C11 UNL     1      -3.329 -40.136  77.378  1.00  0.00     0.046 C 
BRANCH  26  27
HETATM   27  C12 UNL     1      -4.205 -38.970  77.519  1.00  0.00     0.168 C 
BRANCH  27  28
HETATM   28  O1  UNL     1      -3.800 -37.754  77.177  1.00  0.00    -0.396 OA
HETATM   29  C13 UNL     1      -4.265 -37.047  76.128  1.00  0.00     0.201 C 
ENDBRANCH  27  28
ENDBRANCH  26  27
ENDBRANCH  25  26
ENDBRANCH  23  25
ENDBRANCH   6  23
TORSDOF 10
ENDMDL
MODEL 4
REMARK VINA RESULT: -7.129531519      1.583      2.137
REMARK  10 active torsions:
REMARK  status: ('A' for Active; 'I' for Inactive)
REMARK    1  A    between atoms: N1_2  and  C2_4 
REMARK    2  A    between atoms: C5_7  and  C6_8 
REMARK    3  A    between atoms: C6_8  and  C7_9 
REMARK    4  A    between atoms: C7_9  and  N2_10 
REMARK    5  A    between atoms: N2_10  and  C8_12 
REMARK    6  A    between atoms: C9_17  and  N5_18 
REMARK    7  A    between atoms: N5_18  and  C10_20 
REMARK    8  A    between atoms: C10_20  and  C11_21 
REMARK    9  A    between atoms: C11_21  and  C12_22 
REMARK   10  A    between atoms: C12_22  and  O1_23 
ROOT
HETATM    1  C8  UNL     1       0.004 -36.929  77.738  1.00  0.00     0.707 A 
HETATM    2  N3  UNL     1       0.675 -37.261  76.601  1.00  0.00    -0.117 N 
ATOM      3  H3  UNL     1       1.556 -36.847  76.295  1.00  0.00     0.206 HD
HETATM    4  N4  UNL     1       0.009 -38.204  75.955  1.00  0.00    -0.117 N 
ATOM      5  H4  UNL     1       0.287 -38.635  75.074  1.00  0.00     0.206 HD
HETATM    6  C9  UNL     1      -1.099 -38.495  76.661  1.00  0.00     0.707 A 
HETATM    7  N6  UNL     1      -1.089 -37.709  77.748  1.00  0.00    -0.020 N 
ATOM      8  H6  UNL     1      -1.805 -37.705  78.473  1.00  0.00     0.203 HD
ENDROOT
BRANCH   1   9
HETATM    9  N2  UNL     1       0.360 -36.043  78.617  1.00  0.00    -0.224 N 
ATOM     10  H2  UNL     1       1.253 -36.105  79.106  1.00  0.00     0.177 HD
BRANCH   9  11
HETATM   11  C7  UNL     1      -0.568 -34.961  78.872  1.00  0.00     0.142 C 
BRANCH  11  12
HETATM   12  C6  UNL     1      -1.083 -35.151  80.293  1.00  0.00     0.060 C 
BRANCH  12  13
HETATM   13  C5  UNL     1      -2.493 -34.724  80.359  1.00  0.00    -0.041 A 
HETATM   14  C4  UNL     1      -3.226 -34.501  79.225  1.00  0.00     0.012 A 
HETATM   15  C3  UNL     1      -4.535 -34.105  79.343  1.00  0.00     0.049 A 
HETATM   16  C2  UNL     1      -5.136 -33.923  80.570  1.00  0.00     0.100 A 
HETATM   17  N7  UNL     1      -4.366 -34.158  81.644  1.00  0.00    -0.352 N 
HETATM   18  C14 UNL     1      -3.081 -34.546  81.581  1.00  0.00     0.096 A 
ATOM     19  H7  UNL     1      -4.783 -34.033  82.566  1.00  0.00     0.166 HD
BRANCH  16  20
HETATM   20  N1  UNL     1      -6.360 -33.553  80.648  1.00  0.00    -0.381 N 
HETATM   21  C1  UNL     1      -7.055 -33.378  81.904  1.00  0.00     0.147 C 
ATOM     22  H1  UNL     1      -6.869 -33.374  79.783  1.00  0.00     0.160 HD
ENDBRANCH  16  20
ENDBRANCH  12  13
ENDBRANCH  11  12
ENDBRANCH   9  11
ENDBRANCH   1   9
BRANCH   6  23
HETATM   23  N5  UNL     1      -2.039 -39.361  76.395  1.00  0.00    -0.224 N 
ATOM     24  H5  UNL     1      -2.335 -39.573  75.442  1.00  0.00     0.177 HD
BRANCH  23  25
HETATM   25  C10 UNL     1      -2.650 -40.021  77.595  1.00  0.00     0.140 C 
BRANCH  25  26
HETATM   26  C11 UNL     1      -4.100 -39.765  77.473  1.00  0.00     0.046 C 
BRANCH  26  27
HETATM   27  C12 UNL     1      -4.635 -38.401  77.485  1.00  0.00     0.168 C 
BRANCH  27  28
HETATM   28  O1  UNL     1      -4.869 -37.739  76.359  1.00  0.00    -0.396 OA
HETATM   29  C13 UNL     1      -4.306 -36.563  76.018  1.00  0.00     0.201 C 
ENDBRANCH  27  28
ENDBRANCH  26  27
ENDBRANCH  25  26
ENDBRANCH  23  25
ENDBRANCH   6  23
TORSDOF 10
ENDMDL
MODEL 5
REMARK VINA RESULT: -7.113307169      1.700      3.300
REMARK  10 active torsions:
REMARK  status: ('A' for Active; 'I' for Inactive)
REMARK    1  A    between atoms: N1_2  and  C2_4 
REMARK    2  A    between atoms: C5_7  and  C6_8 
REMARK    3  A    between atoms: C6_8  and  C7_9 
REMARK    4  A    between atoms: C7_9  and  N2_10 
REMARK    5  A    between atoms: N2_10  and  C8_12 
REMARK    6  A    between atoms: C9_17  and  N5_18 
REMARK    7  A    between atoms: N5_18  and  C10_20 
REMARK    8  A    between atoms: C10_20  and  C11_21 
REMARK    9  A    between atoms: C11_21  and  C12_22 
REMARK   10  A    between atoms: C12_22  and  O1_23 
ROOT
HETATM    1  C8  UNL     1      -0.574 -34.712  76.723  1.00  0.00     0.707 A 
HETATM    2  N3  UNL     1       0.560 -34.484  77.441  1.00  0.00    -0.117 N 
ATOM      3  H3  UNL     1       0.909 -33.566  77.716  1.00  0.00     0.206 HD
HETATM    4  N4  UNL     1       1.140 -35.638  77.727  1.00  0.00    -0.117 N 
ATOM      5  H4  UNL     1       2.005 -35.758  78.254  1.00  0.00     0.206 HD
HETATM    6  C9  UNL     1       0.393 -36.626  77.202  1.00  0.00     0.707 A 
HETATM    7  N6  UNL     1      -0.651 -36.046  76.592  1.00  0.00    -0.020 N 
ATOM      8  H6  UNL     1      -1.393 -36.544  76.101  1.00  0.00     0.203 HD
ENDROOT
BRANCH   1   9
HETATM    9  N2  UNL     1      -1.398 -33.816  76.271  1.00  0.00    -0.224 N 
ATOM     10  H2  UNL     1      -1.092 -33.089  75.623  1.00  0.00     0.177 HD
BRANCH   9  11
HETATM   11  C7  UNL     1      -2.770 -33.896  76.726  1.00  0.00     0.142 C 
BRANCH  11  12
HETATM   12  C6  UNL     1      -2.723 -34.368  78.175  1.00  0.00     0.060 C 
BRANCH  12  13
HETATM   13  C5  UNL     1      -3.958 -33.948  78.861  1.00  0.00    -0.041 A 
HETATM   14  C4  UNL     1      -4.135 -34.151  80.203  1.00  0.00     0.012 A 
HETATM   15  C3  UNL     1      -5.304 -33.740  80.792  1.00  0.00     0.049 A 
HETATM   16  C2  UNL     1      -6.310 -33.130  80.074  1.00  0.00     0.100 A 
HETATM   17  N7  UNL     1      -6.078 -32.960  78.763  1.00  0.00    -0.352 N 
HETATM   18  C14 UNL     1      -4.952 -33.344  78.140  1.00  0.00     0.096 A 
ATOM     19  H7  UNL     1      -6.804 -32.510  78.205  1.00  0.00     0.166 HD
BRANCH  16  20
HETATM   20  N1  UNL     1      -7.391 -32.757  80.652  1.00  0.00    -0.381 N 
HETATM   21  C1  UNL     1      -7.922 -31.417  80.550  1.00  0.00     0.147 C 
ATOM     22  H1  UNL     1      -7.902 -33.440  81.212  1.00  0.00     0.160 HD
ENDBRANCH  16  20
ENDBRANCH  12  13
ENDBRANCH  11  12
ENDBRANCH   9  11
ENDBRANCH   1   9
BRANCH   6  23
HETATM   23  N5  UNL     1       0.590 -37.916  77.241  1.00  0.00    -0.224 N 
ATOM     24  H5  UNL     1       1.211 -38.355  77.921  1.00  0.00     0.177 HD
BRANCH  23  25
HETATM   25  C10 UNL     1      -0.164 -38.705  76.213  1.00  0.00     0.140 C 
BRANCH  25  26
HETATM   26  C11 UNL     1      -1.249 -39.369  76.964  1.00  0.00     0.046 C 
BRANCH  26  27
HETATM   27  C12 UNL     1      -2.657 -39.119  76.647  1.00  0.00     0.168 C 
BRANCH  27  28
HETATM   28  O1  UNL     1      -3.083 -37.914  76.290  1.00  0.00    -0.396 OA
HETATM   29  C13 UNL     1      -4.276 -37.381  76.621  1.00  0.00     0.201 C 
ENDBRANCH  27  28
ENDBRANCH  26  27
ENDBRANCH  25  26
ENDBRANCH  23  25
ENDBRANCH   6  23
TORSDOF 10
ENDMDL
