MODEL 1
REMARK VINA RESULT: -7.555363982      0.000      0.000
REMARK  10 active torsions:
REMARK  status: ('A' for Active; 'I' for Inactive)
REMARK    1  A    between atoms: C3_3  and  C4_4 
REMARK    2  A    between atoms: C4_4  and  N1_5 
REMARK    3  A    between atoms: N1_5  and  C5_7 
REMARK    4  A    between atoms: C6_10  and  N3_11 
REMARK    5  A    between atoms: C7_16  and  N5_17 
REMARK    6  A    between atoms: N5_17  and  C8_19 
REMARK    7  A    between atoms: C8_19  and  C9_20 
REMARK    8  A    between atoms: C9_20  and  C10_21 
REMARK    9  A    between atoms: C10_21  and  C11_22 
REMARK   10  A    between atoms: C11_22  and  N6_23 
ROOT
HETATM    1  C1  UNL     1      -3.857 -33.933  82.123  1.00  0.00     0.012 C 
HETATM    2  C2  UNL     1      -2.710 -34.305  82.223  1.00  0.00    -0.116 C 
HETATM    3  C3  UNL     1      -1.329 -34.748  82.349  1.00  0.00     0.113 C 
ENDROOT
BRANCH   3   4
HETATM    4  C4  UNL     1      -0.969 -35.672  81.188  1.00  0.00     0.150 C 
BRANCH   4   5
HETATM    5  N1  UNL     1      -0.577 -34.895  80.055  1.00  0.00    -0.224 N 
ATOM      6  H1  UNL     1      -0.327 -33.917  80.203  1.00  0.00     0.177 HD
BRANCH   5   7
HETATM    7  C5  UNL     1      -0.523 -35.357  78.868  1.00  0.00     0.707 A 
HETATM    8  N2  UNL     1      -0.394 -34.557  77.804  1.00  0.00    -0.022 N 
HETATM    9  C6  UNL     1      -0.344 -35.132  76.565  1.00  0.00     0.705 A 
ATOM     10  H2  UNL     1      -0.334 -33.545  77.914  1.00  0.00     0.203 HD
HETATM   11  N4  UNL     1      -0.423 -36.465  76.427  1.00  0.00    -0.022 N 
HETATM   12  C7  UNL     1      -0.554 -37.284  77.499  1.00  0.00     0.707 A 
ATOM     13  H4  UNL     1      -0.382 -36.871  75.492  1.00  0.00     0.203 HD
HETATM   14  N7  UNL     1      -0.601 -36.710  78.696  1.00  0.00    -0.022 N 
ATOM     15  H7  UNL     1      -0.699 -37.303  79.520  1.00  0.00     0.203 HD
BRANCH   9  16
HETATM   16  N3  UNL     1      -0.220 -34.369  75.543  1.00  0.00    -0.234 N 
ATOM     17  H32 UNL     1      -0.879 -33.608  75.373  1.00  0.00     0.174 HD
ATOM     18  H31 UNL     1       0.552 -34.540  74.900  1.00  0.00     0.174 HD
ENDBRANCH   9  16
BRANCH  12  19
HETATM   19  N5  UNL     1      -0.631 -38.567  77.394  1.00  0.00    -0.225 N 
ATOM     20  H5  UNL     1       0.054 -39.173  77.845  1.00  0.00     0.177 HD
BRANCH  19  21
HETATM   21  C8  UNL     1      -1.700 -39.111  76.630  1.00  0.00     0.138 C 
BRANCH  21  22
HETATM   22  C9  UNL     1      -2.979 -39.415  77.315  1.00  0.00     0.022 C 
BRANCH  22  23
HETATM   23  C10 UNL     1      -4.049 -38.407  77.258  1.00  0.00     0.022 C 
BRANCH  23  24
HETATM   24  C11 UNL     1      -4.098 -37.436  76.142  1.00  0.00     0.128 C 
BRANCH  24  25
HETATM   25  N6  UNL     1      -4.025 -36.044  76.531  1.00  0.00    -0.366 N 
HETATM   26  C12 UNL     1      -4.060 -35.754  77.875  1.00  0.00     0.090 A 
HETATM   27  C13 UNL     1      -4.011 -34.482  78.369  1.00  0.00     0.017 A 
HETATM   28  C14 UNL     1      -3.923 -33.405  77.515  1.00  0.00     0.003 A 
HETATM   29  C15 UNL     1      -3.887 -33.684  76.173  1.00  0.00     0.017 A 
HETATM   30  C16 UNL     1      -3.940 -35.006  75.727  1.00  0.00     0.090 A 
ENDBRANCH  24  25
ENDBRANCH  23  24
ENDBRANCH  22  23
ENDBRANCH  21  22
ENDBRANCH  19  21
ENDBRANCH  12  19
ENDBRANCH   5   7
ENDBRANCH   4   5
ENDBRANCH   3   4
TORSDOF 10
ENDMDL
MODEL 2
REMARK VINA RESULT: -7.365335396      1.385      4.075
REMARK  10 active torsions:
REMARK  status: ('A' for Active; 'I' for Inactive)
REMARK    1  A    between atoms: C3_3  and  C4_4 
REMARK    2  A    between atoms: C4_4  and  N1_5 
REMARK    3  A    between atoms: N1_5  and  C5_7 
REMARK    4  A    between atoms: C6_10  and  N3_11 
REMARK    5  A    between atoms: C7_16  and  N5_17 
REMARK    6  A    between atoms: N5_17  and  C8_19 
REMARK    7  A    between atoms: C8_19  and  C9_20 
REMARK    8  A    between atoms: C9_20  and  C10_21 
REMARK    9  A    between atoms: C10_21  and  C11_22 
REMARK   10  A    between atoms: C11_22  and  N6_23 
ROOT
HETATM    1  C1  UNL     1      -4.614 -38.041  77.411  1.00  0.00     0.012 C 
HETATM    2  C2  UNL     1      -3.930 -39.040  77.375  1.00  0.00    -0.116 C 
HETATM    3  C3  UNL     1      -3.114 -40.244  77.330  1.00  0.00     0.113 C 
ENDROOT
BRANCH   3   4
HETATM    4  C4  UNL     1      -1.653 -39.894  77.601  1.00  0.00     0.150 C 
BRANCH   4   5
HETATM    5  N1  UNL     1      -1.181 -38.982  76.607  1.00  0.00    -0.224 N 
ATOM      6  H1  UNL     1      -1.339 -39.214  75.625  1.00  0.00     0.177 HD
BRANCH   5   7
HETATM    7  C5  UNL     1      -0.575 -37.894  76.879  1.00  0.00     0.707 A 
HETATM    8  N2  UNL     1       0.176 -37.259  75.973  1.00  0.00    -0.022 N 
HETATM    9  C6  UNL     1       0.794 -36.098  76.344  1.00  0.00     0.705 A 
ATOM     10  H2  UNL     1       0.285 -37.631  75.029  1.00  0.00     0.203 HD
HETATM   11  N4  UNL     1       0.646 -35.613  77.587  1.00  0.00    -0.022 N 
HETATM   12  C7  UNL     1      -0.114 -36.250  78.513  1.00  0.00     0.707 A 
ATOM     13  H4  UNL     1       1.116 -34.744  77.842  1.00  0.00     0.203 HD
HETATM   14  N7  UNL     1      -0.707 -37.377  78.136  1.00  0.00    -0.022 N 
ATOM     15  H7  UNL     1      -1.284 -37.876  78.812  1.00  0.00     0.203 HD
BRANCH   9  16
HETATM   16  N3  UNL     1       1.515 -35.486  75.479  1.00  0.00    -0.234 N 
ATOM     17  H32 UNL     1       1.928 -35.986  74.692  1.00  0.00     0.174 HD
ATOM     18  H31 UNL     1       1.668 -34.485  75.596  1.00  0.00     0.174 HD
ENDBRANCH   9  16
BRANCH  12  19
HETATM   19  N5  UNL     1      -0.273 -35.805  79.713  1.00  0.00    -0.225 N 
ATOM     20  H5  UNL     1       0.403 -35.165  80.130  1.00  0.00     0.177 HD
BRANCH  19  21
HETATM   21  C8  UNL     1      -1.419 -36.234  80.437  1.00  0.00     0.138 C 
BRANCH  21  22
HETATM   22  C9  UNL     1      -2.137 -35.248  81.279  1.00  0.00     0.022 C 
BRANCH  22  23
HETATM   23  C10 UNL     1      -3.256 -34.508  80.673  1.00  0.00     0.022 C 
BRANCH  23  24
HETATM   24  C11 UNL     1      -4.019 -35.100  79.552  1.00  0.00     0.128 C 
BRANCH  24  25
HETATM   25  N6  UNL     1      -3.971 -34.356  78.312  1.00  0.00    -0.366 N 
HETATM   26  C12 UNL     1      -2.822 -34.437  77.562  1.00  0.00     0.090 A 
HETATM   27  C13 UNL     1      -2.648 -33.773  76.381  1.00  0.00     0.017 A 
HETATM   28  C14 UNL     1      -3.647 -32.970  75.878  1.00  0.00     0.003 A 
HETATM   29  C15 UNL     1      -4.798 -32.883  76.619  1.00  0.00     0.017 A 
HETATM   30  C16 UNL     1      -4.918 -33.586  77.820  1.00  0.00     0.090 A 
ENDBRANCH  24  25
ENDBRANCH  23  24
ENDBRANCH  22  23
ENDBRANCH  21  22
ENDBRANCH  19  21
ENDBRANCH  12  19
ENDBRANCH   5   7
ENDBRANCH   4   5
ENDBRANCH   3   4
TORSDOF 10
ENDMDL
MODEL 3
REMARK VINA RESULT: -7.357546084      1.418      4.804
REMARK  10 active torsions:
REMARK  status: ('A' for Active; 'I' for Inactive)
REMARK    1  A    between atoms: C3_3  and  C4_4 
REMARK    2  A    between atoms: C4_4  and  N1_5 
REMARK    3  A    between atoms: N1_5  and  C5_7 
REMARK    4  A    between atoms: C6_10  and  N3_11 
REMARK    5  A    between atoms: C7_16  and  N5_17 
REMARK    6  A    between atoms: N5_17  and  C8_19 
REMARK    7  A    between atoms: C8_19  and  C9_20 
REMARK    8  A    between atoms: C9_20  and  C10_21 
REMARK    9  A    between atoms: C10_21  and  C11_22 
REMARK   10  A    between atoms: C11_22  and  N6_23 
ROOT
HETATM    1  C1  UNL     1      -4.763 -38.105  77.568  1.00  0.00     0.012 C 
HETATM    2  C2  UNL     1      -4.017 -39.040  77.379  1.00  0.00    -0.116 C 
HETATM    3  C3  UNL     1      -3.126 -40.168  77.149  1.00  0.00     0.113 C 
ENDROOT
BRANCH   3   4
HETATM    4  C4  UNL     1      -1.678 -39.745  77.379  1.00  0.00     0.150 C 
BRANCH   4   5
HETATM    5  N1  UNL     1      -1.336 -38.683  76.487  1.00  0.00    -0.224 N 
ATOM      6  H1  UNL     1      -1.681 -38.728  75.528  1.00  0.00     0.177 HD
BRANCH   5   7
HETATM    7  C5  UNL     1      -0.624 -37.681  76.825  1.00  0.00     0.707 A 
HETATM    8  N2  UNL     1       0.614 -37.826  77.312  1.00  0.00    -0.022 N 
HETATM    9  C6  UNL     1       1.312 -36.701  77.651  1.00  0.00     0.705 A 
ATOM     10  H2  UNL     1       1.025 -38.752  77.427  1.00  0.00     0.203 HD
HETATM   11  N4  UNL     1       0.764 -35.485  77.495  1.00  0.00    -0.022 N 
HETATM   12  C7  UNL     1      -0.489 -35.327  77.002  1.00  0.00     0.707 A 
ATOM     13  H4  UNL     1       1.305 -34.659  77.754  1.00  0.00     0.203 HD
HETATM   14  N7  UNL     1      -1.154 -36.431  76.678  1.00  0.00    -0.022 N 
ATOM     15  H7  UNL     1      -2.099 -36.341  76.304  1.00  0.00     0.203 HD
BRANCH   9  16
HETATM   16  N3  UNL     1       2.497 -36.836  78.118  1.00  0.00    -0.234 N 
ATOM     17  H32 UNL     1       3.067 -37.647  77.878  1.00  0.00     0.174 HD
ATOM     18  H31 UNL     1       2.860 -36.112  78.737  1.00  0.00     0.174 HD
ENDBRANCH   9  16
BRANCH  12  19
HETATM   19  N5  UNL     1      -1.037 -34.171  76.842  1.00  0.00    -0.225 N 
ATOM     20  H5  UNL     1      -0.561 -33.318  77.136  1.00  0.00     0.177 HD
BRANCH  19  21
HETATM   21  C8  UNL     1      -2.326 -34.121  76.244  1.00  0.00     0.138 C 
BRANCH  21  22
HETATM   22  C9  UNL     1      -3.458 -33.591  77.040  1.00  0.00     0.022 C 
BRANCH  22  23
HETATM   23  C10 UNL     1      -4.130 -34.505  77.978  1.00  0.00     0.022 C 
BRANCH  23  24
HETATM   24  C11 UNL     1      -4.354 -34.098  79.383  1.00  0.00     0.128 C 
BRANCH  24  25
HETATM   25  N6  UNL     1      -3.412 -34.637  80.340  1.00  0.00    -0.366 N 
HETATM   26  C12 UNL     1      -2.596 -35.662  79.924  1.00  0.00     0.090 A 
HETATM   27  C13 UNL     1      -1.676 -36.264  80.734  1.00  0.00     0.017 A 
HETATM   28  C14 UNL     1      -1.524 -35.856  82.041  1.00  0.00     0.003 A 
HETATM   29  C15 UNL     1      -2.333 -34.833  82.465  1.00  0.00     0.017 A 
HETATM   30  C16 UNL     1      -3.256 -34.257  81.590  1.00  0.00     0.090 A 
ENDBRANCH  24  25
ENDBRANCH  23  24
ENDBRANCH  22  23
ENDBRANCH  21  22
ENDBRANCH  19  21
ENDBRANCH  12  19
ENDBRANCH   5   7
ENDBRANCH   4   5
ENDBRANCH   3   4
TORSDOF 10
ENDMDL
MODEL 4
REMARK VINA RESULT: -7.350969764      1.438      3.573
REMARK  10 active torsions:
REMARK  status: ('A' for Active; 'I' for Inactive)
REMARK    1  A    between atoms: C3_3  and  C4_4 
REMARK    2  A    between atoms: C4_4  and  N1_5 
REMARK    3  A    between atoms: N1_5  and  C5_7 
REMARK    4  A    between atoms: C6_10  and  N3_11 
REMARK    5  A    between atoms: C7_16  and  N5_17 
REMARK    6  A    between atoms: N5_17  and  C8_19 
REMARK    7  A    between atoms: C8_19  and  C9_20 
REMARK    8  A    between atoms: C9_20  and  C10_21 
REMARK    9  A    between atoms: C10_21  and  C11_22 
REMARK   10  A    between atoms: C11_22  and  N6_23 
ROOT
HETATM    1  C1  UNL     1      -4.554 -33.979  80.012  1.00  0.00     0.012 C 
HETATM    2  C2  UNL     1      -3.579 -34.533  80.467  1.00  0.00    -0.116 C 
HETATM    3  C3  UNL     1      -2.408 -35.197  81.021  1.00  0.00     0.113 C 
ENDROOT
BRANCH   3   4
HETATM    4  C4  UNL     1      -1.847 -36.194  80.010  1.00  0.00     0.150 C 
BRANCH   4   5
HETATM    5  N1  UNL     1      -0.526 -35.805  79.628  1.00  0.00    -0.224 N 
ATOM      6  H1  UNL     1       0.204 -35.810  80.341  1.00  0.00     0.177 HD
BRANCH   5   7
HETATM    7  C5  UNL     1      -0.210 -35.451  78.445  1.00  0.00     0.707 A 
HETATM    8  N2  UNL     1       0.994 -35.717  77.927  1.00  0.00    -0.022 N 
HETATM    9  C6  UNL     1       1.254 -35.304  76.650  1.00  0.00     0.705 A 
ATOM     10  H2  UNL     1       1.699 -36.215  78.470  1.00  0.00     0.203 HD
HETATM   11  N4  UNL     1       0.321 -34.650  75.941  1.00  0.00    -0.022 N 
HETATM   12  C7  UNL     1      -0.903 -34.376  76.457  1.00  0.00     0.707 A 
ATOM     13  H4  UNL     1       0.537 -34.352  74.989  1.00  0.00     0.203 HD
HETATM   14  N7  UNL     1      -1.139 -34.784  77.699  1.00  0.00    -0.022 N 
ATOM     15  H7  UNL     1      -2.052 -34.592  78.112  1.00  0.00     0.203 HD
BRANCH   9  16
HETATM   16  N3  UNL     1       2.407 -35.556  76.150  1.00  0.00    -0.234 N 
ATOM     17  H32 UNL     1       2.529 -35.661  75.143  1.00  0.00     0.174 HD
ATOM     18  H31 UNL     1       3.201 -35.651  76.782  1.00  0.00     0.174 HD
ENDBRANCH   9  16
BRANCH  12  19
HETATM   19  N5  UNL     1      -1.816 -33.750  75.797  1.00  0.00    -0.225 N 
ATOM     20  H5  UNL     1      -1.647 -33.425  74.844  1.00  0.00     0.177 HD
BRANCH  19  21
HETATM   21  C8  UNL     1      -3.067 -33.527  76.435  1.00  0.00     0.138 C 
BRANCH  21  22
HETATM   22  C9  UNL     1      -4.266 -34.222  75.909  1.00  0.00     0.022 C 
BRANCH  22  23
HETATM   23  C10 UNL     1      -4.249 -35.694  75.872  1.00  0.00     0.022 C 
BRANCH  23  24
HETATM   24  C11 UNL     1      -4.267 -36.471  77.131  1.00  0.00     0.128 C 
BRANCH  24  25
HETATM   25  N6  UNL     1      -3.554 -37.730  77.089  1.00  0.00    -0.366 N 
HETATM   26  C12 UNL     1      -4.219 -38.855  77.517  1.00  0.00     0.090 A 
HETATM   27  C13 UNL     1      -3.652 -40.097  77.539  1.00  0.00     0.017 A 
HETATM   28  C14 UNL     1      -2.354 -40.280  77.120  1.00  0.00     0.003 A 
HETATM   29  C15 UNL     1      -1.683 -39.164  76.690  1.00  0.00     0.017 A 
HETATM   30  C16 UNL     1      -2.314 -37.919  76.691  1.00  0.00     0.090 A 
ENDBRANCH  24  25
ENDBRANCH  23  24
ENDBRANCH  22  23
ENDBRANCH  21  22
ENDBRANCH  19  21
ENDBRANCH  12  19
ENDBRANCH   5   7
ENDBRANCH   4   5
ENDBRANCH   3   4
TORSDOF 10
ENDMDL
MODEL 5
REMARK VINA RESULT: -7.319619203      1.039      4.310
REMARK  10 active torsions:
REMARK  status: ('A' for Active; 'I' for Inactive)
REMARK    1  A    between atoms: C3_3  and  C4_4 
REMARK    2  A    between atoms: C4_4  and  N1_5 
REMARK    3  A    between atoms: N1_5  and  C5_7 
REMARK    4  A    between atoms: C6_10  and  N3_11 
REMARK    5  A    between atoms: C7_16  and  N5_17 
REMARK    6  A    between atoms: N5_17  and  C8_19 
REMARK    7  A    between atoms: C8_19  and  C9_20 
REMARK    8  A    between atoms: C9_20  and  C10_21 
REMARK    9  A    between atoms: C10_21  and  C11_22 
REMARK   10  A    between atoms: C11_22  and  N6_23 
ROOT
HETATM    1  C1  UNL     1      -3.937 -40.082  77.416  1.00  0.00     0.012 C 
HETATM    2  C2  UNL     1      -2.740 -40.026  77.589  1.00  0.00    -0.116 C 
HETATM    3  C3  UNL     1      -1.302 -39.962  77.802  1.00  0.00     0.113 C 
ENDROOT
BRANCH   3   4
HETATM    4  C4  UNL     1      -0.640 -39.180  76.670  1.00  0.00     0.150 C 
BRANCH   4   5
HETATM    5  N1  UNL     1       0.287 -38.237  77.211  1.00  0.00    -0.224 N 
ATOM      6  H1  UNL     1       1.212 -38.572  77.484  1.00  0.00     0.177 HD
BRANCH   5   7
HETATM    7  C5  UNL     1       0.023 -37.000  77.370  1.00  0.00     0.707 A 
HETATM    8  N2  UNL     1      -0.108 -36.167  76.332  1.00  0.00    -0.022 N 
HETATM    9  C6  UNL     1      -0.391 -34.855  76.588  1.00  0.00     0.705 A 
ATOM     10  H2  UNL     1       0.001 -36.502  75.375  1.00  0.00     0.203 HD
HETATM   11  N4  UNL     1      -0.534 -34.421  77.851  1.00  0.00    -0.022 N 
HETATM   12  C7  UNL     1      -0.404 -35.258  78.910  1.00  0.00     0.707 A 
ATOM     13  H4  UNL     1      -0.747 -33.437  78.018  1.00  0.00     0.203 HD
HETATM   14  N7  UNL     1      -0.128 -36.530  78.644  1.00  0.00    -0.022 N 
ATOM     15  H7  UNL     1      -0.025 -37.181  79.421  1.00  0.00     0.203 HD
BRANCH   9  16
HETATM   16  N3  UNL     1      -0.517 -34.053  75.597  1.00  0.00    -0.234 N 
ATOM     17  H32 UNL     1      -1.411 -33.947  75.118  1.00  0.00     0.174 HD
ATOM     18  H31 UNL     1       0.299 -33.521  75.296  1.00  0.00     0.174 HD
ENDBRANCH   9  16
BRANCH  12  19
HETATM   19  N5  UNL     1      -0.537 -34.866  80.131  1.00  0.00    -0.225 N 
ATOM     20  H5  UNL     1      -0.282 -33.919  80.410  1.00  0.00     0.177 HD
BRANCH  19  21
HETATM   21  C8  UNL     1      -1.051 -35.795  81.077  1.00  0.00     0.138 C 
BRANCH  21  22
HETATM   22  C9  UNL     1      -2.241 -35.412  81.874  1.00  0.00     0.022 C 
BRANCH  22  23
HETATM   23  C10 UNL     1      -3.097 -34.330  81.360  1.00  0.00     0.022 C 
BRANCH  23  24
HETATM   24  C11 UNL     1      -4.338 -34.651  80.620  1.00  0.00     0.128 C 
BRANCH  24  25
HETATM   25  N6  UNL     1      -4.158 -34.955  79.217  1.00  0.00    -0.366 N 
HETATM   26  C12 UNL     1      -4.231 -33.912  78.323  1.00  0.00     0.090 A 
HETATM   27  C13 UNL     1      -4.091 -34.070  76.974  1.00  0.00     0.017 A 
HETATM   28  C14 UNL     1      -3.866 -35.318  76.437  1.00  0.00     0.003 A 
HETATM   29  C15 UNL     1      -3.791 -36.364  77.320  1.00  0.00     0.017 A 
HETATM   30  C16 UNL     1      -3.942 -36.141  78.690  1.00  0.00     0.090 A 
ENDBRANCH  24  25
ENDBRANCH  23  24
ENDBRANCH  22  23
ENDBRANCH  21  22
ENDBRANCH  19  21
ENDBRANCH  12  19
ENDBRANCH   5   7
ENDBRANCH   4   5
ENDBRANCH   3   4
TORSDOF 10
ENDMDL
