MODEL 1
REMARK VINA RESULT: -8.370772520      0.000      0.000
REMARK  7 active torsions:
REMARK  status: ('A' for Active; 'I' for Inactive)
REMARK    1  A    between atoms: C1_4  and  C2_6 
REMARK    2  A    between atoms: C5_9  and  O1_10 
REMARK    3  A    between atoms: O1_10  and  C6_11 
REMARK    4  A    between atoms: C6_11  and  C7_12 
REMARK    5  A    between atoms: C7_12  and  C8_13 
REMARK    6  A    between atoms: C8_13  and  C9_14 
REMARK    7  A    between atoms: C9_14  and  N3_15 
REMARK       I    between atoms: N4_19  and  C13_20 
ROOT
HETATM    1  C7  UNL     1      -1.543 -34.677  82.134  1.00  0.00     0.028 C 
ENDROOT
BRANCH   1   2
HETATM    2  C6  UNL     1      -0.889 -35.924  81.616  1.00  0.00     0.175 C 
BRANCH   2   3
HETATM    3  O1  UNL     1      -0.515 -35.826  80.302  1.00  0.00    -0.351 OA
BRANCH   3   4
HETATM    4  C5  UNL     1      -1.335 -35.839  79.219  1.00  0.00     0.068 A 
HETATM    5  C4  UNL     1      -1.270 -34.903  78.229  1.00  0.00     0.037 A 
HETATM    6  C3  UNL     1      -2.137 -34.974  77.139  1.00  0.00     0.017 A 
HETATM    7  C2  UNL     1      -3.067 -35.993  77.060  1.00  0.00     0.005 A 
HETATM    8  C16 UNL     1      -3.111 -36.924  78.075  1.00  0.00     0.017 A 
HETATM    9  C15 UNL     1      -2.273 -36.875  79.150  1.00  0.00     0.037 A 
BRANCH   7  10
HETATM   10  C1  UNL     1      -3.940 -36.013  75.903  1.00  0.00     0.120 C 
HETATM   11  N1  UNL     1      -3.996 -35.016  75.112  1.00  0.00    -0.387 N 
ATOM     12  H12 UNL     1      -4.610 -35.030  74.298  1.00  0.00     0.157 HD
ATOM     13  H11 UNL     1      -3.416 -34.198  75.304  1.00  0.00     0.157 HD
HETATM   14  N2  UNL     1      -4.742 -37.143  75.640  1.00  0.00    -0.082 NA
ENDBRANCH   7  10
ENDBRANCH   3   4
ENDBRANCH   2   3
ENDBRANCH   1   2
BRANCH   1  15
HETATM   15  C8  UNL     1      -2.992 -34.950  82.429  1.00  0.00     0.022 C 
BRANCH  15  16
HETATM   16  C9  UNL     1      -3.743 -33.679  82.592  1.00  0.00     0.129 C 
BRANCH  16  17
HETATM   17  N3  UNL     1      -4.552 -33.410  81.378  1.00  0.00    -0.352 N 
HETATM   18  C10 UNL     1      -4.200 -33.992  80.226  1.00  0.00     0.093 A 
HETATM   19  C11 UNL     1      -4.946 -33.749  79.088  1.00  0.00     0.035 A 
HETATM   20  C12 UNL     1      -6.047 -32.905  79.165  1.00  0.00     0.102 A 
HETATM   21  N4  UNL     1      -6.376 -32.335  80.335  1.00  0.00    -0.293 N 
HETATM   22  C13 UNL     1      -7.505 -31.472  80.407  1.00  0.00     0.193 C 
HETATM   23  C14 UNL     1      -5.616 -32.607  81.407  1.00  0.00     0.192 A 
HETATM   24  N5  UNL     1      -8.502 -31.636  79.639  1.00  0.00    -0.373 N 
HETATM   25  N6  UNL     1      -7.543 -30.404  81.342  1.00  0.00    -0.063 NA
ATOM     26  H52 UNL     1      -8.474 -32.404  78.968  1.00  0.00     0.158 HD
ATOM     27  H51 UNL     1      -9.311 -31.017  79.692  1.00  0.00     0.158 HD
ENDBRANCH  16  17
ENDBRANCH  15  16
ENDBRANCH   1  15
TORSDOF 7
ENDMDL
MODEL 2
REMARK VINA RESULT: -8.264663159      1.741      2.643
REMARK  7 active torsions:
REMARK  status: ('A' for Active; 'I' for Inactive)
REMARK    1  A    between atoms: C1_4  and  C2_6 
REMARK    2  A    between atoms: C5_9  and  O1_10 
REMARK    3  A    between atoms: O1_10  and  C6_11 
REMARK    4  A    between atoms: C6_11  and  C7_12 
REMARK    5  A    between atoms: C7_12  and  C8_13 
REMARK    6  A    between atoms: C8_13  and  C9_14 
REMARK    7  A    between atoms: C9_14  and  N3_15 
REMARK       I    between atoms: N4_19  and  C13_20 
ROOT
HETATM    1  C7  UNL     1      -1.661 -34.949  82.630  1.00  0.00     0.028 C 
ENDROOT
BRANCH   1   2
HETATM    2  C6  UNL     1      -1.745 -35.959  81.523  1.00  0.00     0.175 C 
BRANCH   2   3
HETATM    3  O1  UNL     1      -1.262 -35.487  80.330  1.00  0.00    -0.351 OA
BRANCH   3   4
HETATM    4  C5  UNL     1      -1.985 -34.935  79.321  1.00  0.00     0.068 A 
HETATM    5  C4  UNL     1      -3.302 -34.604  79.447  1.00  0.00     0.037 A 
HETATM    6  C3  UNL     1      -3.988 -34.035  78.376  1.00  0.00     0.017 A 
HETATM    7  C2  UNL     1      -3.335 -33.805  77.179  1.00  0.00     0.005 A 
HETATM    8  C16 UNL     1      -2.005 -34.150  77.080  1.00  0.00     0.017 A 
HETATM    9  C15 UNL     1      -1.314 -34.707  78.115  1.00  0.00     0.037 A 
BRANCH   7  10
HETATM   10  C1  UNL     1      -4.101 -33.211  76.102  1.00  0.00     0.120 C 
HETATM   11  N1  UNL     1      -3.518 -32.593  75.152  1.00  0.00    -0.387 N 
ATOM     12  H12 UNL     1      -4.058 -32.175  74.394  1.00  0.00     0.157 HD
ATOM     13  H11 UNL     1      -2.501 -32.520  75.159  1.00  0.00     0.157 HD
HETATM   14  N2  UNL     1      -5.507 -33.311  76.094  1.00  0.00    -0.082 NA
ENDBRANCH   7  10
ENDBRANCH   3   4
ENDBRANCH   2   3
ENDBRANCH   1   2
BRANCH   1  15
HETATM   15  C8  UNL     1      -3.046 -34.556  83.063  1.00  0.00     0.022 C 
BRANCH  15  16
HETATM   16  C9  UNL     1      -3.309 -33.128  82.748  1.00  0.00     0.129 C 
BRANCH  16  17
HETATM   17  N3  UNL     1      -4.714 -32.788  83.080  1.00  0.00    -0.352 N 
HETATM   18  C10 UNL     1      -5.222 -33.208  84.244  1.00  0.00     0.093 A 
HETATM   19  C11 UNL     1      -6.531 -32.897  84.564  1.00  0.00     0.035 A 
HETATM   20  C12 UNL     1      -7.290 -32.154  83.669  1.00  0.00     0.102 A 
HETATM   21  N4  UNL     1      -6.754 -31.746  82.509  1.00  0.00    -0.293 N 
HETATM   22  C13 UNL     1      -7.536 -30.985  81.597  1.00  0.00     0.193 C 
HETATM   23  C14 UNL     1      -5.478 -32.077  82.250  1.00  0.00     0.192 A 
HETATM   24  N5  UNL     1      -8.459 -30.218  82.012  1.00  0.00    -0.373 N 
HETATM   25  N6  UNL     1      -7.305 -31.065  80.198  1.00  0.00    -0.063 NA
ATOM     26  H52 UNL     1      -8.624 -30.160  83.017  1.00  0.00     0.158 HD
ATOM     27  H51 UNL     1      -9.020 -29.672  81.357  1.00  0.00     0.158 HD
ENDBRANCH  16  17
ENDBRANCH  15  16
ENDBRANCH   1  15
TORSDOF 7
ENDMDL
MODEL 3
REMARK VINA RESULT: -8.204827641      1.947      5.365
REMARK  7 active torsions:
REMARK  status: ('A' for Active; 'I' for Inactive)
REMARK    1  A    between atoms: C1_4  and  C2_6 
REMARK    2  A    between atoms: C5_9  and  O1_10 
REMARK    3  A    between atoms: O1_10  and  C6_11 
REMARK    4  A    between atoms: C6_11  and  C7_12 
REMARK    5  A    between atoms: C7_12  and  C8_13 
REMARK    6  A    between atoms: C8_13  and  C9_14 
REMARK    7  A    between atoms: C9_14  and  N3_15 
REMARK       I    between atoms: N4_19  and  C13_20 
ROOT
HETATM    1  C7  UNL     1      -1.373 -34.489  82.020  1.00  0.00     0.028 C 
ENDROOT
BRANCH   1   2
HETATM    2  C6  UNL     1      -2.515 -35.086  82.789  1.00  0.00     0.175 C 
BRANCH   2   3
HETATM    3  O1  UNL     1      -3.389 -34.143  83.266  1.00  0.00    -0.351 OA
BRANCH   3   4
HETATM    4  C5  UNL     1      -4.399 -33.549  82.581  1.00  0.00     0.068 A 
HETATM    5  C4  UNL     1      -5.030 -34.143  81.527  1.00  0.00     0.037 A 
HETATM    6  C3  UNL     1      -6.066 -33.484  80.867  1.00  0.00     0.017 A 
HETATM    7  C2  UNL     1      -6.455 -32.222  81.277  1.00  0.00     0.005 A 
HETATM    8  C16 UNL     1      -5.799 -31.646  82.342  1.00  0.00     0.017 A 
HETATM    9  C15 UNL     1      -4.784 -32.273  83.004  1.00  0.00     0.037 A 
BRANCH   7  10
HETATM   10  C1  UNL     1      -7.537 -31.587  80.551  1.00  0.00     0.120 C 
HETATM   11  N1  UNL     1      -7.891 -32.016  79.404  1.00  0.00    -0.387 N 
ATOM     12  H12 UNL     1      -8.653 -31.569  78.893  1.00  0.00     0.157 HD
ATOM     13  H11 UNL     1      -7.402 -32.815  79.001  1.00  0.00     0.157 HD
HETATM   14  N2  UNL     1      -8.213 -30.483  81.109  1.00  0.00    -0.082 NA
ENDBRANCH   7  10
ENDBRANCH   3   4
ENDBRANCH   2   3
ENDBRANCH   1   2
BRANCH   1  15
HETATM   15  C8  UNL     1      -0.970 -35.420  80.909  1.00  0.00     0.022 C 
BRANCH  15  16
HETATM   16  C9  UNL     1      -2.157 -35.837  80.118  1.00  0.00     0.129 C 
BRANCH  16  17
HETATM   17  N3  UNL     1      -2.159 -35.143  78.807  1.00  0.00    -0.352 N 
HETATM   18  C10 UNL     1      -0.994 -34.939  78.183  1.00  0.00     0.093 A 
HETATM   19  C11 UNL     1      -0.983 -34.293  76.961  1.00  0.00     0.035 A 
HETATM   20  C12 UNL     1      -2.184 -33.869  76.407  1.00  0.00     0.102 A 
HETATM   21  N4  UNL     1      -3.339 -34.087  77.056  1.00  0.00    -0.293 N 
HETATM   22  C13 UNL     1      -4.565 -33.651  76.483  1.00  0.00     0.193 C 
HETATM   23  C14 UNL     1      -3.289 -34.719  78.239  1.00  0.00     0.192 A 
HETATM   24  N5  UNL     1      -4.711 -33.588  75.224  1.00  0.00    -0.373 N 
HETATM   25  N6  UNL     1      -5.658 -33.275  77.307  1.00  0.00    -0.063 NA
ATOM     26  H52 UNL     1      -3.925 -33.860  74.632  1.00  0.00     0.158 HD
ATOM     27  H51 UNL     1      -5.591 -33.276  74.813  1.00  0.00     0.158 HD
ENDBRANCH  16  17
ENDBRANCH  15  16
ENDBRANCH   1  15
TORSDOF 7
ENDMDL
MODEL 4
REMARK VINA RESULT: -8.204233982      2.230      6.352
REMARK  7 active torsions:
REMARK  status: ('A' for Active; 'I' for Inactive)
REMARK    1  A    between atoms: C1_4  and  C2_6 
REMARK    2  A    between atoms: C5_9  and  O1_10 
REMARK    3  A    between atoms: O1_10  and  C6_11 
REMARK    4  A    between atoms: C6_11  and  C7_12 
REMARK    5  A    between atoms: C7_12  and  C8_13 
REMARK    6  A    between atoms: C8_13  and  C9_14 
REMARK    7  A    between atoms: C9_14  and  N3_15 
REMARK       I    between atoms: N4_19  and  C13_20 
ROOT
HETATM    1  C7  UNL     1       0.092 -34.783  77.024  1.00  0.00     0.028 C 
ENDROOT
BRANCH   1   2
HETATM    2  C6  UNL     1      -1.327 -34.293  77.012  1.00  0.00     0.175 C 
BRANCH   2   3
HETATM    3  O1  UNL     1      -2.082 -34.813  78.030  1.00  0.00    -0.351 OA
BRANCH   3   4
HETATM    4  C5  UNL     1      -3.227 -34.293  78.542  1.00  0.00     0.068 A 
HETATM    5  C4  UNL     1      -3.552 -34.373  79.864  1.00  0.00     0.037 A 
HETATM    6  C3  UNL     1      -4.740 -33.813  80.330  1.00  0.00     0.017 A 
HETATM    7  C2  UNL     1      -5.596 -33.176  79.450  1.00  0.00     0.005 A 
HETATM    8  C16 UNL     1      -5.243 -33.111  78.120  1.00  0.00     0.017 A 
HETATM    9  C15 UNL     1      -4.085 -33.651  77.643  1.00  0.00     0.037 A 
BRANCH   7  10
HETATM   10  C1  UNL     1      -6.817 -32.614  79.994  1.00  0.00     0.120 C 
HETATM   11  N1  UNL     1      -7.330 -33.082  81.062  1.00  0.00    -0.387 N 
ATOM     12  H12 UNL     1      -8.188 -32.687  81.445  1.00  0.00     0.157 HD
ATOM     13  H11 UNL     1      -6.869 -33.861  81.533  1.00  0.00     0.157 HD
HETATM   14  N2  UNL     1      -7.453 -31.538  79.342  1.00  0.00    -0.082 NA
ENDBRANCH   7  10
ENDBRANCH   3   4
ENDBRANCH   2   3
ENDBRANCH   1   2
BRANCH   1  15
HETATM   15  C8  UNL     1       0.155 -36.133  77.684  1.00  0.00     0.022 C 
BRANCH  15  16
HETATM   16  C9  UNL     1       0.084 -37.217  76.670  1.00  0.00     0.129 C 
BRANCH  16  17
HETATM   17  N3  UNL     1      -1.005 -38.162  77.016  1.00  0.00    -0.352 N 
HETATM   18  C10 UNL     1      -0.685 -39.389  77.439  1.00  0.00     0.093 A 
HETATM   19  C11 UNL     1      -1.692 -40.279  77.764  1.00  0.00     0.035 A 
HETATM   20  C12 UNL     1      -3.017 -39.878  77.644  1.00  0.00     0.102 A 
HETATM   21  N4  UNL     1      -3.309 -38.639  77.216  1.00  0.00    -0.293 N 
HETATM   22  C13 UNL     1      -4.667 -38.235  77.095  1.00  0.00     0.193 C 
HETATM   23  C14 UNL     1      -2.290 -37.818  76.915  1.00  0.00     0.192 A 
HETATM   24  N5  UNL     1      -5.561 -38.719  77.855  1.00  0.00    -0.373 N 
HETATM   25  N6  UNL     1      -5.056 -37.278  76.121  1.00  0.00    -0.063 NA
ATOM     26  H52 UNL     1      -5.281 -39.406  78.555  1.00  0.00     0.158 HD
ATOM     27  H51 UNL     1      -6.535 -38.429  77.768  1.00  0.00     0.158 HD
ENDBRANCH  16  17
ENDBRANCH  15  16
ENDBRANCH   1  15
TORSDOF 7
ENDMDL
MODEL 5
REMARK VINA RESULT: -8.022613200      3.059      5.226
REMARK  7 active torsions:
REMARK  status: ('A' for Active; 'I' for Inactive)
REMARK    1  A    between atoms: C1_4  and  C2_6 
REMARK    2  A    between atoms: C5_9  and  O1_10 
REMARK    3  A    between atoms: O1_10  and  C6_11 
REMARK    4  A    between atoms: C6_11  and  C7_12 
REMARK    5  A    between atoms: C7_12  and  C8_13 
REMARK    6  A    between atoms: C8_13  and  C9_14 
REMARK    7  A    between atoms: C9_14  and  N3_15 
REMARK       I    between atoms: N4_19  and  C13_20 
ROOT
HETATM    1  C7  UNL     1      -6.887 -33.452  82.536  1.00  0.00     0.028 C 
ENDROOT
BRANCH   1   2
HETATM    2  C6  UNL     1      -6.245 -34.237  81.430  1.00  0.00     0.175 C 
BRANCH   2   3
HETATM    3  O1  UNL     1      -6.073 -33.505  80.284  1.00  0.00    -0.351 OA
BRANCH   3   4
HETATM    4  C5  UNL     1      -5.087 -33.656  79.363  1.00  0.00     0.068 A 
HETATM    5  C4  UNL     1      -3.900 -34.268  79.640  1.00  0.00     0.037 A 
HETATM    6  C3  UNL     1      -2.929 -34.399  78.649  1.00  0.00     0.017 A 
HETATM    7  C2  UNL     1      -3.166 -33.904  77.379  1.00  0.00     0.005 A 
HETATM    8  C16 UNL     1      -4.372 -33.290  77.128  1.00  0.00     0.017 A 
HETATM    9  C15 UNL     1      -5.337 -33.152  78.082  1.00  0.00     0.037 A 
BRANCH   7  10
HETATM   10  C1  UNL     1      -2.118 -34.069  76.391  1.00  0.00     0.120 C 
HETATM   11  N1  UNL     1      -2.376 -33.976  75.147  1.00  0.00    -0.387 N 
ATOM     12  H12 UNL     1      -1.638 -34.092  74.452  1.00  0.00     0.157 HD
ATOM     13  H11 UNL     1      -3.333 -33.783  74.852  1.00  0.00     0.157 HD
HETATM   14  N2  UNL     1      -0.795 -34.337  76.799  1.00  0.00    -0.082 NA
ENDBRANCH   7  10
ENDBRANCH   3   4
ENDBRANCH   2   3
ENDBRANCH   1   2
BRANCH   1  15
HETATM   15  C8  UNL     1      -5.832 -32.979  83.498  1.00  0.00     0.022 C 
BRANCH  15  16
HETATM   16  C9  UNL     1      -4.977 -34.112  83.938  1.00  0.00     0.129 C 
BRANCH  16  17
HETATM   17  N3  UNL     1      -3.556 -33.823  83.625  1.00  0.00    -0.352 N 
HETATM   18  C10 UNL     1      -3.084 -32.592  83.845  1.00  0.00     0.093 A 
HETATM   19  C11 UNL     1      -1.761 -32.310  83.557  1.00  0.00     0.035 A 
HETATM   20  C12 UNL     1      -0.950 -33.315  83.045  1.00  0.00     0.102 A 
HETATM   21  N4  UNL     1      -1.451 -34.542  82.835  1.00  0.00    -0.293 N 
HETATM   22  C13 UNL     1      -0.615 -35.567  82.311  1.00  0.00     0.193 C 
HETATM   23  C14 UNL     1      -2.742 -34.758  83.132  1.00  0.00     0.192 A 
HETATM   24  N5  UNL     1       0.632 -35.576  82.549  1.00  0.00    -0.373 N 
HETATM   25  N6  UNL     1      -1.156 -36.606  81.508  1.00  0.00    -0.063 NA
ATOM     26  H52 UNL     1       1.020 -34.830  83.126  1.00  0.00     0.158 HD
ATOM     27  H51 UNL     1       1.231 -36.311  82.173  1.00  0.00     0.158 HD
ENDBRANCH  16  17
ENDBRANCH  15  16
ENDBRANCH   1  15
TORSDOF 7
ENDMDL
