MODEL 1
REMARK VINA RESULT: -8.197404265      0.000      0.000
REMARK  7 active torsions:
REMARK  status: ('A' for Active; 'I' for Inactive)
REMARK    1  A    between atoms: N2_4  and  C3_5 
REMARK    2  A    between atoms: C3_5  and  C4_6 
REMARK    3  A    between atoms: C4_6  and  C5_7 
REMARK    4  A    between atoms: C5_7  and  C6_8 
REMARK    5  A    between atoms: C6_8  and  C7_9 
REMARK    6  A    between atoms: C7_9  and  N3_10 
REMARK    7  A    between atoms: C12_16  and  C13_17 
ROOT
HETATM    1  C7  UNL     1      -1.174 -34.378  76.431  1.00  0.00     0.129 C 
ENDROOT
BRANCH   1   2
HETATM    2  C6  UNL     1       0.182 -34.401  77.079  1.00  0.00     0.020 C 
BRANCH   2   3
HETATM    3  C5  UNL     1       1.022 -35.593  76.739  1.00  0.00     0.003 C 
BRANCH   3   4
HETATM    4  C4  UNL     1       0.628 -36.873  77.393  1.00  0.00     0.020 C 
BRANCH   4   5
HETATM    5  C3  UNL     1       0.137 -37.927  76.462  1.00  0.00     0.129 C 
BRANCH   5   6
HETATM    6  N2  UNL     1      -1.088 -38.553  76.845  1.00  0.00    -0.353 N 
HETATM    7  C2  UNL     1      -2.244 -37.872  76.698  1.00  0.00     0.186 A 
HETATM    8  N1  UNL     1      -3.447 -38.375  77.029  1.00  0.00    -0.336 N 
HETATM    9  C1  UNL     1      -4.644 -37.608  76.852  1.00  0.00     0.158 C 
HETATM   10  C16 UNL     1      -3.473 -39.628  77.532  1.00  0.00     0.120 A 
HETATM   11  C15 UNL     1      -2.308 -40.347  77.693  1.00  0.00     0.062 A 
HETATM   12  N7  UNL     1      -4.730 -40.197  77.895  1.00  0.00    -0.083 NA
HETATM   13  C14 UNL     1      -1.082 -39.821  77.350  1.00  0.00     0.095 A 
ENDBRANCH   5   6
ENDBRANCH   4   5
ENDBRANCH   3   4
ENDBRANCH   2   3
ENDBRANCH   1   2
BRANCH   1  14
HETATM   14  N3  UNL     1      -2.261 -34.307  77.373  1.00  0.00    -0.352 N 
HETATM   15  C8  UNL     1      -1.983 -34.566  78.702  1.00  0.00     0.117 A 
HETATM   16  C9  UNL     1      -2.942 -34.550  79.679  1.00  0.00     0.061 A 
HETATM   17  N4  UNL     1      -2.596 -34.826  81.039  1.00  0.00    -0.101 NA
HETATM   18  C10 UNL     1      -4.250 -34.269  79.364  1.00  0.00     0.030 A 
HETATM   19  C11 UNL     1      -4.526 -34.013  78.055  1.00  0.00     0.035 A 
HETATM   20  C12 UNL     1      -3.514 -34.035  77.058  1.00  0.00     0.075 A 
BRANCH  20  21
HETATM   21  C13 UNL     1      -3.964 -33.722  75.725  1.00  0.00     0.137 C 
HETATM   22  N5  UNL     1      -4.377 -34.576  74.896  1.00  0.00    -0.386 N 
ATOM     23  H52 UNL     1      -4.381 -35.545  75.216  1.00  0.00     0.157 HD
ATOM     24  H51 UNL     1      -4.696 -34.355  73.953  1.00  0.00     0.157 HD
HETATM   25  N6  UNL     1      -3.960 -32.375  75.280  1.00  0.00    -0.081 NA
ENDBRANCH  20  21
ENDBRANCH   1  14
TORSDOF 7
ENDMDL
MODEL 2
REMARK VINA RESULT: -8.082578519      0.755      2.690
REMARK  7 active torsions:
REMARK  status: ('A' for Active; 'I' for Inactive)
REMARK    1  A    between atoms: N2_4  and  C3_5 
REMARK    2  A    between atoms: C3_5  and  C4_6 
REMARK    3  A    between atoms: C4_6  and  C5_7 
REMARK    4  A    between atoms: C5_7  and  C6_8 
REMARK    5  A    between atoms: C6_8  and  C7_9 
REMARK    6  A    between atoms: C7_9  and  N3_10 
REMARK    7  A    between atoms: C12_16  and  C13_17 
ROOT
HETATM    1  C7  UNL     1      -0.924 -34.657  77.864  1.00  0.00     0.129 C 
ENDROOT
BRANCH   1   2
HETATM    2  C6  UNL     1      -0.069 -34.520  76.636  1.00  0.00     0.020 C 
BRANCH   2   3
HETATM    3  C5  UNL     1       0.810 -35.696  76.347  1.00  0.00     0.003 C 
BRANCH   3   4
HETATM    4  C4  UNL     1       0.575 -36.905  77.187  1.00  0.00     0.020 C 
BRANCH   4   5
HETATM    5  C3  UNL     1       0.120 -38.109  76.438  1.00  0.00     0.129 C 
BRANCH   5   6
HETATM    6  N2  UNL     1      -1.164 -38.609  76.814  1.00  0.00    -0.353 N 
HETATM    7  C2  UNL     1      -2.246 -37.822  76.647  1.00  0.00     0.186 A 
HETATM    8  N1  UNL     1      -3.496 -38.202  76.971  1.00  0.00    -0.336 N 
HETATM    9  C1  UNL     1      -4.612 -37.325  76.773  1.00  0.00     0.158 C 
HETATM   10  C16 UNL     1      -3.648 -39.441  77.486  1.00  0.00     0.120 A 
HETATM   11  C15 UNL     1      -2.560 -40.267  77.668  1.00  0.00     0.062 A 
HETATM   12  N7  UNL     1      -4.958 -39.881  77.842  1.00  0.00    -0.083 NA
HETATM   13  C14 UNL     1      -1.286 -39.866  77.333  1.00  0.00     0.095 A 
ENDBRANCH   5   6
ENDBRANCH   4   5
ENDBRANCH   3   4
ENDBRANCH   2   3
ENDBRANCH   1   2
BRANCH   1  14
HETATM   14  N3  UNL     1      -2.285 -34.227  77.670  1.00  0.00    -0.352 N 
HETATM   15  C8  UNL     1      -2.605 -33.615  76.474  1.00  0.00     0.117 A 
HETATM   16  C9  UNL     1      -3.860 -33.146  76.190  1.00  0.00     0.061 A 
HETATM   17  N4  UNL     1      -4.133 -32.520  74.934  1.00  0.00    -0.101 NA
HETATM   18  C10 UNL     1      -4.873 -33.271  77.111  1.00  0.00     0.030 A 
HETATM   19  C11 UNL     1      -4.559 -33.875  78.291  1.00  0.00     0.035 A 
HETATM   20  C12 UNL     1      -3.249 -34.354  78.562  1.00  0.00     0.075 A 
BRANCH  20  21
HETATM   21  C13 UNL     1      -3.086 -34.987  79.847  1.00  0.00     0.137 C 
HETATM   22  N5  UNL     1      -2.669 -36.164  80.011  1.00  0.00    -0.386 N 
ATOM     23  H52 UNL     1      -2.441 -36.681  79.161  1.00  0.00     0.157 HD
ATOM     24  H51 UNL     1      -2.553 -36.612  80.920  1.00  0.00     0.157 HD
HETATM   25  N6  UNL     1      -3.402 -34.269  81.030  1.00  0.00    -0.081 NA
ENDBRANCH  20  21
ENDBRANCH   1  14
TORSDOF 7
ENDMDL
MODEL 3
REMARK VINA RESULT: -7.753124734      0.818      1.582
REMARK  7 active torsions:
REMARK  status: ('A' for Active; 'I' for Inactive)
REMARK    1  A    between atoms: N2_4  and  C3_5 
REMARK    2  A    between atoms: C3_5  and  C4_6 
REMARK    3  A    between atoms: C4_6  and  C5_7 
REMARK    4  A    between atoms: C5_7  and  C6_8 
REMARK    5  A    between atoms: C6_8  and  C7_9 
REMARK    6  A    between atoms: C7_9  and  N3_10 
REMARK    7  A    between atoms: C12_16  and  C13_17 
ROOT
HETATM    1  C7  UNL     1      -1.297 -34.375  76.624  1.00  0.00     0.129 C 
ENDROOT
BRANCH   1   2
HETATM    2  C6  UNL     1       0.106 -34.310  77.159  1.00  0.00     0.020 C 
BRANCH   2   3
HETATM    3  C5  UNL     1       0.970 -35.479  76.801  1.00  0.00     0.003 C 
BRANCH   3   4
HETATM    4  C4  UNL     1       0.581 -36.784  77.406  1.00  0.00     0.020 C 
BRANCH   4   5
HETATM    5  C3  UNL     1       0.081 -37.799  76.437  1.00  0.00     0.129 C 
BRANCH   5   6
HETATM    6  N2  UNL     1      -1.136 -38.446  76.808  1.00  0.00    -0.353 N 
HETATM    7  C2  UNL     1      -1.077 -39.618  77.475  1.00  0.00     0.186 A 
HETATM    8  N1  UNL     1      -2.166 -40.303  77.866  1.00  0.00    -0.336 N 
HETATM    9  C1  UNL     1      -2.047 -41.544  78.573  1.00  0.00     0.158 C 
HETATM   10  C16 UNL     1      -3.370 -39.769  77.566  1.00  0.00     0.120 A 
HETATM   11  C15 UNL     1      -3.461 -38.574  76.886  1.00  0.00     0.062 A 
HETATM   12  N7  UNL     1      -4.550 -40.466  77.965  1.00  0.00    -0.083 NA
HETATM   13  C14 UNL     1      -2.338 -37.882  76.490  1.00  0.00     0.095 A 
ENDBRANCH   5   6
ENDBRANCH   4   5
ENDBRANCH   3   4
ENDBRANCH   2   3
ENDBRANCH   1   2
BRANCH   1  14
HETATM   14  N3  UNL     1      -2.308 -34.287  77.647  1.00  0.00    -0.352 N 
HETATM   15  C8  UNL     1      -1.994 -34.757  78.908  1.00  0.00     0.117 A 
HETATM   16  C9  UNL     1      -2.883 -34.745  79.949  1.00  0.00     0.061 A 
HETATM   17  N4  UNL     1      -2.502 -35.244  81.234  1.00  0.00    -0.101 NA
HETATM   18  C10 UNL     1      -4.154 -34.252  79.772  1.00  0.00     0.030 A 
HETATM   19  C11 UNL     1      -4.465 -33.788  78.529  1.00  0.00     0.035 A 
HETATM   20  C12 UNL     1      -3.525 -33.811  77.464  1.00  0.00     0.075 A 
BRANCH  20  21
HETATM   21  C13 UNL     1      -4.002 -33.265  76.218  1.00  0.00     0.137 C 
HETATM   22  N5  UNL     1      -3.267 -32.716  75.355  1.00  0.00    -0.386 N 
ATOM     23  H52 UNL     1      -2.273 -32.668  75.580  1.00  0.00     0.157 HD
ATOM     24  H51 UNL     1      -3.604 -32.330  74.474  1.00  0.00     0.157 HD
HETATM   25  N6  UNL     1      -5.385 -33.332  75.905  1.00  0.00    -0.081 NA
ENDBRANCH  20  21
ENDBRANCH   1  14
TORSDOF 7
ENDMDL
MODEL 4
REMARK VINA RESULT: -7.721911203      2.060      6.143
REMARK  7 active torsions:
REMARK  status: ('A' for Active; 'I' for Inactive)
REMARK    1  A    between atoms: N2_4  and  C3_5 
REMARK    2  A    between atoms: C3_5  and  C4_6 
REMARK    3  A    between atoms: C4_6  and  C5_7 
REMARK    4  A    between atoms: C5_7  and  C6_8 
REMARK    5  A    between atoms: C6_8  and  C7_9 
REMARK    6  A    between atoms: C7_9  and  N3_10 
REMARK    7  A    between atoms: C12_16  and  C13_17 
ROOT
HETATM    1  C7  UNL     1      -2.664 -36.111  76.876  1.00  0.00     0.129 C 
ENDROOT
BRANCH   1   2
HETATM    2  C6  UNL     1      -3.905 -35.833  76.076  1.00  0.00     0.020 C 
BRANCH   2   3
HETATM    3  C5  UNL     1      -4.181 -34.383  75.826  1.00  0.00     0.003 C 
BRANCH   3   4
HETATM    4  C4  UNL     1      -3.967 -33.472  76.986  1.00  0.00     0.020 C 
BRANCH   4   5
HETATM    5  C3  UNL     1      -5.188 -33.184  77.789  1.00  0.00     0.129 C 
BRANCH   5   6
HETATM    6  N2  UNL     1      -5.100 -33.527  79.173  1.00  0.00    -0.353 N 
HETATM    7  C2  UNL     1      -6.136 -33.235  79.985  1.00  0.00     0.186 A 
HETATM    8  N1  UNL     1      -6.147 -33.517  81.301  1.00  0.00    -0.336 N 
HETATM    9  C1  UNL     1      -7.275 -33.185  82.120  1.00  0.00     0.158 C 
HETATM   10  C16 UNL     1      -5.054 -34.126  81.809  1.00  0.00     0.120 A 
HETATM   11  C15 UNL     1      -3.981 -34.436  81.003  1.00  0.00     0.062 A 
HETATM   12  N7  UNL     1      -5.028 -34.442  83.201  1.00  0.00    -0.083 NA
HETATM   13  C14 UNL     1      -3.981 -34.141  79.657  1.00  0.00     0.095 A 
ENDBRANCH   5   6
ENDBRANCH   4   5
ENDBRANCH   3   4
ENDBRANCH   2   3
ENDBRANCH   1   2
BRANCH   1  14
HETATM   14  N3  UNL     1      -2.419 -37.515  77.089  1.00  0.00    -0.352 N 
HETATM   15  C8  UNL     1      -3.508 -38.331  77.330  1.00  0.00     0.117 A 
HETATM   16  C9  UNL     1      -3.391 -39.675  77.569  1.00  0.00     0.061 A 
HETATM   17  N4  UNL     1      -4.554 -40.471  77.812  1.00  0.00    -0.101 NA
HETATM   18  C10 UNL     1      -2.154 -40.274  77.579  1.00  0.00     0.030 A 
HETATM   19  C11 UNL     1      -1.080 -39.470  77.342  1.00  0.00     0.035 A 
HETATM   20  C12 UNL     1      -1.226 -38.078  77.096  1.00  0.00     0.075 A 
BRANCH  20  21
HETATM   21  C13 UNL     1       0.005 -37.372  76.841  1.00  0.00     0.137 C 
HETATM   22  N5  UNL     1       0.523 -37.236  75.702  1.00  0.00    -0.386 N 
ATOM     23  H52 UNL     1       0.018 -37.665  74.926  1.00  0.00     0.157 HD
ATOM     24  H51 UNL     1       1.394 -36.736  75.522  1.00  0.00     0.157 HD
HETATM   25  N6  UNL     1       0.708 -36.774  77.920  1.00  0.00    -0.081 NA
ENDBRANCH  20  21
ENDBRANCH   1  14
TORSDOF 7
ENDMDL
MODEL 5
REMARK VINA RESULT: -7.711727177      1.891      6.103
REMARK  7 active torsions:
REMARK  status: ('A' for Active; 'I' for Inactive)
REMARK    1  A    between atoms: N2_4  and  C3_5 
REMARK    2  A    between atoms: C3_5  and  C4_6 
REMARK    3  A    between atoms: C4_6  and  C5_7 
REMARK    4  A    between atoms: C5_7  and  C6_8 
REMARK    5  A    between atoms: C6_8  and  C7_9 
REMARK    6  A    between atoms: C7_9  and  N3_10 
REMARK    7  A    between atoms: C12_16  and  C13_17 
ROOT
HETATM    1  C7  UNL     1      -2.658 -36.115  76.804  1.00  0.00     0.129 C 
ENDROOT
BRANCH   1   2
HETATM    2  C6  UNL     1      -3.943 -35.841  76.077  1.00  0.00     0.020 C 
BRANCH   2   3
HETATM    3  C5  UNL     1      -4.227 -34.393  75.824  1.00  0.00     0.003 C 
BRANCH   3   4
HETATM    4  C4  UNL     1      -4.018 -33.479  76.982  1.00  0.00     0.020 C 
BRANCH   4   5
HETATM    5  C3  UNL     1      -5.190 -33.339  77.890  1.00  0.00     0.129 C 
BRANCH   5   6
HETATM    6  N2  UNL     1      -4.918 -33.560  79.274  1.00  0.00    -0.353 N 
HETATM    7  C2  UNL     1      -3.813 -34.252  79.620  1.00  0.00     0.186 A 
HETATM    8  N1  UNL     1      -3.471 -34.512  80.895  1.00  0.00    -0.336 N 
HETATM    9  C1  UNL     1      -2.285 -35.252  81.208  1.00  0.00     0.158 C 
HETATM   10  C16 UNL     1      -4.292 -34.044  81.860  1.00  0.00     0.120 A 
HETATM   11  C15 UNL     1      -5.427 -33.334  81.536  1.00  0.00     0.062 A 
HETATM   12  N7  UNL     1      -3.963 -34.299  83.225  1.00  0.00    -0.083 NA
HETATM   13  C14 UNL     1      -5.767 -33.074  80.226  1.00  0.00     0.095 A 
ENDBRANCH   5   6
ENDBRANCH   4   5
ENDBRANCH   3   4
ENDBRANCH   2   3
ENDBRANCH   1   2
BRANCH   1  14
HETATM   14  N3  UNL     1      -2.422 -37.515  77.049  1.00  0.00    -0.352 N 
HETATM   15  C8  UNL     1      -3.517 -38.323  77.291  1.00  0.00     0.117 A 
HETATM   16  C9  UNL     1      -3.409 -39.662  77.559  1.00  0.00     0.061 A 
HETATM   17  N4  UNL     1      -4.579 -40.448  77.802  1.00  0.00    -0.101 NA
HETATM   18  C10 UNL     1      -2.175 -40.265  77.596  1.00  0.00     0.030 A 
HETATM   19  C11 UNL     1      -1.095 -39.471  77.357  1.00  0.00     0.035 A 
HETATM   20  C12 UNL     1      -1.231 -38.084  77.082  1.00  0.00     0.075 A 
BRANCH  20  21
HETATM   21  C13 UNL     1       0.006 -37.388  76.829  1.00  0.00     0.137 C 
HETATM   22  N5  UNL     1       0.533 -37.266  75.692  1.00  0.00    -0.386 N 
ATOM     23  H52 UNL     1       0.031 -37.700  74.917  1.00  0.00     0.157 HD
ATOM     24  H51 UNL     1       1.408 -36.774  75.513  1.00  0.00     0.157 HD
HETATM   25  N6  UNL     1       0.705 -36.784  77.907  1.00  0.00    -0.081 NA
ENDBRANCH  20  21
ENDBRANCH   1  14
TORSDOF 7
ENDMDL
