MODEL 1
REMARK VINA RESULT: -7.335909277      0.000      0.000
REMARK  3 active torsions:
REMARK  status: ('A' for Active; 'I' for Inactive)
REMARK    1  A    between atoms: N1_10  and  C11_12 
REMARK    2  A    between atoms: C11_12  and  C12_13 
REMARK    3  A    between atoms: C12_13  and  N2_14 
ROOT
HETATM    1  C1  UNL     1     -11.870 -26.063 -15.488  1.00  0.00     0.011 C 
HETATM    2  C2  UNL     1     -10.437 -26.213 -14.978  1.00  0.00    -0.001 C 
HETATM    3  C3  UNL     1      -9.573 -26.585 -16.151  1.00  0.00     0.021 C 
HETATM    4  C4  UNL     1     -10.258 -27.923 -16.505  1.00  0.00     0.015 C 
HETATM    5  C5  UNL     1     -10.049 -28.520 -15.145  1.00  0.00     0.003 C 
HETATM    6  C6  UNL     1      -8.504 -28.503 -15.094  1.00  0.00     0.021 C 
HETATM    7  C7  UNL     1      -8.383 -28.633 -13.616  1.00  0.00     0.016 C 
HETATM    8  C8  UNL     1      -9.162 -27.437 -13.159  1.00  0.00     0.022 C 
HETATM    9  C9  UNL     1      -8.419 -26.203 -12.946  1.00  0.00     0.248 C 
HETATM   10  N1  UNL     1      -7.279 -25.883 -13.751  1.00  0.00    -0.049 N 
HETATM   11  C10 UNL     1      -7.264 -24.399 -13.701  1.00  0.00     0.278 C 
HETATM   12  C13 UNL     1      -7.295 -26.253 -15.110  1.00  0.00     0.205 C 
HETATM   13  C14 UNL     1      -8.231 -27.193 -15.696  1.00  0.00    -0.047 C 
HETATM   14  C15 UNL     1     -10.312 -27.409 -14.117  1.00  0.00    -0.031 C 
HETATM   15  C16 UNL     1     -11.643 -27.788 -13.462  1.00  0.00     0.016 C 
ENDROOT
BRANCH  10  16
HETATM   16  C11 UNL     1      -6.083 -26.400 -13.110  1.00  0.00     0.269 C 
BRANCH  16  17
HETATM   17  C12 UNL     1      -4.791 -25.762 -13.419  1.00  0.00     0.257 C 
BRANCH  17  18
HETATM   18  N2  UNL     1      -3.657 -26.658 -13.553  1.00  0.00    -0.078 N 
ATOM     19  H23 UNL     1      -3.962 -27.547 -13.950  1.00  0.00     0.274 HD
ATOM     20  H22 UNL     1      -3.039 -26.327 -14.294  1.00  0.00     0.274 HD
ATOM     21  H21 UNL     1      -3.119 -26.826 -12.702  1.00  0.00     0.274 HD
ENDBRANCH  17  18
ENDBRANCH  16  17
ENDBRANCH  10  16
TORSDOF 3
ENDMDL
MODEL 2
REMARK VINA RESULT: -7.214772019      1.436      2.446
REMARK  3 active torsions:
REMARK  status: ('A' for Active; 'I' for Inactive)
REMARK    1  A    between atoms: N1_10  and  C11_12 
REMARK    2  A    between atoms: C11_12  and  C12_13 
REMARK    3  A    between atoms: C12_13  and  N2_14 
ROOT
HETATM    1  C1  UNL     1     -12.953 -28.539 -13.157  1.00  0.00     0.011 C 
HETATM    2  C2  UNL     1     -11.535 -28.181 -13.598  1.00  0.00    -0.001 C 
HETATM    3  C3  UNL     1     -11.611 -26.902 -14.385  1.00  0.00     0.021 C 
HETATM    4  C4  UNL     1     -12.516 -27.409 -15.529  1.00  0.00     0.015 C 
HETATM    5  C5  UNL     1     -11.592 -28.525 -15.917  1.00  0.00     0.003 C 
HETATM    6  C6  UNL     1     -10.345 -27.699 -16.309  1.00  0.00     0.021 C 
HETATM    7  C7  UNL     1      -9.366 -28.816 -16.210  1.00  0.00     0.016 C 
HETATM    8  C8  UNL     1      -9.565 -29.246 -14.789  1.00  0.00     0.022 C 
HETATM    9  C9  UNL     1      -8.711 -28.629 -13.784  1.00  0.00     0.248 C 
HETATM   10  N1  UNL     1      -8.269 -27.274 -13.925  1.00  0.00    -0.049 N 
HETATM   11  C10 UNL     1      -8.060 -26.861 -12.515  1.00  0.00     0.278 C 
HETATM   12  C13 UNL     1      -9.151 -26.340 -14.505  1.00  0.00     0.205 C 
HETATM   13  C14 UNL     1     -10.349 -26.688 -15.244  1.00  0.00    -0.047 C 
HETATM   14  C15 UNL     1     -11.048 -29.136 -14.617  1.00  0.00    -0.031 C 
HETATM   15  C16 UNL     1     -11.738 -30.498 -14.506  1.00  0.00     0.016 C 
ENDROOT
BRANCH  10  16
HETATM   16  C11 UNL     1      -6.999 -27.259 -14.627  1.00  0.00     0.269 C 
BRANCH  16  17
HETATM   17  C12 UNL     1      -5.759 -27.333 -13.833  1.00  0.00     0.257 C 
BRANCH  17  18
HETATM   18  N2  UNL     1      -5.056 -28.603 -13.871  1.00  0.00    -0.078 N 
ATOM     19  H23 UNL     1      -5.492 -29.220 -14.556  1.00  0.00     0.274 HD
ATOM     20  H22 UNL     1      -4.137 -28.477 -14.296  1.00  0.00     0.274 HD
ATOM     21  H21 UNL     1      -4.962 -29.087 -12.978  1.00  0.00     0.274 HD
ENDBRANCH  17  18
ENDBRANCH  16  17
ENDBRANCH  10  16
TORSDOF 3
ENDMDL
MODEL 3
REMARK VINA RESULT: -6.828702863      1.957      4.504
REMARK  3 active torsions:
REMARK  status: ('A' for Active; 'I' for Inactive)
REMARK    1  A    between atoms: N1_10  and  C11_12 
REMARK    2  A    between atoms: C11_12  and  C12_13 
REMARK    3  A    between atoms: C12_13  and  N2_14 
ROOT
HETATM    1  C1  UNL     1      -7.812 -24.403 -11.564  1.00  0.00     0.011 C 
HETATM    2  C2  UNL     1      -8.183 -25.526 -12.532  1.00  0.00    -0.001 C 
HETATM    3  C3  UNL     1      -7.653 -26.813 -11.962  1.00  0.00     0.021 C 
HETATM    4  C4  UNL     1      -6.153 -26.447 -11.969  1.00  0.00     0.015 C 
HETATM    5  C5  UNL     1      -6.115 -26.156 -13.440  1.00  0.00     0.003 C 
HETATM    6  C6  UNL     1      -6.511 -27.547 -13.986  1.00  0.00     0.021 C 
HETATM    7  C7  UNL     1      -6.918 -27.087 -15.341  1.00  0.00     0.016 C 
HETATM    8  C8  UNL     1      -7.979 -26.086 -14.997  1.00  0.00     0.022 C 
HETATM    9  C9  UNL     1      -9.350 -26.570 -14.931  1.00  0.00     0.248 C 
HETATM   10  N1  UNL     1      -9.641 -27.900 -14.489  1.00  0.00    -0.049 N 
HETATM   11  C10 UNL     1     -11.013 -27.760 -13.943  1.00  0.00     0.278 C 
HETATM   12  C13 UNL     1      -8.842 -28.455 -13.469  1.00  0.00     0.205 C 
HETATM   13  C14 UNL     1      -7.568 -27.916 -13.036  1.00  0.00    -0.047 C 
HETATM   14  C15 UNL     1      -7.411 -25.409 -13.788  1.00  0.00    -0.031 C 
HETATM   15  C16 UNL     1      -6.972 -23.968 -14.062  1.00  0.00     0.016 C 
ENDROOT
BRANCH  10  16
HETATM   16  C11 UNL     1      -9.665 -28.788 -15.638  1.00  0.00     0.269 C 
BRANCH  16  17
HETATM   17  C12 UNL     1      -9.236 -30.185 -15.452  1.00  0.00     0.257 C 
BRANCH  17  18
HETATM   18  N2  UNL     1      -7.870 -30.487 -15.839  1.00  0.00    -0.078 N 
ATOM     19  H23 UNL     1      -7.759 -30.362 -16.845  1.00  0.00     0.274 HD
ATOM     20  H22 UNL     1      -7.244 -29.760 -15.493  1.00  0.00     0.274 HD
ATOM     21  H21 UNL     1      -7.521 -31.405 -15.564  1.00  0.00     0.274 HD
ENDBRANCH  17  18
ENDBRANCH  16  17
ENDBRANCH  10  16
TORSDOF 3
ENDMDL
MODEL 4
REMARK VINA RESULT: -6.694556182      0.940      1.073
REMARK  3 active torsions:
REMARK  status: ('A' for Active; 'I' for Inactive)
REMARK    1  A    between atoms: N1_10  and  C11_12 
REMARK    2  A    between atoms: C11_12  and  C12_13 
REMARK    3  A    between atoms: C12_13  and  N2_14 
ROOT
HETATM    1  C1  UNL     1     -11.929 -26.970 -14.655  1.00  0.00     0.011 C 
HETATM    2  C2  UNL     1     -10.456 -26.834 -14.274  1.00  0.00    -0.001 C 
HETATM    3  C3  UNL     1      -9.756 -26.127 -15.401  1.00  0.00     0.021 C 
HETATM    4  C4  UNL     1     -10.025 -27.171 -16.507  1.00  0.00     0.015 C 
HETATM    5  C5  UNL     1      -9.381 -28.298 -15.757  1.00  0.00     0.003 C 
HETATM    6  C6  UNL     1      -7.945 -27.739 -15.641  1.00  0.00     0.021 C 
HETATM    7  C7  UNL     1      -7.511 -28.621 -14.523  1.00  0.00     0.016 C 
HETATM    8  C8  UNL     1      -8.533 -28.286 -13.480  1.00  0.00     0.022 C 
HETATM    9  C9  UNL     1      -8.203 -27.219 -12.547  1.00  0.00     0.248 C 
HETATM   10  N1  UNL     1      -7.402 -26.105 -12.956  1.00  0.00    -0.049 N 
HETATM   11  C10 UNL     1      -7.859 -25.033 -12.037  1.00  0.00     0.278 C 
HETATM   12  C13 UNL     1      -7.556 -25.619 -14.270  1.00  0.00     0.205 C 
HETATM   13  C14 UNL     1      -8.229 -26.331 -15.338  1.00  0.00    -0.047 C 
HETATM   14  C15 UNL     1      -9.790 -28.155 -14.284  1.00  0.00    -0.031 C 
HETATM   15  C16 UNL     1     -10.777 -29.299 -14.038  1.00  0.00     0.016 C 
ENDROOT
BRANCH  10  16
HETATM   16  C11 UNL     1      -6.005 -26.402 -12.696  1.00  0.00     0.269 C 
BRANCH  16  17
HETATM   17  C12 UNL     1      -4.984 -25.765 -13.547  1.00  0.00     0.257 C 
BRANCH  17  18
HETATM   18  N2  UNL     1      -3.699 -26.438 -13.609  1.00  0.00    -0.078 N 
ATOM     19  H23 UNL     1      -3.505 -26.895 -12.718  1.00  0.00     0.274 HD
ATOM     20  H22 UNL     1      -3.763 -27.251 -14.222  1.00  0.00     0.274 HD
ATOM     21  H21 UNL     1      -2.905 -25.858 -13.881  1.00  0.00     0.274 HD
ENDBRANCH  17  18
ENDBRANCH  16  17
ENDBRANCH  10  16
TORSDOF 3
ENDMDL
MODEL 5
REMARK VINA RESULT: -5.973819278      1.294      2.803
REMARK  3 active torsions:
REMARK  status: ('A' for Active; 'I' for Inactive)
REMARK    1  A    between atoms: N1_10  and  C11_12 
REMARK    2  A    between atoms: C11_12  and  C12_13 
REMARK    3  A    between atoms: C12_13  and  N2_14 
ROOT
HETATM    1  C1  UNL     1     -10.742 -28.631 -16.030  1.00  0.00     0.011 C 
HETATM    2  C2  UNL     1      -9.460 -28.205 -15.316  1.00  0.00    -0.001 C 
HETATM    3  C3  UNL     1      -9.649 -28.460 -13.846  1.00  0.00     0.021 C 
HETATM    4  C4  UNL     1     -10.843 -27.508 -13.617  1.00  0.00     0.015 C 
HETATM    5  C5  UNL     1     -10.120 -26.296 -14.124  1.00  0.00     0.003 C 
HETATM    6  C6  UNL     1      -8.961 -26.245 -13.102  1.00  0.00     0.021 C 
HETATM    7  C7  UNL     1      -8.062 -25.377 -13.910  1.00  0.00     0.016 C 
HETATM    8  C8  UNL     1      -7.924 -26.192 -15.160  1.00  0.00     0.022 C 
HETATM    9  C9  UNL     1      -6.808 -27.125 -15.223  1.00  0.00     0.248 C 
HETATM   10  N1  UNL     1      -6.330 -27.782 -14.044  1.00  0.00    -0.049 N 
HETATM   11  C10 UNL     1      -5.747 -29.032 -14.593  1.00  0.00     0.278 C 
HETATM   12  C13 UNL     1      -7.268 -28.157 -13.061  1.00  0.00     0.205 C 
HETATM   13  C14 UNL     1      -8.632 -27.671 -12.998  1.00  0.00    -0.047 C 
HETATM   14  C15 UNL     1      -9.307 -26.735 -15.352  1.00  0.00    -0.031 C 
HETATM   15  C16 UNL     1     -10.032 -26.109 -16.546  1.00  0.00     0.016 C 
ENDROOT
BRANCH  10  16
HETATM   16  C11 UNL     1      -5.278 -26.979 -13.446  1.00  0.00     0.269 C 
BRANCH  16  17
HETATM   17  C12 UNL     1      -4.019 -27.645 -13.067  1.00  0.00     0.257 C 
BRANCH  17  18
HETATM   18  N2  UNL     1      -2.798 -26.953 -13.439  1.00  0.00    -0.078 N 
ATOM     19  H23 UNL     1      -2.051 -27.629 -13.595  1.00  0.00     0.274 HD
ATOM     20  H22 UNL     1      -2.893 -26.563 -14.377  1.00  0.00     0.274 HD
ATOM     21  H21 UNL     1      -2.481 -26.230 -12.793  1.00  0.00     0.274 HD
ENDBRANCH  17  18
ENDBRANCH  16  17
ENDBRANCH  10  16
TORSDOF 3
ENDMDL
