MODEL 1
REMARK VINA RESULT: -8.095667752      0.000      0.000
REMARK  4 active torsions:
REMARK  status: ('A' for Active; 'I' for Inactive)
REMARK    1  A    between atoms: C3_3  and  C4_4 
REMARK    2  A    between atoms: C4_4  and  C5_5 
REMARK    3  A    between atoms: C6_6  and  C7_7 
REMARK    4  A    between atoms: N1_11  and  C11_12 
ROOT
HETATM    1  C1  UNL     1     -17.115 -27.206 -19.686  1.00  0.00     0.012 C 
HETATM    2  C2  UNL     1     -16.368 -28.065 -19.277  1.00  0.00    -0.117 C 
HETATM    3  C3  UNL     1     -15.457 -29.104 -18.795  1.00  0.00     0.105 C 
ENDROOT
BRANCH   3   4
HETATM    4  C4  UNL     1     -15.412 -29.112 -17.270  1.00  0.00     0.106 C 
BRANCH   4   5
HETATM    5  C5  UNL     1     -14.091 -28.742 -16.783  1.00  0.00    -0.099 C 
HETATM    6  C6  UNL     1     -12.991 -28.451 -16.388  1.00  0.00    -0.049 C 
BRANCH   6   7
HETATM    7  C7  UNL     1     -11.656 -28.119 -15.915  1.00  0.00     0.088 A 
HETATM    8  C8  UNL     1     -11.034 -26.899 -16.025  1.00  0.00     0.054 A 
HETATM    9  C9  UNL     1      -9.796 -27.028 -15.452  1.00  0.00     0.009 A 
HETATM   10  C10 UNL     1      -8.715 -26.167 -15.253  1.00  0.00     0.104 A 
HETATM   11  C17 UNL     1      -9.708 -28.329 -15.011  1.00  0.00     0.052 A 
HETATM   12  N1  UNL     1      -7.586 -26.563 -14.644  1.00  0.00    -0.361 N 
HETATM   13  C14 UNL     1      -7.520 -27.844 -14.219  1.00  0.00     0.100 A 
HETATM   14  C15 UNL     1      -8.556 -28.738 -14.387  1.00  0.00    -0.019 A 
HETATM   15  C16 UNL     1      -8.455 -30.139 -13.910  1.00  0.00     0.052 C 
HETATM   16  N2  UNL     1     -10.845 -28.982 -15.299  1.00  0.00    -0.348 N 
ATOM     17  H2  UNL     1     -11.051 -29.959 -15.086  1.00  0.00     0.167 HD
BRANCH  12  18
HETATM   18  C11 UNL     1      -6.479 -25.639 -14.454  1.00  0.00     0.080 C 
HETATM   19  C12 UNL     1      -6.971 -24.429 -13.723  1.00  0.00     0.032 C 
HETATM   20  C13 UNL     1      -5.334 -26.262 -13.715  1.00  0.00     0.032 C 
ENDBRANCH  12  18
ENDBRANCH   6   7
ENDBRANCH   4   5
ENDBRANCH   3   4
TORSDOF 4
ENDMDL
MODEL 2
REMARK VINA RESULT: -7.969841308      1.254      1.420
REMARK  4 active torsions:
REMARK  status: ('A' for Active; 'I' for Inactive)
REMARK    1  A    between atoms: C3_3  and  C4_4 
REMARK    2  A    between atoms: C4_4  and  C5_5 
REMARK    3  A    between atoms: C6_6  and  C7_7 
REMARK    4  A    between atoms: N1_11  and  C11_12 
ROOT
HETATM    1  C1  UNL     1     -16.606 -27.590 -20.284  1.00  0.00     0.012 C 
HETATM    2  C2  UNL     1     -15.973 -28.374 -19.615  1.00  0.00    -0.117 C 
HETATM    3  C3  UNL     1     -15.197 -29.324 -18.817  1.00  0.00     0.105 C 
ENDROOT
BRANCH   3   4
HETATM    4  C4  UNL     1     -15.428 -29.087 -17.327  1.00  0.00     0.106 C 
BRANCH   4   5
HETATM    5  C5  UNL     1     -14.177 -28.791 -16.643  1.00  0.00    -0.099 C 
HETATM    6  C6  UNL     1     -13.144 -28.563 -16.069  1.00  0.00    -0.049 C 
BRANCH   6   7
HETATM    7  C7  UNL     1     -11.900 -28.303 -15.362  1.00  0.00     0.088 A 
HETATM    8  C8  UNL     1     -11.590 -27.170 -14.649  1.00  0.00     0.054 A 
HETATM    9  C9  UNL     1     -10.325 -27.344 -14.151  1.00  0.00     0.009 A 
HETATM   10  C10 UNL     1      -9.467 -26.571 -13.366  1.00  0.00     0.104 A 
HETATM   11  C17 UNL     1      -9.907 -28.583 -14.581  1.00  0.00     0.052 A 
HETATM   12  N1  UNL     1      -8.244 -26.995 -13.012  1.00  0.00    -0.361 N 
HETATM   13  C14 UNL     1      -7.853 -28.213 -13.445  1.00  0.00     0.100 A 
HETATM   14  C15 UNL     1      -8.657 -29.020 -14.222  1.00  0.00    -0.019 A 
HETATM   15  C16 UNL     1      -8.201 -30.355 -14.682  1.00  0.00     0.052 C 
HETATM   16  N2  UNL     1     -10.873 -29.156 -15.317  1.00  0.00    -0.348 N 
ATOM     17  H2  UNL     1     -10.831 -30.075 -15.760  1.00  0.00     0.167 HD
BRANCH  12  18
HETATM   18  C11 UNL     1      -7.375 -26.162 -12.193  1.00  0.00     0.080 C 
HETATM   19  C12 UNL     1      -6.309 -25.568 -13.059  1.00  0.00     0.032 C 
HETATM   20  C13 UNL     1      -8.128 -25.081 -11.479  1.00  0.00     0.032 C 
ENDBRANCH  12  18
ENDBRANCH   6   7
ENDBRANCH   4   5
ENDBRANCH   3   4
TORSDOF 4
ENDMDL
MODEL 3
REMARK VINA RESULT: -7.655913693      1.942      7.957
REMARK  4 active torsions:
REMARK  status: ('A' for Active; 'I' for Inactive)
REMARK    1  A    between atoms: C3_3  and  C4_4 
REMARK    2  A    between atoms: C4_4  and  C5_5 
REMARK    3  A    between atoms: C6_6  and  C7_7 
REMARK    4  A    between atoms: N1_11  and  C11_12 
ROOT
HETATM    1  C1  UNL     1      -4.478 -25.713 -13.444  1.00  0.00     0.012 C 
HETATM    2  C2  UNL     1      -5.636 -25.363 -13.414  1.00  0.00    -0.117 C 
HETATM    3  C3  UNL     1      -7.034 -24.934 -13.391  1.00  0.00     0.105 C 
ENDROOT
BRANCH   3   4
HETATM    4  C4  UNL     1      -7.836 -25.774 -12.401  1.00  0.00     0.106 C 
BRANCH   4   5
HETATM    5  C5  UNL     1      -8.915 -26.486 -13.071  1.00  0.00    -0.099 C 
HETATM    6  C6  UNL     1      -9.816 -27.076 -13.610  1.00  0.00    -0.049 C 
BRANCH   6   7
HETATM    7  C7  UNL     1     -10.913 -27.791 -14.242  1.00  0.00     0.088 A 
HETATM    8  C8  UNL     1     -11.720 -27.320 -15.249  1.00  0.00     0.054 A 
HETATM    9  C9  UNL     1     -12.617 -28.314 -15.543  1.00  0.00     0.009 A 
HETATM   10  C10 UNL     1     -13.669 -28.445 -16.450  1.00  0.00     0.104 A 
HETATM   11  C17 UNL     1     -12.322 -29.361 -14.700  1.00  0.00     0.052 A 
HETATM   12  N1  UNL     1     -14.409 -29.563 -16.532  1.00  0.00    -0.361 N 
HETATM   13  C14 UNL     1     -14.104 -30.578 -15.696  1.00  0.00     0.100 A 
HETATM   14  C15 UNL     1     -13.075 -30.505 -14.780  1.00  0.00    -0.019 A 
HETATM   15  C16 UNL     1     -12.763 -31.638 -13.874  1.00  0.00     0.052 C 
HETATM   16  N2  UNL     1     -11.285 -29.032 -13.913  1.00  0.00    -0.348 N 
ATOM     17  H2  UNL     1     -10.859 -29.620 -13.197  1.00  0.00     0.167 HD
BRANCH  12  18
HETATM   18  C11 UNL     1     -15.500 -29.665 -17.489  1.00  0.00     0.080 C 
HETATM   19  C12 UNL     1     -15.872 -28.292 -17.955  1.00  0.00     0.032 C 
HETATM   20  C13 UNL     1     -15.153 -30.534 -18.660  1.00  0.00     0.032 C 
ENDBRANCH  12  18
ENDBRANCH   6   7
ENDBRANCH   4   5
ENDBRANCH   3   4
TORSDOF 4
ENDMDL
MODEL 4
REMARK VINA RESULT: -7.643987473      1.814      2.521
REMARK  4 active torsions:
REMARK  status: ('A' for Active; 'I' for Inactive)
REMARK    1  A    between atoms: C3_3  and  C4_4 
REMARK    2  A    between atoms: C4_4  and  C5_5 
REMARK    3  A    between atoms: C6_6  and  C7_7 
REMARK    4  A    between atoms: N1_11  and  C11_12 
ROOT
HETATM    1  C1  UNL     1     -15.696 -30.469 -18.577  1.00  0.00     0.012 C 
HETATM    2  C2  UNL     1     -15.090 -29.779 -17.789  1.00  0.00    -0.117 C 
HETATM    3  C3  UNL     1     -14.365 -28.932 -16.842  1.00  0.00     0.105 C 
ENDROOT
BRANCH   3   4
HETATM    4  C4  UNL     1     -13.879 -29.755 -15.651  1.00  0.00     0.106 C 
BRANCH   4   5
HETATM    5  C5  UNL     1     -12.511 -29.405 -15.296  1.00  0.00    -0.099 C 
HETATM    6  C6  UNL     1     -11.375 -29.122 -15.018  1.00  0.00    -0.049 C 
BRANCH   6   7
HETATM    7  C7  UNL     1      -9.995 -28.791 -14.700  1.00  0.00     0.088 A 
HETATM    8  C8  UNL     1      -9.562 -27.691 -13.999  1.00  0.00     0.054 A 
HETATM    9  C9  UNL     1      -8.196 -27.771 -13.930  1.00  0.00     0.009 A 
HETATM   10  C10 UNL     1      -7.196 -26.977 -13.365  1.00  0.00     0.104 A 
HETATM   11  C17 UNL     1      -7.843 -28.924 -14.595  1.00  0.00     0.052 A 
HETATM   12  N1  UNL     1      -5.895 -27.299 -13.447  1.00  0.00    -0.361 N 
HETATM   13  C14 UNL     1      -5.570 -28.433 -14.103  1.00  0.00     0.100 A 
HETATM   14  C15 UNL     1      -6.514 -29.256 -14.680  1.00  0.00    -0.019 A 
HETATM   15  C16 UNL     1      -6.127 -30.497 -15.396  1.00  0.00     0.052 C 
HETATM   16  N2  UNL     1      -8.945 -29.534 -15.059  1.00  0.00    -0.348 N 
ATOM     17  H2  UNL     1      -8.975 -30.406 -15.588  1.00  0.00     0.167 HD
BRANCH  12  18
HETATM   18  C11 UNL     1      -4.879 -26.447 -12.847  1.00  0.00     0.080 C 
HETATM   19  C12 UNL     1      -3.534 -27.071 -13.056  1.00  0.00     0.032 C 
HETATM   20  C13 UNL     1      -4.898 -25.055 -13.402  1.00  0.00     0.032 C 
ENDBRANCH  12  18
ENDBRANCH   6   7
ENDBRANCH   4   5
ENDBRANCH   3   4
TORSDOF 4
ENDMDL
MODEL 5
REMARK VINA RESULT: -7.550491013      2.604      3.620
REMARK  4 active torsions:
REMARK  status: ('A' for Active; 'I' for Inactive)
REMARK    1  A    between atoms: C3_3  and  C4_4 
REMARK    2  A    between atoms: C4_4  and  C5_5 
REMARK    3  A    between atoms: C6_6  and  C7_7 
REMARK    4  A    between atoms: N1_11  and  C11_12 
ROOT
HETATM    1  C1  UNL     1     -14.394 -30.216 -11.932  1.00  0.00     0.012 C 
HETATM    2  C2  UNL     1     -14.354 -30.608 -13.075  1.00  0.00    -0.117 C 
HETATM    3  C3  UNL     1     -14.317 -31.094 -14.455  1.00  0.00     0.105 C 
ENDROOT
BRANCH   3   4
HETATM    4  C4  UNL     1     -13.874 -29.982 -15.403  1.00  0.00     0.106 C 
BRANCH   4   5
HETATM    5  C5  UNL     1     -12.503 -29.577 -15.130  1.00  0.00    -0.099 C 
HETATM    6  C6  UNL     1     -11.365 -29.259 -14.900  1.00  0.00    -0.049 C 
BRANCH   6   7
HETATM    7  C7  UNL     1      -9.986 -28.894 -14.614  1.00  0.00     0.088 A 
HETATM    8  C8  UNL     1      -9.565 -27.792 -13.909  1.00  0.00     0.054 A 
HETATM    9  C9  UNL     1      -8.195 -27.835 -13.878  1.00  0.00     0.009 A 
HETATM   10  C10 UNL     1      -7.202 -27.022 -13.329  1.00  0.00     0.104 A 
HETATM   11  C17 UNL     1      -7.829 -28.968 -14.570  1.00  0.00     0.052 A 
HETATM   12  N1  UNL     1      -5.896 -27.306 -13.451  1.00  0.00    -0.361 N 
HETATM   13  C14 UNL     1      -5.558 -28.421 -14.134  1.00  0.00     0.100 A 
HETATM   14  C15 UNL     1      -6.495 -29.261 -14.697  1.00  0.00    -0.019 A 
HETATM   15  C16 UNL     1      -6.093 -30.480 -15.442  1.00  0.00     0.052 C 
HETATM   16  N2  UNL     1      -8.926 -29.602 -15.013  1.00  0.00    -0.348 N 
ATOM     17  H2  UNL     1      -8.947 -30.467 -15.555  1.00  0.00     0.167 HD
BRANCH  12  18
HETATM   18  C11 UNL     1      -4.887 -26.435 -12.866  1.00  0.00     0.080 C 
HETATM   19  C12 UNL     1      -3.533 -27.028 -13.103  1.00  0.00     0.032 C 
HETATM   20  C13 UNL     1      -4.948 -25.041 -13.414  1.00  0.00     0.032 C 
ENDBRANCH  12  18
ENDBRANCH   6   7
ENDBRANCH   4   5
ENDBRANCH   3   4
TORSDOF 4
ENDMDL
