MODEL 1
REMARK VINA RESULT: -7.081050584      0.000      0.000
REMARK  3 active torsions:
REMARK  status: ('A' for Active; 'I' for Inactive)
REMARK    1  A    between atoms: C4_7  and  C5_8 
REMARK    2  A    between atoms: C5_8  and  C6_9 
REMARK    3  A    between atoms: C12_15  and  N2_16 
ROOT
HETATM    1  C1  UNL     1      -7.999 -25.326 -11.237  1.00  0.00     0.048 C 
HETATM    2  C2  UNL     1      -7.747 -25.545 -12.740  1.00  0.00     0.149 C 
HETATM    3  C3  UNL     1      -7.300 -24.294 -13.354  1.00  0.00     0.048 C 
HETATM    4  N1  UNL     1      -9.019 -26.010 -13.342  1.00  0.00    -0.059 N 
ATOM      5  H11 UNL     1      -9.299 -25.725 -14.280  1.00  0.00     0.278 HD
ATOM      6  H12 UNL     1      -9.922 -25.676 -13.006  1.00  0.00     0.278 HD
HETATM    7  C4  UNL     1      -8.563 -27.335 -13.069  1.00  0.00     0.220 C 
HETATM    8  C12 UNL     1      -7.155 -26.849 -13.037  1.00  0.00     0.254 C 
ENDROOT
BRANCH   7   9
HETATM    9  C5  UNL     1      -8.970 -28.402 -13.946  1.00  0.00     0.040 C 
BRANCH   9  10
HETATM   10  C6  UNL     1     -10.376 -28.372 -14.466  1.00  0.00    -0.009 C 
HETATM   11  C7  UNL     1     -10.849 -29.847 -14.666  1.00  0.00     0.031 C 
HETATM   12  C8  UNL     1     -12.329 -29.750 -14.797  1.00  0.00    -0.030 C 
HETATM   13  C9  UNL     1     -12.896 -28.696 -15.385  1.00  0.00    -0.031 C 
HETATM   14  C10 UNL     1     -12.129 -27.573 -15.938  1.00  0.00     0.027 C 
HETATM   15  C11 UNL     1     -10.609 -27.763 -15.801  1.00  0.00     0.009 C 
ENDBRANCH   9  10
ENDBRANCH   7   9
BRANCH   8  16
HETATM   16  N2  UNL     1      -6.256 -27.034 -14.097  1.00  0.00    -0.070 N 
HETATM   17  C13 UNL     1      -6.011 -28.482 -14.240  1.00  0.00     0.272 C 
HETATM   18  C14 UNL     1      -6.521 -26.507 -15.375  1.00  0.00     0.272 C 
HETATM   19  C15 UNL     1      -4.960 -26.493 -13.640  1.00  0.00     0.272 C 
ENDBRANCH   8  16
TORSDOF 3
ENDMDL
MODEL 2
REMARK VINA RESULT: -7.038031543      2.461      5.554
REMARK  3 active torsions:
REMARK  status: ('A' for Active; 'I' for Inactive)
REMARK    1  A    between atoms: C4_7  and  C5_8 
REMARK    2  A    between atoms: C5_8  and  C6_9 
REMARK    3  A    between atoms: C12_15  and  N2_16 
ROOT
HETATM    1  C1  UNL     1     -10.614 -30.596 -14.807  1.00  0.00     0.048 C 
HETATM    2  C2  UNL     1      -9.243 -30.956 -14.206  1.00  0.00     0.149 C 
HETATM    3  C3  UNL     1      -9.341 -32.220 -13.475  1.00  0.00     0.048 C 
HETATM    4  N1  UNL     1      -8.847 -29.848 -13.304  1.00  0.00    -0.059 N 
ATOM      5  H11 UNL     1      -8.343 -30.022 -12.435  1.00  0.00     0.278 HD
ATOM      6  H12 UNL     1      -9.538 -29.329 -12.762  1.00  0.00     0.278 HD
HETATM    7  C4  UNL     1      -8.202 -29.271 -14.440  1.00  0.00     0.220 C 
HETATM    8  C12 UNL     1      -8.125 -30.612 -15.083  1.00  0.00     0.254 C 
ENDROOT
BRANCH   7   9
HETATM    9  C5  UNL     1      -7.024 -28.468 -14.233  1.00  0.00     0.040 C 
BRANCH   9  10
HETATM   10  C6  UNL     1      -7.221 -27.062 -13.755  1.00  0.00    -0.009 C 
HETATM   11  C7  UNL     1      -5.964 -26.231 -14.167  1.00  0.00     0.031 C 
HETATM   12  C8  UNL     1      -6.390 -24.812 -14.018  1.00  0.00    -0.030 C 
HETATM   13  C9  UNL     1      -7.244 -24.451 -13.060  1.00  0.00    -0.031 C 
HETATM   14  C10 UNL     1      -7.822 -25.397 -12.097  1.00  0.00     0.027 C 
HETATM   15  C11 UNL     1      -7.306 -26.833 -12.289  1.00  0.00     0.009 C 
ENDBRANCH   9  10
ENDBRANCH   7   9
BRANCH   8  16
HETATM   16  N2  UNL     1      -6.950 -31.377 -15.125  1.00  0.00    -0.070 N 
HETATM   17  C13 UNL     1      -5.919 -30.590 -15.826  1.00  0.00     0.272 C 
HETATM   18  C14 UNL     1      -6.379 -31.896 -13.948  1.00  0.00     0.272 C 
HETATM   19  C15 UNL     1      -7.223 -32.506 -16.037  1.00  0.00     0.272 C 
ENDBRANCH   8  16
TORSDOF 3
ENDMDL
MODEL 3
REMARK VINA RESULT: -6.718895399      1.185      2.557
REMARK  3 active torsions:
REMARK  status: ('A' for Active; 'I' for Inactive)
REMARK    1  A    between atoms: C4_7  and  C5_8 
REMARK    2  A    between atoms: C5_8  and  C6_9 
REMARK    3  A    between atoms: C12_15  and  N2_16 
ROOT
HETATM    1  C1  UNL     1      -5.916 -29.154 -15.027  1.00  0.00     0.048 C 
HETATM    2  C2  UNL     1      -6.098 -28.080 -13.940  1.00  0.00     0.149 C 
HETATM    3  C3  UNL     1      -4.891 -27.999 -13.117  1.00  0.00     0.048 C 
HETATM    4  N1  UNL     1      -7.274 -28.466 -13.125  1.00  0.00    -0.059 N 
ATOM      5  H11 UNL     1      -7.303 -28.300 -12.119  1.00  0.00     0.278 HD
ATOM      6  H12 UNL     1      -7.496 -29.444 -12.937  1.00  0.00     0.278 HD
HETATM    7  C4  UNL     1      -8.051 -27.684 -14.033  1.00  0.00     0.220 C 
HETATM    8  C12 UNL     1      -6.837 -26.909 -14.411  1.00  0.00     0.254 C 
ENDROOT
BRANCH   7   9
HETATM    9  C5  UNL     1      -9.238 -27.031 -13.544  1.00  0.00     0.040 C 
BRANCH   9  10
HETATM   10  C6  UNL     1     -10.544 -27.408 -14.176  1.00  0.00    -0.009 C 
HETATM   11  C7  UNL     1     -10.442 -28.894 -14.648  1.00  0.00     0.031 C 
HETATM   12  C8  UNL     1     -11.851 -29.305 -14.894  1.00  0.00    -0.030 C 
HETATM   13  C9  UNL     1     -12.747 -28.433 -15.358  1.00  0.00    -0.031 C 
HETATM   14  C10 UNL     1     -12.427 -27.032 -15.656  1.00  0.00     0.027 C 
HETATM   15  C11 UNL     1     -10.947 -26.692 -15.414  1.00  0.00     0.009 C 
ENDBRANCH   9  10
ENDBRANCH   7   9
BRANCH   8  16
HETATM   16  N2  UNL     1      -6.571 -25.618 -13.930  1.00  0.00    -0.070 N 
HETATM   17  C13 UNL     1      -6.977 -24.652 -14.968  1.00  0.00     0.272 C 
HETATM   18  C14 UNL     1      -7.091 -25.181 -12.698  1.00  0.00     0.272 C 
HETATM   19  C15 UNL     1      -5.100 -25.492 -13.876  1.00  0.00     0.272 C 
ENDBRANCH   8  16
TORSDOF 3
ENDMDL
MODEL 4
REMARK VINA RESULT: -6.715414837      2.350      4.016
REMARK  3 active torsions:
REMARK  status: ('A' for Active; 'I' for Inactive)
REMARK    1  A    between atoms: C4_7  and  C5_8 
REMARK    2  A    between atoms: C5_8  and  C6_9 
REMARK    3  A    between atoms: C12_15  and  N2_16 
ROOT
HETATM    1  C1  UNL     1     -11.377 -26.720 -14.983  1.00  0.00     0.048 C 
HETATM    2  C2  UNL     1      -9.885 -26.912 -15.310  1.00  0.00     0.149 C 
HETATM    3  C3  UNL     1      -9.541 -26.156 -16.515  1.00  0.00     0.048 C 
HETATM    4  N1  UNL     1      -9.654 -28.363 -15.508  1.00  0.00    -0.059 N 
ATOM      5  H11 UNL     1      -8.996 -28.707 -16.206  1.00  0.00     0.278 HD
ATOM      6  H12 UNL     1     -10.364 -28.963 -15.927  1.00  0.00     0.278 HD
HETATM    7  C4  UNL     1      -9.359 -28.417 -14.112  1.00  0.00     0.220 C 
HETATM    8  C12 UNL     1      -9.039 -26.963 -14.118  1.00  0.00     0.254 C 
ENDROOT
BRANCH   7   9
HETATM    9  C5  UNL     1      -8.410 -29.394 -13.643  1.00  0.00     0.040 C 
BRANCH   9  10
HETATM   10  C6  UNL     1      -7.786 -30.298 -14.663  1.00  0.00    -0.009 C 
HETATM   11  C7  UNL     1      -7.863 -31.762 -14.123  1.00  0.00     0.031 C 
HETATM   12  C8  UNL     1      -7.597 -32.613 -15.316  1.00  0.00    -0.030 C 
HETATM   13  C9  UNL     1      -6.759 -32.212 -16.270  1.00  0.00    -0.031 C 
HETATM   14  C10 UNL     1      -6.045 -30.929 -16.228  1.00  0.00     0.027 C 
HETATM   15  C11 UNL     1      -6.339 -30.124 -14.951  1.00  0.00     0.009 C 
ENDBRANCH   9  10
ENDBRANCH   7   9
BRANCH   8  16
HETATM   16  N2  UNL     1      -7.727 -26.466 -14.115  1.00  0.00    -0.070 N 
HETATM   17  C13 UNL     1      -7.019 -27.057 -12.964  1.00  0.00     0.272 C 
HETATM   18  C14 UNL     1      -6.901 -26.590 -15.247  1.00  0.00     0.272 C 
HETATM   19  C15 UNL     1      -7.829 -25.032 -13.778  1.00  0.00     0.272 C 
ENDBRANCH   8  16
TORSDOF 3
ENDMDL
MODEL 5
REMARK VINA RESULT: -6.693784085      1.541      3.224
REMARK  3 active torsions:
REMARK  status: ('A' for Active; 'I' for Inactive)
REMARK    1  A    between atoms: C4_7  and  C5_8 
REMARK    2  A    between atoms: C5_8  and  C6_9 
REMARK    3  A    between atoms: C12_15  and  N2_16 
ROOT
HETATM    1  C1  UNL     1      -6.820 -30.040 -15.300  1.00  0.00     0.048 C 
HETATM    2  C2  UNL     1      -7.234 -28.824 -14.450  1.00  0.00     0.149 C 
HETATM    3  C3  UNL     1      -6.058 -28.264 -13.782  1.00  0.00     0.048 C 
HETATM    4  N1  UNL     1      -8.236 -29.291 -13.463  1.00  0.00    -0.059 N 
ATOM      5  H11 UNL     1      -8.268 -28.912 -12.516  1.00  0.00     0.278 HD
ATOM      6  H12 UNL     1      -8.187 -30.224 -13.053  1.00  0.00     0.278 HD
HETATM    7  C4  UNL     1      -9.224 -28.952 -14.436  1.00  0.00     0.220 C 
HETATM    8  C12 UNL     1      -8.270 -28.010 -15.084  1.00  0.00     0.254 C 
ENDROOT
BRANCH   7   9
HETATM    9  C5  UNL     1     -10.521 -28.517 -13.984  1.00  0.00     0.040 C 
BRANCH   9  10
HETATM   10  C6  UNL     1     -11.714 -28.961 -14.774  1.00  0.00    -0.009 C 
HETATM   11  C7  UNL     1     -12.428 -27.687 -15.329  1.00  0.00     0.031 C 
HETATM   12  C8  UNL     1     -13.335 -28.201 -16.392  1.00  0.00    -0.030 C 
HETATM   13  C9  UNL     1     -13.918 -29.394 -16.277  1.00  0.00    -0.031 C 
HETATM   14  C10 UNL     1     -13.720 -30.278 -15.121  1.00  0.00     0.027 C 
HETATM   15  C11 UNL     1     -12.803 -29.665 -14.050  1.00  0.00     0.009 C 
ENDBRANCH   9  10
ENDBRANCH   7   9
BRANCH   8  16
HETATM   16  N2  UNL     1      -8.331 -26.619 -14.913  1.00  0.00    -0.070 N 
HETATM   17  C13 UNL     1      -9.322 -26.085 -15.867  1.00  0.00     0.272 C 
HETATM   18  C14 UNL     1      -8.590 -26.053 -13.651  1.00  0.00     0.272 C 
HETATM   19  C15 UNL     1      -7.041 -26.086 -15.396  1.00  0.00     0.272 C 
ENDBRANCH   8  16
TORSDOF 3
ENDMDL
