MODEL 1
REMARK VINA RESULT: -7.650506588      0.000      0.000
REMARK  6 active torsions:
REMARK  status: ('A' for Active; 'I' for Inactive)
REMARK    1  A    between atoms: C3_5  and  C4_6 
REMARK    2  A    between atoms: N2_11  and  C9_12 
REMARK    3  A    between atoms: C9_12  and  C10_13 
REMARK    4  A    between atoms: C11_14  and  C12_15 
REMARK    5  A    between atoms: C13_16  and  C14_17 
REMARK    6  A    between atoms: C14_17  and  C15_18 
ROOT
HETATM    1  C1  UNL     1      -8.403 -26.898 -12.998  1.00  0.00     0.064 C 
HETATM    2  C2  UNL     1      -8.586 -27.975 -13.706  1.00  0.00     0.098 A 
HETATM    3  N1  UNL     1      -7.477 -28.864 -13.874  1.00  0.00    -0.346 N 
ATOM      4  H1  UNL     1      -6.574 -28.661 -13.445  1.00  0.00     0.167 HD
HETATM    5  C3  UNL     1      -7.666 -30.030 -14.651  1.00  0.00     0.015 A 
HETATM    6  C7  UNL     1      -8.855 -30.245 -15.185  1.00  0.00     0.042 A 
HETATM    7  C8  UNL     1      -9.937 -29.324 -14.988  1.00  0.00     0.095 A 
HETATM    8  N2  UNL     1      -9.850 -28.237 -14.294  1.00  0.00    -0.333 N 
ENDROOT
BRANCH   8   9
HETATM    9  C9  UNL     1     -11.002 -27.410 -14.157  1.00  0.00     0.224 C 
BRANCH   9  10
HETATM   10  C10 UNL     1     -12.055 -27.826 -15.095  1.00  0.00    -0.072 C 
HETATM   11  C11 UNL     1     -12.937 -28.186 -15.859  1.00  0.00    -0.013 C 
BRANCH  11  12
HETATM   12  C12 UNL     1     -13.975 -28.617 -16.727  1.00  0.00    -0.015 C 
HETATM   13  C13 UNL     1     -14.864 -28.963 -17.473  1.00  0.00    -0.092 C 
BRANCH  13  14
HETATM   14  C14 UNL     1     -15.942 -29.357 -18.385  1.00  0.00     0.094 C 
BRANCH  14  15
HETATM   15  C15 UNL     1     -16.181 -28.196 -19.326  1.00  0.00     0.007 C 
HETATM   16  C16 UNL     1     -16.955 -27.101 -18.633  1.00  0.00     0.006 C 
ENDBRANCH  14  15
ENDBRANCH  13  14
ENDBRANCH  11  12
ENDBRANCH   9  10
ENDBRANCH   8   9
BRANCH   5  17
HETATM   17  C4  UNL     1      -6.553 -30.996 -14.863  1.00  0.00     0.027 C 
HETATM   18  C5  UNL     1      -6.892 -32.367 -14.371  1.00  0.00     0.016 C 
HETATM   19  C6  UNL     1      -6.210 -30.974 -16.357  1.00  0.00     0.016 C 
ENDBRANCH   5  17
TORSDOF 6
ENDMDL
MODEL 2
REMARK VINA RESULT: -7.238325937      0.730      1.214
REMARK  6 active torsions:
REMARK  status: ('A' for Active; 'I' for Inactive)
REMARK    1  A    between atoms: C3_5  and  C4_6 
REMARK    2  A    between atoms: N2_11  and  C9_12 
REMARK    3  A    between atoms: C9_12  and  C10_13 
REMARK    4  A    between atoms: C11_14  and  C12_15 
REMARK    5  A    between atoms: C13_16  and  C14_17 
REMARK    6  A    between atoms: C14_17  and  C15_18 
ROOT
HETATM    1  C1  UNL     1      -8.384 -26.879 -13.016  1.00  0.00     0.064 C 
HETATM    2  C2  UNL     1      -8.575 -27.959 -13.718  1.00  0.00     0.098 A 
HETATM    3  N1  UNL     1      -7.471 -28.854 -13.887  1.00  0.00    -0.346 N 
ATOM      4  H1  UNL     1      -6.565 -28.653 -13.463  1.00  0.00     0.167 HD
HETATM    5  C3  UNL     1      -7.669 -30.024 -14.656  1.00  0.00     0.015 A 
HETATM    6  C7  UNL     1      -8.862 -30.237 -15.182  1.00  0.00     0.042 A 
HETATM    7  C8  UNL     1      -9.938 -29.310 -14.984  1.00  0.00     0.095 A 
HETATM    8  N2  UNL     1      -9.843 -28.220 -14.297  1.00  0.00    -0.333 N 
ENDROOT
BRANCH   8   9
HETATM    9  C9  UNL     1     -10.991 -27.386 -14.159  1.00  0.00     0.224 C 
BRANCH   9  10
HETATM   10  C10 UNL     1     -12.068 -27.833 -15.054  1.00  0.00    -0.072 C 
HETATM   11  C11 UNL     1     -12.948 -28.213 -15.811  1.00  0.00    -0.013 C 
BRANCH  11  12
HETATM   12  C12 UNL     1     -13.954 -28.674 -16.702  1.00  0.00    -0.015 C 
HETATM   13  C13 UNL     1     -14.810 -29.046 -17.472  1.00  0.00    -0.092 C 
BRANCH  13  14
HETATM   14  C14 UNL     1     -15.844 -29.476 -18.419  1.00  0.00     0.094 C 
BRANCH  14  15
HETATM   15  C15 UNL     1     -15.348 -30.744 -19.080  1.00  0.00     0.007 C 
HETATM   16  C16 UNL     1     -14.763 -30.443 -20.437  1.00  0.00     0.006 C 
ENDBRANCH  14  15
ENDBRANCH  13  14
ENDBRANCH  11  12
ENDBRANCH   9  10
ENDBRANCH   8   9
BRANCH   5  17
HETATM   17  C4  UNL     1      -6.561 -30.996 -14.868  1.00  0.00     0.027 C 
HETATM   18  C5  UNL     1      -6.908 -32.366 -14.378  1.00  0.00     0.016 C 
HETATM   19  C6  UNL     1      -6.217 -30.974 -16.362  1.00  0.00     0.016 C 
ENDBRANCH   5  17
TORSDOF 6
ENDMDL
MODEL 3
REMARK VINA RESULT: -7.199850343      3.570      5.162
REMARK  6 active torsions:
REMARK  status: ('A' for Active; 'I' for Inactive)
REMARK    1  A    between atoms: C3_5  and  C4_6 
REMARK    2  A    between atoms: N2_11  and  C9_12 
REMARK    3  A    between atoms: C9_12  and  C10_13 
REMARK    4  A    between atoms: C11_14  and  C12_15 
REMARK    5  A    between atoms: C13_16  and  C14_17 
REMARK    6  A    between atoms: C14_17  and  C15_18 
ROOT
HETATM    1  C1  UNL     1      -9.977 -26.471 -16.501  1.00  0.00     0.064 C 
HETATM    2  C2  UNL     1      -9.397 -26.906 -15.420  1.00  0.00     0.098 A 
HETATM    3  N1  UNL     1      -8.516 -26.017 -14.726  1.00  0.00    -0.346 N 
ATOM      4  H1  UNL     1      -8.355 -25.069 -15.067  1.00  0.00     0.167 HD
HETATM    5  C3  UNL     1      -7.875 -26.487 -13.557  1.00  0.00     0.015 A 
HETATM    6  C7  UNL     1      -8.119 -27.723 -13.160  1.00  0.00     0.042 A 
HETATM    7  C8  UNL     1      -9.011 -28.577 -13.889  1.00  0.00     0.095 A 
HETATM    8  N2  UNL     1      -9.636 -28.228 -14.964  1.00  0.00    -0.333 N 
ENDROOT
BRANCH   8   9
HETATM    9  C9  UNL     1     -10.511 -29.162 -15.591  1.00  0.00     0.224 C 
BRANCH   9  10
HETATM   10  C10 UNL     1     -11.665 -29.453 -14.728  1.00  0.00    -0.072 C 
HETATM   11  C11 UNL     1     -12.610 -29.706 -13.997  1.00  0.00    -0.013 C 
BRANCH  11  12
HETATM   12  C12 UNL     1     -13.692 -30.006 -13.128  1.00  0.00    -0.015 C 
HETATM   13  C13 UNL     1     -14.602 -30.258 -12.369  1.00  0.00    -0.092 C 
BRANCH  13  14
HETATM   14  C14 UNL     1     -15.689 -30.554 -11.430  1.00  0.00     0.094 C 
BRANCH  14  15
HETATM   15  C15 UNL     1     -16.018 -29.266 -10.705  1.00  0.00     0.007 C 
HETATM   16  C16 UNL     1     -14.865 -28.839  -9.830  1.00  0.00     0.006 C 
ENDBRANCH  14  15
ENDBRANCH  13  14
ENDBRANCH  11  12
ENDBRANCH   9  10
ENDBRANCH   8   9
BRANCH   5  17
HETATM   17  C4  UNL     1      -6.948 -25.611 -12.789  1.00  0.00     0.027 C 
HETATM   18  C5  UNL     1      -6.239 -24.629 -13.666  1.00  0.00     0.016 C 
HETATM   19  C6  UNL     1      -7.773 -24.932 -11.689  1.00  0.00     0.016 C 
ENDBRANCH   5  17
TORSDOF 6
ENDMDL
MODEL 4
REMARK VINA RESULT: -7.064657199      1.051      1.375
REMARK  6 active torsions:
REMARK  status: ('A' for Active; 'I' for Inactive)
REMARK    1  A    between atoms: C3_5  and  C4_6 
REMARK    2  A    between atoms: N2_11  and  C9_12 
REMARK    3  A    between atoms: C9_12  and  C10_13 
REMARK    4  A    between atoms: C11_14  and  C12_15 
REMARK    5  A    between atoms: C13_16  and  C14_17 
REMARK    6  A    between atoms: C14_17  and  C15_18 
ROOT
HETATM    1  C1  UNL     1      -9.446 -26.931 -14.587  1.00  0.00     0.064 C 
HETATM    2  C2  UNL     1      -9.472 -28.229 -14.677  1.00  0.00     0.098 A 
HETATM    3  N1  UNL     1      -8.244 -28.908 -14.960  1.00  0.00    -0.346 N 
ATOM      4  H1  UNL     1      -7.375 -28.388 -15.079  1.00  0.00     0.167 HD
HETATM    5  C3  UNL     1      -8.268 -30.317 -15.069  1.00  0.00     0.015 A 
HETATM    6  C7  UNL     1      -9.421 -30.942 -14.905  1.00  0.00     0.042 A 
HETATM    7  C8  UNL     1     -10.626 -30.217 -14.623  1.00  0.00     0.095 A 
HETATM    8  N2  UNL     1     -10.692 -28.932 -14.507  1.00  0.00    -0.333 N 
ENDROOT
BRANCH   8   9
HETATM    9  C9  UNL     1     -11.948 -28.328 -14.208  1.00  0.00     0.224 C 
BRANCH   9  10
HETATM   10  C10 UNL     1     -12.901 -28.538 -15.307  1.00  0.00    -0.072 C 
HETATM   11  C11 UNL     1     -13.677 -28.705 -16.235  1.00  0.00    -0.013 C 
BRANCH  11  12
HETATM   12  C12 UNL     1     -14.559 -28.897 -17.332  1.00  0.00    -0.015 C 
HETATM   13  C13 UNL     1     -15.308 -29.040 -18.272  1.00  0.00    -0.092 C 
BRANCH  13  14
HETATM   14  C14 UNL     1     -16.211 -29.188 -19.419  1.00  0.00     0.094 C 
BRANCH  14  15
HETATM   15  C15 UNL     1     -16.226 -27.863 -20.150  1.00  0.00     0.007 C 
HETATM   16  C16 UNL     1     -17.522 -27.132 -19.901  1.00  0.00     0.006 C 
ENDBRANCH  14  15
ENDBRANCH  13  14
ENDBRANCH  11  12
ENDBRANCH   9  10
ENDBRANCH   8   9
BRANCH   5  17
HETATM   17  C4  UNL     1      -7.024 -31.083 -15.360  1.00  0.00     0.027 C 
HETATM   18  C5  UNL     1      -5.801 -30.227 -15.277  1.00  0.00     0.016 C 
HETATM   19  C6  UNL     1      -6.983 -32.267 -14.387  1.00  0.00     0.016 C 
ENDBRANCH   5  17
TORSDOF 6
ENDMDL
MODEL 5
REMARK VINA RESULT: -7.020877138      4.529      7.072
REMARK  6 active torsions:
REMARK  status: ('A' for Active; 'I' for Inactive)
REMARK    1  A    between atoms: C3_5  and  C4_6 
REMARK    2  A    between atoms: N2_11  and  C9_12 
REMARK    3  A    between atoms: C9_12  and  C10_13 
REMARK    4  A    between atoms: C11_14  and  C12_15 
REMARK    5  A    between atoms: C13_16  and  C14_17 
REMARK    6  A    between atoms: C14_17  and  C15_18 
ROOT
HETATM    1  C1  UNL     1      -5.887 -30.025 -15.110  1.00  0.00     0.064 C 
HETATM    2  C2  UNL     1      -6.731 -29.218 -14.535  1.00  0.00     0.098 A 
HETATM    3  N1  UNL     1      -6.207 -28.069 -13.860  1.00  0.00    -0.346 N 
ATOM      4  H1  UNL     1      -5.204 -27.888 -13.839  1.00  0.00     0.167 HD
HETATM    5  C3  UNL     1      -7.117 -27.194 -13.225  1.00  0.00     0.015 A 
HETATM    6  C7  UNL     1      -8.407 -27.475 -13.284  1.00  0.00     0.042 A 
HETATM    7  C8  UNL     1      -8.884 -28.639 -13.973  1.00  0.00     0.095 A 
HETATM    8  N2  UNL     1      -8.122 -29.489 -14.579  1.00  0.00    -0.333 N 
ENDROOT
BRANCH   8   9
HETATM    9  C9  UNL     1      -8.717 -30.600 -15.244  1.00  0.00     0.224 C 
BRANCH   9  10
HETATM   10  C10 UNL     1      -9.189 -31.596 -14.271  1.00  0.00    -0.072 C 
HETATM   11  C11 UNL     1      -9.584 -32.438 -13.480  1.00  0.00    -0.013 C 
BRANCH  11  12
HETATM   12  C12 UNL     1     -10.039 -33.436 -12.577  1.00  0.00    -0.015 C 
HETATM   13  C13 UNL     1     -10.440 -34.272 -11.798  1.00  0.00    -0.092 C 
BRANCH  13  14
HETATM   14  C14 UNL     1     -10.941 -35.266 -10.844  1.00  0.00     0.094 C 
BRANCH  14  15
HETATM   15  C15 UNL     1     -11.184 -34.547  -9.534  1.00  0.00     0.007 C 
HETATM   16  C16 UNL     1     -10.770 -35.410  -8.368  1.00  0.00     0.006 C 
ENDBRANCH  14  15
ENDBRANCH  13  14
ENDBRANCH  11  12
ENDBRANCH   9  10
ENDBRANCH   8   9
BRANCH   5  17
HETATM   17  C4  UNL     1      -6.637 -25.980 -12.508  1.00  0.00     0.027 C 
HETATM   18  C5  UNL     1      -5.943 -25.020 -13.421  1.00  0.00     0.016 C 
HETATM   19  C6  UNL     1      -7.851 -25.357 -11.808  1.00  0.00     0.016 C 
ENDBRANCH   5  17
TORSDOF 6
ENDMDL
