MODEL 1
REMARK VINA RESULT: -6.417383727      0.000      0.000
REMARK  9 active torsions:
REMARK  status: ('A' for Active; 'I' for Inactive)
REMARK    1  A    between atoms: N1_1  and  C1_4 
REMARK    2  A    between atoms: C1_4  and  N2_5 
REMARK    3  A    between atoms: C1_4  and  C3_11 
REMARK    4  A    between atoms: N2_5  and  O1_7 
REMARK    5  A    between atoms: O1_7  and  C2_8 
REMARK       I    between atoms: N6_17  and  C6_19 
REMARK    6  A    between atoms: C6_19  and  C7_21 
REMARK    7  A    between atoms: C7_21  and  N7_22 
REMARK    8  A    between atoms: C8_29  and  N11_30 
REMARK    9  A    between atoms: N12_33  and  N13_34 
ROOT
HETATM    1  C3  UNL     1      53.470 -11.720  18.129  1.00  0.00     0.160 A 
HETATM    2  C4  UNL     1      54.538 -11.699  17.266  1.00  0.00     0.165 A 
HETATM    3  N4  UNL     1      55.929 -11.575  17.510  1.00  0.00    -0.079 NA
HETATM    4  N5  UNL     1      54.039 -11.828  15.991  1.00  0.00    -0.174 N 
ATOM      5  H5  UNL     1      54.597 -11.846  15.137  1.00  0.00     0.185 HD
HETATM    6  C5  UNL     1      52.706 -11.927  16.048  1.00  0.00     0.707 A 
HETATM    7  N6  UNL     1      51.839 -12.043  15.103  1.00  0.00    -0.156 N 
ATOM      8  H6  UNL     1      50.855 -12.104  15.366  1.00  0.00     0.187 HD
HETATM    9  C6  UNL     1      52.151 -12.090  13.749  1.00  0.00     0.256 C 
HETATM   10  O3  UNL     1      53.117 -11.450  13.291  1.00  0.00    -0.271 OA
HETATM   11  N12 UNL     1      52.370 -11.859  17.370  1.00  0.00    -0.086 N 
ENDROOT
BRANCH  11  12
HETATM   12  N13 UNL     1      51.069 -11.933  17.840  1.00  0.00    -0.324 N 
ATOM     13 2H13 UNL     1      50.675 -12.759  18.291  1.00  0.00     0.178 HD
ATOM     14 1H13 UNL     1      50.376 -11.186  17.794  1.00  0.00     0.178 HD
ENDBRANCH  11  12
BRANCH   9  15
HETATM   15  C7  UNL     1      51.348 -12.906  12.764  1.00  0.00     0.273 C 
BRANCH  15  16
HETATM   16  N7  UNL     1      51.772 -14.284  12.827  1.00  0.00    -0.098 N 
HETATM   17  N8  UNL     1      51.150 -15.239  13.484  1.00  0.00    -0.211 N 
HETATM   18  N9  UNL     1      51.808 -16.370  13.319  1.00  0.00    -0.213 N 
ATOM     19  H8  UNL     1      50.297 -15.124  14.033  1.00  0.00     0.210 HD
HETATM   20  N10 UNL     1      52.858 -16.139  12.552  1.00  0.00    -0.115 N 
ATOM     21  H9  UNL     1      51.549 -17.273  13.717  1.00  0.00     0.210 HD
HETATM   22  C8  UNL     1      52.843 -14.832  12.238  1.00  0.00     0.710 A 
ATOM     23  H10 UNL     1      53.551 -16.824  12.252  1.00  0.00     0.207 HD
BRANCH  22  24
HETATM   24  N11 UNL     1      53.715 -14.212  11.495  1.00  0.00    -0.232 N 
ATOM     25 2H11 UNL     1      53.537 -13.385  10.926  1.00  0.00     0.174 HD
ATOM     26 1H11 UNL     1      54.696 -14.466  11.376  1.00  0.00     0.174 HD
ENDBRANCH  22  24
ENDBRANCH  15  16
ENDBRANCH   9  15
BRANCH   1  27
HETATM   27  C1  UNL     1      53.515 -11.608  19.561  1.00  0.00     0.152 C 
BRANCH  27  28
HETATM   28  N1  UNL     1      52.573 -11.155  20.273  1.00  0.00    -0.382 N 
ATOM     29  H12 UNL     1      52.666 -10.893  21.254  1.00  0.00     0.157 HD
ATOM     30  H11 UNL     1      51.684 -11.061  19.782  1.00  0.00     0.157 HD
ENDBRANCH  27  28
BRANCH  27  31
HETATM   31  N2  UNL     1      54.684 -12.029  20.314  1.00  0.00    -0.238 N 
ATOM     32  H2  UNL     1      55.430 -11.372  20.544  1.00  0.00     0.196 HD
BRANCH  31  33
HETATM   33  O1  UNL     1      54.745 -13.330  20.701  1.00  0.00    -0.182 OA
BRANCH  33  34
HETATM   34  C2  UNL     1      55.174 -14.343  19.822  1.00  0.00     0.394 C 
HETATM   35  N3  UNL     1      54.301 -15.108  19.020  1.00  0.00    -0.031 NA
HETATM   36  O2  UNL     1      56.435 -14.521  19.805  1.00  0.00    -0.240 OA
ENDBRANCH  33  34
ENDBRANCH  31  33
ENDBRANCH  27  31
ENDBRANCH   1  27
TORSDOF 9
ENDMDL
MODEL 2
REMARK VINA RESULT: -6.415152489      1.409      2.020
REMARK  9 active torsions:
REMARK  status: ('A' for Active; 'I' for Inactive)
REMARK    1  A    between atoms: N1_1  and  C1_4 
REMARK    2  A    between atoms: C1_4  and  N2_5 
REMARK    3  A    between atoms: C1_4  and  C3_11 
REMARK    4  A    between atoms: N2_5  and  O1_7 
REMARK    5  A    between atoms: O1_7  and  C2_8 
REMARK       I    between atoms: N6_17  and  C6_19 
REMARK    6  A    between atoms: C6_19  and  C7_21 
REMARK    7  A    between atoms: C7_21  and  N7_22 
REMARK    8  A    between atoms: C8_29  and  N11_30 
REMARK    9  A    between atoms: N12_33  and  N13_34 
ROOT
HETATM    1  C3  UNL     1      53.598 -11.635  18.526  1.00  0.00     0.160 A 
HETATM    2  C4  UNL     1      54.725 -11.567  17.745  1.00  0.00     0.165 A 
HETATM    3  N4  UNL     1      56.094 -11.449  18.096  1.00  0.00    -0.079 NA
HETATM    4  N5  UNL     1      54.322 -11.636  16.432  1.00  0.00    -0.174 N 
ATOM      5  H5  UNL     1      54.940 -11.609  15.621  1.00  0.00     0.185 HD
HETATM    6  C5  UNL     1      52.989 -11.743  16.387  1.00  0.00     0.707 A 
HETATM    7  N6  UNL     1      52.194 -11.816  15.376  1.00  0.00    -0.156 N 
ATOM      8  H6  UNL     1      51.194 -11.895  15.564  1.00  0.00     0.187 HD
HETATM    9  C6  UNL     1      52.603 -11.795  14.048  1.00  0.00     0.256 C 
HETATM   10  O3  UNL     1      53.596 -11.129  13.693  1.00  0.00    -0.271 OA
HETATM   11  N12 UNL     1      52.557 -11.742  17.683  1.00  0.00    -0.086 N 
ENDROOT
BRANCH  11  12
HETATM   12  N13 UNL     1      51.226 -11.846  18.052  1.00  0.00    -0.324 N 
ATOM     13 2H13 UNL     1      50.906 -12.335  18.887  1.00  0.00     0.178 HD
ATOM     14 1H13 UNL     1      50.435 -11.448  17.544  1.00  0.00     0.178 HD
ENDBRANCH  11  12
BRANCH   9  15
HETATM   15  C7  UNL     1      51.882 -12.565  12.968  1.00  0.00     0.273 C 
BRANCH  15  16
HETATM   16  N7  UNL     1      52.515 -12.313  11.696  1.00  0.00    -0.098 N 
HETATM   17  N8  UNL     1      52.230 -11.311  10.893  1.00  0.00    -0.211 N 
HETATM   18  N9  UNL     1      53.003 -11.385   9.826  1.00  0.00    -0.213 N 
ATOM     19  H8  UNL     1      51.526 -10.593  11.066  1.00  0.00     0.210 HD
HETATM   20  N10 UNL     1      53.787 -12.441   9.947  1.00  0.00    -0.115 N 
ATOM     21  H9  UNL     1      52.996 -10.736   9.040  1.00  0.00     0.210 HD
HETATM   22  C8  UNL     1      53.487 -13.029  11.118  1.00  0.00     0.710 A 
ATOM     23  H10 UNL     1      54.490 -12.752   9.276  1.00  0.00     0.207 HD
BRANCH  22  24
HETATM   24  N11 UNL     1      54.045 -14.103  11.600  1.00  0.00    -0.232 N 
ATOM     25 2H11 UNL     1      54.652 -14.744  11.090  1.00  0.00     0.174 HD
ATOM     26 1H11 UNL     1      53.955 -14.453  12.554  1.00  0.00     0.174 HD
ENDBRANCH  22  24
ENDBRANCH  15  16
ENDBRANCH   9  15
BRANCH   1  27
HETATM   27  C1  UNL     1      53.538 -11.594  19.961  1.00  0.00     0.152 C 
BRANCH  27  28
HETATM   28  N1  UNL     1      52.540 -11.188  20.623  1.00  0.00    -0.382 N 
ATOM     29  H12 UNL     1      51.917 -11.794  21.157  1.00  0.00     0.157 HD
ATOM     30  H11 UNL     1      52.397 -10.178  20.591  1.00  0.00     0.157 HD
ENDBRANCH  27  28
BRANCH  27  31
HETATM   31  N2  UNL     1      54.655 -12.038  20.776  1.00  0.00    -0.238 N 
ATOM     32  H2  UNL     1      55.347 -11.378  21.130  1.00  0.00     0.196 HD
BRANCH  31  33
HETATM   33  O1  UNL     1      54.744 -13.367  21.048  1.00  0.00    -0.182 OA
BRANCH  33  34
HETATM   34  C2  UNL     1      55.259 -14.281  20.108  1.00  0.00     0.394 C 
HETATM   35  N3  UNL     1      54.459 -15.012  19.205  1.00  0.00    -0.031 NA
HETATM   36  O2  UNL     1      56.526 -14.401  20.136  1.00  0.00    -0.240 OA
ENDBRANCH  33  34
ENDBRANCH  31  33
ENDBRANCH  27  31
ENDBRANCH   1  27
TORSDOF 9
ENDMDL
MODEL 3
REMARK VINA RESULT: -6.351963315      3.081      4.738
REMARK  9 active torsions:
REMARK  status: ('A' for Active; 'I' for Inactive)
REMARK    1  A    between atoms: N1_1  and  C1_4 
REMARK    2  A    between atoms: C1_4  and  N2_5 
REMARK    3  A    between atoms: C1_4  and  C3_11 
REMARK    4  A    between atoms: N2_5  and  O1_7 
REMARK    5  A    between atoms: O1_7  and  C2_8 
REMARK       I    between atoms: N6_17  and  C6_19 
REMARK    6  A    between atoms: C6_19  and  C7_21 
REMARK    7  A    between atoms: C7_21  and  N7_22 
REMARK    8  A    between atoms: C8_29  and  N11_30 
REMARK    9  A    between atoms: N12_33  and  N13_34 
ROOT
HETATM    1  C3  UNL     1      52.800 -12.482  14.820  1.00  0.00     0.160 A 
HETATM    2  C4  UNL     1      52.244 -12.644  13.575  1.00  0.00     0.165 A 
HETATM    3  N4  UNL     1      51.566 -11.727  12.733  1.00  0.00    -0.079 NA
HETATM    4  N5  UNL     1      52.446 -13.952  13.200  1.00  0.00    -0.174 N 
ATOM      5  H5  UNL     1      52.141 -14.368  12.320  1.00  0.00     0.185 HD
HETATM    6  C5  UNL     1      53.106 -14.591  14.173  1.00  0.00     0.707 A 
HETATM    7  N6  UNL     1      53.485 -15.819  14.252  1.00  0.00    -0.156 N 
ATOM      8  H6  UNL     1      53.984 -16.108  15.094  1.00  0.00     0.187 HD
HETATM    9  C6  UNL     1      53.262 -16.778  13.271  1.00  0.00     0.256 C 
HETATM   10  O3  UNL     1      52.230 -16.752  12.572  1.00  0.00    -0.271 OA
HETATM   11  N12 UNL     1      53.318 -13.675  15.163  1.00  0.00    -0.086 N 
ENDROOT
BRANCH  11  12
HETATM   12  N13 UNL     1      53.983 -13.956  16.344  1.00  0.00    -0.324 N 
ATOM     13 2H13 UNL     1      54.903 -13.585  16.579  1.00  0.00     0.178 HD
ATOM     14 1H13 UNL     1      53.633 -14.547  17.098  1.00  0.00     0.178 HD
ENDBRANCH  11  12
BRANCH   9  15
HETATM   15  C7  UNL     1      54.239 -17.896  12.998  1.00  0.00     0.273 C 
BRANCH  15  16
HETATM   16  N7  UNL     1      53.541 -19.159  13.020  1.00  0.00    -0.098 N 
HETATM   17  N8  UNL     1      52.915 -19.697  11.995  1.00  0.00    -0.211 N 
HETATM   18  N9  UNL     1      52.398 -20.852  12.370  1.00  0.00    -0.213 N 
ATOM     19  H8  UNL     1      52.842 -19.289  11.063  1.00  0.00     0.210 HD
HETATM   20  N10 UNL     1      52.693 -21.054  13.641  1.00  0.00    -0.115 N 
ATOM     21  H9  UNL     1      51.859 -21.483  11.777  1.00  0.00     0.210 HD
HETATM   22  C8  UNL     1      53.411 -19.996  14.057  1.00  0.00     0.710 A 
ATOM     23  H10 UNL     1      52.427 -21.862  14.203  1.00  0.00     0.207 HD
BRANCH  22  24
HETATM   24  N11 UNL     1      53.892 -19.820  15.255  1.00  0.00    -0.232 N 
ATOM     25 2H11 UNL     1      53.434 -19.320  16.017  1.00  0.00     0.174 HD
ATOM     26 1H11 UNL     1      54.791 -20.156  15.599  1.00  0.00     0.174 HD
ENDBRANCH  22  24
ENDBRANCH  15  16
ENDBRANCH   9  15
BRANCH   1  27
HETATM   27  C1  UNL     1      52.822 -11.280  15.607  1.00  0.00     0.152 C 
BRANCH  27  28
HETATM   28  N1  UNL     1      53.680 -10.359  15.481  1.00  0.00    -0.382 N 
ATOM     29  H12 UNL     1      53.465  -9.363  15.521  1.00  0.00     0.157 HD
ATOM     30  H11 UNL     1      54.634 -10.690  15.338  1.00  0.00     0.157 HD
ENDBRANCH  27  28
BRANCH  27  31
HETATM   31  N2  UNL     1      51.821 -11.030  16.629  1.00  0.00    -0.238 N 
ATOM     32  H2  UNL     1      51.106 -10.313  16.505  1.00  0.00     0.196 HD
BRANCH  31  33
HETATM   33  O1  UNL     1      51.874 -11.787  17.756  1.00  0.00    -0.182 OA
BRANCH  33  34
HETATM   34  C2  UNL     1      52.839 -11.558  18.756  1.00  0.00     0.394 C 
HETATM   35  N3  UNL     1      54.228 -11.692  18.552  1.00  0.00    -0.031 NA
HETATM   36  O2  UNL     1      52.353 -11.212  19.882  1.00  0.00    -0.240 OA
ENDBRANCH  33  34
ENDBRANCH  31  33
ENDBRANCH  27  31
ENDBRANCH   1  27
TORSDOF 9
ENDMDL
MODEL 4
REMARK VINA RESULT: -6.341522995      2.565      7.806
REMARK  9 active torsions:
REMARK  status: ('A' for Active; 'I' for Inactive)
REMARK    1  A    between atoms: N1_1  and  C1_4 
REMARK    2  A    between atoms: C1_4  and  N2_5 
REMARK    3  A    between atoms: C1_4  and  C3_11 
REMARK    4  A    between atoms: N2_5  and  O1_7 
REMARK    5  A    between atoms: O1_7  and  C2_8 
REMARK       I    between atoms: N6_17  and  C6_19 
REMARK    6  A    between atoms: C6_19  and  C7_21 
REMARK    7  A    between atoms: C7_21  and  N7_22 
REMARK    8  A    between atoms: C8_29  and  N11_30 
REMARK    9  A    between atoms: N12_33  and  N13_34 
ROOT
HETATM    1  C3  UNL     1      53.630 -12.879  15.252  1.00  0.00     0.160 A 
HETATM    2  C4  UNL     1      54.249 -14.065  15.555  1.00  0.00     0.165 A 
HETATM    3  N4  UNL     1      54.712 -15.113  14.719  1.00  0.00    -0.079 NA
HETATM    4  N5  UNL     1      54.382 -14.123  16.923  1.00  0.00    -0.174 N 
ATOM      5  H5  UNL     1      54.807 -14.891  17.444  1.00  0.00     0.185 HD
HETATM    6  C5  UNL     1      53.866 -13.013  17.462  1.00  0.00     0.707 A 
HETATM    7  N6  UNL     1      53.761 -12.658  18.695  1.00  0.00    -0.156 N 
ATOM      8  H6  UNL     1      53.328 -11.756  18.895  1.00  0.00     0.187 HD
HETATM    9  C6  UNL     1      54.198 -13.419  19.774  1.00  0.00     0.256 C 
HETATM   10  O3  UNL     1      54.153 -14.664  19.740  1.00  0.00    -0.271 OA
HETATM   11  N12 UNL     1      53.407 -12.256  16.422  1.00  0.00    -0.086 N 
ENDROOT
BRANCH  11  12
HETATM   12  N13 UNL     1      52.806 -11.018  16.576  1.00  0.00    -0.324 N 
ATOM     13 2H13 UNL     1      52.488 -10.441  15.798  1.00  0.00     0.178 HD
ATOM     14 1H13 UNL     1      52.612 -10.557  17.466  1.00  0.00     0.178 HD
ENDBRANCH  11  12
BRANCH   9  15
HETATM   15  C7  UNL     1      54.742 -12.793  21.035  1.00  0.00     0.273 C 
BRANCH  15  16
HETATM   16  N7  UNL     1      55.989 -13.430  21.386  1.00  0.00    -0.098 N 
HETATM   17  N8  UNL     1      56.999 -13.624  20.565  1.00  0.00    -0.211 N 
HETATM   18  N9  UNL     1      57.973 -14.225  21.221  1.00  0.00    -0.213 N 
ATOM     19  H8  UNL     1      57.024 -13.353  19.582  1.00  0.00     0.210 HD
HETATM   20  N10 UNL     1      57.585 -14.418  22.469  1.00  0.00    -0.115 N 
ATOM     21  H9  UNL     1      58.875 -14.496  20.830  1.00  0.00     0.210 HD
HETATM   22  C8  UNL     1      56.341 -13.922  22.581  1.00  0.00     0.710 A 
ATOM     23  H10 UNL     1      58.129 -14.861  23.210  1.00  0.00     0.207 HD
BRANCH  22  24
HETATM   24  N11 UNL     1      55.611 -13.922  23.660  1.00  0.00    -0.232 N 
ATOM     25 2H11 UNL     1      54.621 -14.161  23.714  1.00  0.00     0.174 HD
ATOM     26 1H11 UNL     1      55.925 -13.683  24.601  1.00  0.00     0.174 HD
ENDBRANCH  22  24
ENDBRANCH  15  16
ENDBRANCH   9  15
BRANCH   1  27
HETATM   27  C1  UNL     1      53.281 -12.396  13.944  1.00  0.00     0.152 C 
BRANCH  27  28
HETATM   28  N1  UNL     1      54.116 -11.987  13.086  1.00  0.00    -0.382 N 
ATOM     29  H12 UNL     1      54.146 -11.036  12.719  1.00  0.00     0.157 HD
ATOM     30  H11 UNL     1      54.783 -12.695  12.780  1.00  0.00     0.157 HD
ENDBRANCH  27  28
BRANCH  27  31
HETATM   31  N2  UNL     1      51.899 -12.350  13.501  1.00  0.00    -0.238 N 
ATOM     32  H2  UNL     1      51.233 -13.076  13.768  1.00  0.00     0.196 HD
BRANCH  31  33
HETATM   33  O1  UNL     1      51.525 -11.304  12.718  1.00  0.00    -0.182 OA
BRANCH  33  34
HETATM   34  C2  UNL     1      51.338 -11.449  11.330  1.00  0.00     0.394 C 
HETATM   35  N3  UNL     1      52.393 -11.460  10.393  1.00  0.00    -0.031 NA
HETATM   36  O2  UNL     1      50.121 -11.573  10.976  1.00  0.00    -0.240 OA
ENDBRANCH  33  34
ENDBRANCH  31  33
ENDBRANCH  27  31
ENDBRANCH   1  27
TORSDOF 9
ENDMDL
MODEL 5
REMARK VINA RESULT: -6.263259424      2.332      8.069
REMARK  9 active torsions:
REMARK  status: ('A' for Active; 'I' for Inactive)
REMARK    1  A    between atoms: N1_1  and  C1_4 
REMARK    2  A    between atoms: C1_4  and  N2_5 
REMARK    3  A    between atoms: C1_4  and  C3_11 
REMARK    4  A    between atoms: N2_5  and  O1_7 
REMARK    5  A    between atoms: O1_7  and  C2_8 
REMARK       I    between atoms: N6_17  and  C6_19 
REMARK    6  A    between atoms: C6_19  and  C7_21 
REMARK    7  A    between atoms: C7_21  and  N7_22 
REMARK    8  A    between atoms: C8_29  and  N11_30 
REMARK    9  A    between atoms: N12_33  and  N13_34 
ROOT
HETATM    1  C3  UNL     1      53.498 -12.221  15.201  1.00  0.00     0.160 A 
HETATM    2  C4  UNL     1      52.552 -11.614  15.989  1.00  0.00     0.165 A 
HETATM    3  N4  UNL     1      51.365 -10.919  15.648  1.00  0.00    -0.079 NA
HETATM    4  N5  UNL     1      52.938 -11.780  17.299  1.00  0.00    -0.174 N 
ATOM      5  H5  UNL     1      52.430 -11.434  18.113  1.00  0.00     0.185 HD
HETATM    6  C5  UNL     1      54.085 -12.468  17.335  1.00  0.00     0.707 A 
HETATM    7  N6  UNL     1      54.806 -12.830  18.338  1.00  0.00    -0.156 N 
ATOM      8  H6  UNL     1      55.659 -13.356  18.145  1.00  0.00     0.187 HD
HETATM    9  C6  UNL     1      54.505 -12.553  19.667  1.00  0.00     0.256 C 
HETATM   10  O3  UNL     1      53.927 -11.495  19.986  1.00  0.00    -0.271 OA
HETATM   11  N12 UNL     1      54.418 -12.733  16.037  1.00  0.00    -0.086 N 
ENDROOT
BRANCH  11  12
HETATM   12  N13 UNL     1      55.547 -13.440  15.660  1.00  0.00    -0.324 N 
ATOM     13 2H13 UNL     1      55.616 -14.457  15.687  1.00  0.00     0.178 HD
ATOM     14 1H13 UNL     1      56.416 -13.032  15.314  1.00  0.00     0.178 HD
ENDBRANCH  11  12
BRANCH   9  15
HETATM   15  C7  UNL     1      54.854 -13.501  20.789  1.00  0.00     0.273 C 
BRANCH  15  16
HETATM   16  N7  UNL     1      55.778 -12.856  21.690  1.00  0.00    -0.098 N 
HETATM   17  N8  UNL     1      56.305 -11.664  21.511  1.00  0.00    -0.211 N 
HETATM   18  N9  UNL     1      57.095 -11.389  22.531  1.00  0.00    -0.213 N 
ATOM     19  H8  UNL     1      56.130 -11.052  20.714  1.00  0.00     0.210 HD
HETATM   20  N10 UNL     1      57.075 -12.410  23.368  1.00  0.00    -0.115 N 
ATOM     21  H9  UNL     1      57.633 -10.530  22.653  1.00  0.00     0.210 HD
HETATM   22  C8  UNL     1      56.251 -13.335  22.848  1.00  0.00     0.710 A 
ATOM     23  H10 UNL     1      57.590 -12.483  24.246  1.00  0.00     0.207 HD
BRANCH  22  24
HETATM   24  N11 UNL     1      55.965 -14.490  23.378  1.00  0.00    -0.232 N 
ATOM     25 2H11 UNL     1      55.936 -14.702  24.375  1.00  0.00     0.174 HD
ATOM     26 1H11 UNL     1      55.729 -15.345  22.873  1.00  0.00     0.174 HD
ENDBRANCH  22  24
ENDBRANCH  15  16
ENDBRANCH   9  15
BRANCH   1  27
HETATM   27  C1  UNL     1      53.510 -12.293  13.766  1.00  0.00     0.152 C 
BRANCH  27  28
HETATM   28  N1  UNL     1      54.434 -11.833  13.035  1.00  0.00    -0.382 N 
ATOM     29  H12 UNL     1      54.282 -11.242  12.217  1.00  0.00     0.157 HD
ATOM     30  H11 UNL     1      55.374 -12.096  13.330  1.00  0.00     0.157 HD
ENDBRANCH  27  28
BRANCH  27  31
HETATM   31  N2  UNL     1      52.428 -12.927  13.034  1.00  0.00    -0.238 N 
ATOM     32  H2  UNL     1      52.447 -13.924  12.820  1.00  0.00     0.196 HD
BRANCH  31  33
HETATM   33  O1  UNL     1      51.390 -12.141  12.644  1.00  0.00    -0.182 OA
BRANCH  33  34
HETATM   34  C2  UNL     1      51.272 -11.674  11.320  1.00  0.00     0.394 C 
HETATM   35  N3  UNL     1      52.374 -11.431  10.473  1.00  0.00    -0.031 NA
HETATM   36  O2  UNL     1      50.073 -11.485  10.937  1.00  0.00    -0.240 OA
ENDBRANCH  33  34
ENDBRANCH  31  33
ENDBRANCH  27  31
ENDBRANCH   1  27
TORSDOF 9
ENDMDL
