MODEL 1
REMARK VINA RESULT: -6.558629980      0.000      0.000
REMARK  11 active torsions:
REMARK  status: ('A' for Active; 'I' for Inactive)
REMARK    1  A    between atoms: N1_1  and  C1_4 
REMARK    2  A    between atoms: C2_7  and  N3_8 
REMARK    3  A    between atoms: N3_8  and  O1_10 
REMARK    4  A    between atoms: C6_17  and  O2_18 
REMARK    5  A    between atoms: C6_17  and  C7_20 
REMARK    6  A    between atoms: C7_20  and  O4_22 
REMARK    7  A    between atoms: O4_22  and  N5_23 
REMARK       I    between atoms: N5_23  and  C8_25 
REMARK    8  A    between atoms: C8_25  and  C9_27 
REMARK    9  A    between atoms: C9_27  and  N6_28 
REMARK   10  A    between atoms: C9_27  and  C10_32 
REMARK   11  A    between atoms: C10_32  and  N7_33 
ROOT
HETATM    1  C1  UNL     1      53.834 -15.286  14.840  1.00  0.00     0.123 A 
HETATM    2  N2  UNL     1      53.275 -16.239  14.071  1.00  0.00    -0.175 N 
ATOM      3  H2  UNL     1      53.558 -17.210  14.201  1.00  0.00     0.186 HD
HETATM    4  C2  UNL     1      52.356 -15.948  13.141  1.00  0.00     0.704 A 
HETATM    5  N4  UNL     1      51.997 -14.666  12.986  1.00  0.00    -0.185 N 
ATOM      6  H4  UNL     1      51.298 -14.433  12.281  1.00  0.00     0.184 HD
HETATM    7  C3  UNL     1      52.534 -13.659  13.740  1.00  0.00     0.108 A 
HETATM    8  C4  UNL     1      53.478 -13.949  14.698  1.00  0.00     0.021 A 
HETATM    9  C5  UNL     1      53.901 -12.696  15.371  1.00  0.00     0.102 C 
HETATM   10  C6  UNL     1      52.963 -11.638  14.913  1.00  0.00     0.218 C 
HETATM   11  C11 UNL     1      52.292 -12.224  13.732  1.00  0.00     0.221 C 
HETATM   12  O6  UNL     1      51.616 -11.636  12.841  1.00  0.00    -0.287 OA
ENDROOT
BRANCH  10  13
HETATM   13  O2  UNL     1      53.681 -10.526  14.421  1.00  0.00    -0.372 OA
ATOM     14  H2  UNL     1      53.096  -9.790  14.285  1.00  0.00     0.211 HD
ENDBRANCH  10  13
BRANCH  10  15
HETATM   15  C7  UNL     1      52.007 -11.202  15.966  1.00  0.00     0.324 C 
HETATM   16  O3  UNL     1      51.205 -10.282  15.684  1.00  0.00    -0.259 OA
BRANCH  15  17
HETATM   17  O4  UNL     1      51.952 -11.753  17.236  1.00  0.00    -0.194 OA
BRANCH  17  18
HETATM   18  N5  UNL     1      52.659 -11.270  18.306  1.00  0.00    -0.224 N 
HETATM   19  C8  UNL     1      53.623 -12.096  18.993  1.00  0.00     0.274 C 
HETATM   20  O5  UNL     1      53.818 -13.287  18.600  1.00  0.00    -0.269 OA
ATOM     21  H5  UNL     1      52.502 -10.313  18.622  1.00  0.00     0.198 HD
BRANCH  19  22
HETATM   22  C9  UNL     1      54.404 -11.612  20.147  1.00  0.00     0.301 C 
BRANCH  22  23
HETATM   23  N6  UNL     1      54.214 -12.578  21.242  1.00  0.00    -0.065 N 
ATOM     24  H63 UNL     1      53.232 -12.794  21.417  1.00  0.00     0.275 HD
ATOM     25  H62 UNL     1      54.515 -13.522  20.997  1.00  0.00     0.275 HD
ATOM     26  H61 UNL     1      54.693 -12.207  22.062  1.00  0.00     0.275 HD
ENDBRANCH  22  23
BRANCH  22  27
HETATM   27  C10 UNL     1      55.888 -11.574  19.910  1.00  0.00     0.272 C 
BRANCH  27  28
HETATM   28  N7  UNL     1      56.276 -11.469  18.538  1.00  0.00    -0.077 N 
ATOM     29  H73 UNL     1      55.848 -12.217  17.993  1.00  0.00     0.274 HD
ATOM     30  H72 UNL     1      55.832 -10.658  18.107  1.00  0.00     0.274 HD
ATOM     31  H71 UNL     1      57.283 -11.447  18.377  1.00  0.00     0.274 HD
ENDBRANCH  27  28
ENDBRANCH  22  27
ENDBRANCH  19  22
ENDBRANCH  17  18
ENDBRANCH  15  17
ENDBRANCH  10  15
BRANCH   1  32
HETATM   32  N1  UNL     1      54.716 -15.594  15.726  1.00  0.00    -0.385 N 
ATOM     33  H12 UNL     1      54.627 -16.488  16.209  1.00  0.00     0.157 HD
ATOM     34  H11 UNL     1      55.483 -14.956  15.937  1.00  0.00     0.157 HD
ENDBRANCH   1  32
BRANCH   4  35
HETATM   35  N3  UNL     1      51.825 -16.880  12.403  1.00  0.00    -0.098 N 
ATOM     36  H3  UNL     1      50.898 -16.766  11.993  1.00  0.00     0.213 HD
BRANCH  35  37
HETATM   37  O1  UNL     1      52.558 -18.021  12.197  1.00  0.00    -0.276 OA
ATOM     38  H1  UNL     1      52.361 -18.536  11.422  1.00  0.00     0.245 HD
ENDBRANCH  35  37
ENDBRANCH   4  35
TORSDOF 11
ENDMDL
MODEL 2
REMARK VINA RESULT: -6.324693563      2.643      6.166
REMARK  11 active torsions:
REMARK  status: ('A' for Active; 'I' for Inactive)
REMARK    1  A    between atoms: N1_1  and  C1_4 
REMARK    2  A    between atoms: C2_7  and  N3_8 
REMARK    3  A    between atoms: N3_8  and  O1_10 
REMARK    4  A    between atoms: C6_17  and  O2_18 
REMARK    5  A    between atoms: C6_17  and  C7_20 
REMARK    6  A    between atoms: C7_20  and  O4_22 
REMARK    7  A    between atoms: O4_22  and  N5_23 
REMARK       I    between atoms: N5_23  and  C8_25 
REMARK    8  A    between atoms: C8_25  and  C9_27 
REMARK    9  A    between atoms: C9_27  and  N6_28 
REMARK   10  A    between atoms: C9_27  and  C10_32 
REMARK   11  A    between atoms: C10_32  and  N7_33 
ROOT
HETATM    1  C1  UNL     1      53.104 -11.977  18.831  1.00  0.00     0.123 A 
HETATM    2  N2  UNL     1      53.766 -12.894  19.560  1.00  0.00    -0.175 N 
ATOM      3  H2  UNL     1      53.606 -12.937  20.566  1.00  0.00     0.186 HD
HETATM    4  C2  UNL     1      54.630 -13.752  19.001  1.00  0.00     0.704 A 
HETATM    5  N4  UNL     1      54.826 -13.679  17.677  1.00  0.00    -0.185 N 
ATOM      6  H4  UNL     1      55.481 -14.328  17.241  1.00  0.00     0.184 HD
HETATM    7  C3  UNL     1      54.180 -12.766  16.890  1.00  0.00     0.108 A 
HETATM    8  C4  UNL     1      53.291 -11.881  17.456  1.00  0.00     0.021 A 
HETATM    9  C5  UNL     1      52.729 -11.001  16.401  1.00  0.00     0.102 C 
HETATM   10  C6  UNL     1      53.165 -11.576  15.102  1.00  0.00     0.218 C 
HETATM   11  C11 UNL     1      54.248 -12.518  15.458  1.00  0.00     0.221 C 
HETATM   12  O6  UNL     1      55.111 -13.046  14.700  1.00  0.00    -0.287 OA
ENDROOT
BRANCH  10  13
HETATM   13  O2  UNL     1      53.779 -10.583  14.308  1.00  0.00    -0.372 OA
ATOM     14  H2  UNL     1      54.356 -10.982  13.667  1.00  0.00     0.211 HD
ENDBRANCH  10  13
BRANCH  10  15
HETATM   15  C7  UNL     1      52.060 -12.223  14.344  1.00  0.00     0.324 C 
HETATM   16  O3  UNL     1      51.555 -13.266  14.822  1.00  0.00    -0.259 OA
BRANCH  15  17
HETATM   17  O4  UNL     1      51.561 -11.742  13.145  1.00  0.00    -0.194 OA
BRANCH  17  18
HETATM   18  N5  UNL     1      52.328 -11.540  12.027  1.00  0.00    -0.224 N 
HETATM   19  C8  UNL     1      53.127 -12.606  11.473  1.00  0.00     0.274 C 
HETATM   20  O5  UNL     1      53.120 -13.747  12.030  1.00  0.00    -0.269 OA
ATOM     21  H5  UNL     1      52.334 -10.623  11.581  1.00  0.00     0.198 HD
BRANCH  19  22
HETATM   22  C9  UNL     1      53.964 -12.429  10.271  1.00  0.00     0.301 C 
BRANCH  22  23
HETATM   23  N6  UNL     1      53.382 -11.326   9.489  1.00  0.00    -0.065 N 
ATOM     24  H63 UNL     1      52.968 -10.598  10.072  1.00  0.00     0.275 HD
ATOM     25  H62 UNL     1      54.087 -10.746   9.033  1.00  0.00     0.275 HD
ATOM     26  H61 UNL     1      52.718 -11.736   8.832  1.00  0.00     0.275 HD
ENDBRANCH  22  23
BRANCH  22  27
HETATM   27  C10 UNL     1      55.374 -12.001  10.565  1.00  0.00     0.272 C 
BRANCH  27  28
HETATM   28  N7  UNL     1      55.640 -11.702  11.937  1.00  0.00    -0.077 N 
ATOM     29  H73 UNL     1      56.448 -11.085  12.013  1.00  0.00     0.274 HD
ATOM     30  H72 UNL     1      54.914 -11.092  12.312  1.00  0.00     0.274 HD
ATOM     31  H71 UNL     1      55.762 -12.517  12.539  1.00  0.00     0.274 HD
ENDBRANCH  27  28
ENDBRANCH  22  27
ENDBRANCH  19  22
ENDBRANCH  17  18
ENDBRANCH  15  17
ENDBRANCH  10  15
BRANCH   1  32
HETATM   32  N1  UNL     1      52.281 -11.162  19.395  1.00  0.00    -0.385 N 
ATOM     33  H12 UNL     1      51.444 -10.886  18.882  1.00  0.00     0.157 HD
ATOM     34  H11 UNL     1      52.466 -10.804  20.332  1.00  0.00     0.157 HD
ENDBRANCH   1  32
BRANCH   4  35
HETATM   35  N3  UNL     1      55.265 -14.633  19.719  1.00  0.00    -0.098 N 
ATOM     36  H3  UNL     1      55.740 -14.366  20.583  1.00  0.00     0.213 HD
BRANCH  35  37
HETATM   37  O1  UNL     1      55.274 -15.930  19.275  1.00  0.00    -0.276 OA
ATOM     38  H1  UNL     1      55.858 -16.540  19.710  1.00  0.00     0.245 HD
ENDBRANCH  35  37
ENDBRANCH   4  35
TORSDOF 11
ENDMDL
MODEL 3
REMARK VINA RESULT: -6.298466042      1.920      2.680
REMARK  11 active torsions:
REMARK  status: ('A' for Active; 'I' for Inactive)
REMARK    1  A    between atoms: N1_1  and  C1_4 
REMARK    2  A    between atoms: C2_7  and  N3_8 
REMARK    3  A    between atoms: N3_8  and  O1_10 
REMARK    4  A    between atoms: C6_17  and  O2_18 
REMARK    5  A    between atoms: C6_17  and  C7_20 
REMARK    6  A    between atoms: C7_20  and  O4_22 
REMARK    7  A    between atoms: O4_22  and  N5_23 
REMARK       I    between atoms: N5_23  and  C8_25 
REMARK    8  A    between atoms: C8_25  and  C9_27 
REMARK    9  A    between atoms: C9_27  and  N6_28 
REMARK   10  A    between atoms: C9_27  and  C10_32 
REMARK   11  A    between atoms: C10_32  and  N7_33 
ROOT
HETATM    1  C1  UNL     1      53.153 -16.824  14.221  1.00  0.00     0.123 A 
HETATM    2  N2  UNL     1      53.046 -17.853  13.361  1.00  0.00    -0.175 N 
ATOM      3  H2  UNL     1      52.979 -18.802  13.729  1.00  0.00     0.186 HD
HETATM    4  C2  UNL     1      53.025 -17.667  12.035  1.00  0.00     0.704 A 
HETATM    5  N4  UNL     1      53.114 -16.412  11.571  1.00  0.00    -0.185 N 
ATOM      6  H4  UNL     1      53.098 -16.259  10.562  1.00  0.00     0.184 HD
HETATM    7  C3  UNL     1      53.225 -15.331  12.401  1.00  0.00     0.108 A 
HETATM    8  C4  UNL     1      53.247 -15.513  13.764  1.00  0.00     0.021 A 
HETATM    9  C5  UNL     1      53.374 -14.196  14.438  1.00  0.00     0.102 C 
HETATM   10  C6  UNL     1      53.187 -13.168  13.382  1.00  0.00     0.218 C 
HETATM   11  C11 UNL     1      53.336 -13.910  12.111  1.00  0.00     0.221 C 
HETATM   12  O6  UNL     1      53.527 -13.448  10.950  1.00  0.00    -0.287 OA
ENDROOT
BRANCH  10  13
HETATM   13  O2  UNL     1      54.254 -12.244  13.403  1.00  0.00    -0.372 OA
ATOM     14  H2  UNL     1      54.180 -11.670  14.156  1.00  0.00     0.211 HD
ENDBRANCH  10  13
BRANCH  10  15
HETATM   15  C7  UNL     1      51.889 -12.448  13.484  1.00  0.00     0.324 C 
HETATM   16  O3  UNL     1      50.918 -12.895  12.830  1.00  0.00    -0.259 OA
BRANCH  15  17
HETATM   17  O4  UNL     1      51.692 -11.317  14.259  1.00  0.00    -0.194 OA
BRANCH  17  18
HETATM   18  N5  UNL     1      51.501 -11.347  15.616  1.00  0.00    -0.224 N 
HETATM   19  C8  UNL     1      52.608 -11.171  16.525  1.00  0.00     0.274 C 
HETATM   20  O5  UNL     1      53.775 -10.986  16.060  1.00  0.00    -0.269 OA
ATOM     21  H5  UNL     1      50.564 -11.497  15.989  1.00  0.00     0.198 HD
BRANCH  19  22
HETATM   22  C9  UNL     1      52.444 -11.196  17.991  1.00  0.00     0.301 C 
BRANCH  22  23
HETATM   23  N6  UNL     1      51.182 -11.896  18.280  1.00  0.00    -0.065 N 
ATOM     24  H63 UNL     1      51.022 -12.034  19.278  1.00  0.00     0.275 HD
ATOM     25  H62 UNL     1      50.357 -11.324  18.092  1.00  0.00     0.275 HD
ATOM     26  H61 UNL     1      51.190 -12.769  17.753  1.00  0.00     0.275 HD
ENDBRANCH  22  23
BRANCH  22  27
HETATM   27  C10 UNL     1      53.503 -11.981  18.712  1.00  0.00     0.272 C 
BRANCH  27  28
HETATM   28  N7  UNL     1      53.958 -13.150  18.027  1.00  0.00    -0.077 N 
ATOM     29  H73 UNL     1      53.534 -13.984  18.434  1.00  0.00     0.274 HD
ATOM     30  H72 UNL     1      53.559 -13.187  17.089  1.00  0.00     0.274 HD
ATOM     31  H71 UNL     1      54.972 -13.256  17.984  1.00  0.00     0.274 HD
ENDBRANCH  27  28
ENDBRANCH  22  27
ENDBRANCH  19  22
ENDBRANCH  17  18
ENDBRANCH  15  17
ENDBRANCH  10  15
BRANCH   1  32
HETATM   32  N1  UNL     1      53.172 -17.032  15.492  1.00  0.00    -0.385 N 
ATOM     33  H12 UNL     1      52.643 -17.822  15.863  1.00  0.00     0.157 HD
ATOM     34  H11 UNL     1      53.704 -16.419  16.110  1.00  0.00     0.157 HD
ENDBRANCH   1  32
BRANCH   4  35
HETATM   35  N3  UNL     1      52.923 -18.673  11.215  1.00  0.00    -0.098 N 
ATOM     36  H3  UNL     1      53.029 -18.547  10.207  1.00  0.00     0.213 HD
BRANCH  35  37
HETATM   37  O1  UNL     1      52.670 -19.908  11.753  1.00  0.00    -0.276 OA
ATOM     38  H1  UNL     1      51.800 -20.067  12.101  1.00  0.00     0.245 HD
ENDBRANCH  35  37
ENDBRANCH   4  35
TORSDOF 11
ENDMDL
MODEL 4
REMARK VINA RESULT: -6.280356065      2.056      2.945
REMARK  11 active torsions:
REMARK  status: ('A' for Active; 'I' for Inactive)
REMARK    1  A    between atoms: N1_1  and  C1_4 
REMARK    2  A    between atoms: C2_7  and  N3_8 
REMARK    3  A    between atoms: N3_8  and  O1_10 
REMARK    4  A    between atoms: C6_17  and  O2_18 
REMARK    5  A    between atoms: C6_17  and  C7_20 
REMARK    6  A    between atoms: C7_20  and  O4_22 
REMARK    7  A    between atoms: O4_22  and  N5_23 
REMARK       I    between atoms: N5_23  and  C8_25 
REMARK    8  A    between atoms: C8_25  and  C9_27 
REMARK    9  A    between atoms: C9_27  and  N6_28 
REMARK   10  A    between atoms: C9_27  and  C10_32 
REMARK   11  A    between atoms: C10_32  and  N7_33 
ROOT
HETATM    1  C1  UNL     1      54.520 -13.787  12.771  1.00  0.00     0.123 A 
HETATM    2  N2  UNL     1      53.446 -14.587  12.897  1.00  0.00    -0.175 N 
ATOM      3  H2  UNL     1      53.404 -15.449  12.353  1.00  0.00     0.186 HD
HETATM    4  C2  UNL     1      52.430 -14.284  13.716  1.00  0.00     0.704 A 
HETATM    5  N4  UNL     1      52.504 -13.147  14.421  1.00  0.00    -0.185 N 
ATOM      6  H4  UNL     1      51.736 -12.907  15.048  1.00  0.00     0.184 HD
HETATM    7  C3  UNL     1      53.572 -12.298  14.331  1.00  0.00     0.108 A 
HETATM    8  C4  UNL     1      54.621 -12.601  13.494  1.00  0.00     0.021 A 
HETATM    9  C5  UNL     1      55.645 -11.530  13.574  1.00  0.00     0.102 C 
HETATM   10  C6  UNL     1      55.251 -10.661  14.712  1.00  0.00     0.218 C 
HETATM   11  C11 UNL     1      53.848 -11.033  14.995  1.00  0.00     0.221 C 
HETATM   12  O6  UNL     1      52.991 -10.405  15.682  1.00  0.00    -0.287 OA
ENDROOT
BRANCH  10  13
HETATM   13  O2  UNL     1      55.205  -9.310  14.305  1.00  0.00    -0.372 OA
ATOM     14  H2  UNL     1      55.943  -8.831  14.662  1.00  0.00     0.211 HD
ENDBRANCH  10  13
BRANCH  10  15
HETATM   15  C7  UNL     1      56.138 -10.804  15.898  1.00  0.00     0.324 C 
HETATM   16  O3  UNL     1      57.104 -10.013  16.006  1.00  0.00    -0.259 OA
BRANCH  15  17
HETATM   17  O4  UNL     1      55.959 -11.759  16.886  1.00  0.00    -0.194 OA
BRANCH  17  18
HETATM   18  N5  UNL     1      55.219 -11.549  18.020  1.00  0.00    -0.224 N 
HETATM   19  C8  UNL     1      54.105 -12.407  18.348  1.00  0.00     0.274 C 
HETATM   20  O5  UNL     1      53.807 -13.367  17.574  1.00  0.00    -0.269 OA
ATOM     21  H5  UNL     1      55.458 -10.777  18.642  1.00  0.00     0.198 HD
BRANCH  19  22
HETATM   22  C9  UNL     1      53.285 -12.215  19.560  1.00  0.00     0.301 C 
BRANCH  22  23
HETATM   23  N6  UNL     1      54.121 -11.515  20.550  1.00  0.00    -0.065 N 
ATOM     24  H63 UNL     1      53.910 -10.519  20.616  1.00  0.00     0.275 HD
ATOM     25  H62 UNL     1      53.891 -11.764  21.512  1.00  0.00     0.275 HD
ATOM     26  H61 UNL     1      55.095 -11.701  20.312  1.00  0.00     0.275 HD
ENDBRANCH  22  23
BRANCH  22  27
HETATM   27  C10 UNL     1      52.090 -11.328  19.356  1.00  0.00     0.272 C 
BRANCH  27  28
HETATM   28  N7  UNL     1      51.417 -11.500  18.107  1.00  0.00    -0.077 N 
ATOM     29  H73 UNL     1      50.420 -11.318  18.216  1.00  0.00     0.274 HD
ATOM     30  H72 UNL     1      51.667 -10.748  17.466  1.00  0.00     0.274 HD
ATOM     31  H71 UNL     1      51.563 -12.406  17.661  1.00  0.00     0.274 HD
ENDBRANCH  27  28
ENDBRANCH  22  27
ENDBRANCH  19  22
ENDBRANCH  17  18
ENDBRANCH  15  17
ENDBRANCH  10  15
BRANCH   1  32
HETATM   32  N1  UNL     1      55.482 -14.101  11.975  1.00  0.00    -0.385 N 
ATOM     33  H12 UNL     1      55.486 -15.036  11.565  1.00  0.00     0.157 HD
ATOM     34  H11 UNL     1      56.220 -13.431  11.763  1.00  0.00     0.157 HD
ENDBRANCH   1  32
BRANCH   4  35
HETATM   35  N3  UNL     1      51.396 -15.068  13.824  1.00  0.00    -0.098 N 
ATOM     36  H3  UNL     1      50.480 -14.701  14.086  1.00  0.00     0.213 HD
BRANCH  35  37
HETATM   37  O1  UNL     1      51.581 -16.403  13.574  1.00  0.00    -0.276 OA
ATOM     38  H1  UNL     1      52.200 -16.872  14.121  1.00  0.00     0.245 HD
ENDBRANCH  35  37
ENDBRANCH   4  35
TORSDOF 11
ENDMDL
MODEL 5
REMARK VINA RESULT: -6.241785125      1.929      2.189
REMARK  11 active torsions:
REMARK  status: ('A' for Active; 'I' for Inactive)
REMARK    1  A    between atoms: N1_1  and  C1_4 
REMARK    2  A    between atoms: C2_7  and  N3_8 
REMARK    3  A    between atoms: N3_8  and  O1_10 
REMARK    4  A    between atoms: C6_17  and  O2_18 
REMARK    5  A    between atoms: C6_17  and  C7_20 
REMARK    6  A    between atoms: C7_20  and  O4_22 
REMARK    7  A    between atoms: O4_22  and  N5_23 
REMARK       I    between atoms: N5_23  and  C8_25 
REMARK    8  A    between atoms: C8_25  and  C9_27 
REMARK    9  A    between atoms: C9_27  and  N6_28 
REMARK   10  A    between atoms: C9_27  and  C10_32 
REMARK   11  A    between atoms: C10_32  and  N7_33 
ROOT
HETATM    1  C1  UNL     1      54.645 -15.276  12.385  1.00  0.00     0.123 A 
HETATM    2  N2  UNL     1      54.253 -16.555  12.239  1.00  0.00    -0.175 N 
ATOM      3  H2  UNL     1      54.961 -17.281  12.130  1.00  0.00     0.186 HD
HETATM    4  C2  UNL     1      52.959 -16.902  12.231  1.00  0.00     0.704 A 
HETATM    5  N4  UNL     1      52.044 -15.933  12.376  1.00  0.00    -0.185 N 
ATOM      6  H4  UNL     1      51.056 -16.186  12.372  1.00  0.00     0.184 HD
HETATM    7  C3  UNL     1      52.388 -14.618  12.527  1.00  0.00     0.108 A 
HETATM    8  C4  UNL     1      53.714 -14.253  12.537  1.00  0.00     0.021 A 
HETATM    9  C5  UNL     1      53.822 -12.783  12.712  1.00  0.00     0.102 C 
HETATM   10  C6  UNL     1      52.457 -12.302  13.051  1.00  0.00     0.218 C 
HETATM   11  C11 UNL     1      51.568 -13.428  12.693  1.00  0.00     0.221 C 
HETATM   12  O6  UNL     1      50.312 -13.420  12.541  1.00  0.00    -0.287 OA
ENDROOT
BRANCH  10  13
HETATM   13  O2  UNL     1      52.084 -11.243  12.196  1.00  0.00    -0.372 OA
ATOM     14  H2  UNL     1      51.177 -11.337  11.930  1.00  0.00     0.211 HD
ENDBRANCH  10  13
BRANCH  10  15
HETATM   15  C7  UNL     1      52.317 -11.882  14.472  1.00  0.00     0.324 C 
HETATM   16  O3  UNL     1      51.450 -11.021  14.745  1.00  0.00    -0.259 OA
BRANCH  15  17
HETATM   17  O4  UNL     1      53.088 -12.388  15.506  1.00  0.00    -0.194 OA
BRANCH  17  18
HETATM   18  N5  UNL     1      52.751 -12.278  16.830  1.00  0.00    -0.224 N 
HETATM   19  C8  UNL     1      53.687 -11.747  17.792  1.00  0.00     0.274 C 
HETATM   20  O5  UNL     1      54.838 -11.378  17.406  1.00  0.00    -0.269 OA
ATOM     21  H5  UNL     1      51.827 -12.575  17.140  1.00  0.00     0.198 HD
BRANCH  19  22
HETATM   22  C9  UNL     1      53.362 -11.612  19.225  1.00  0.00     0.301 C 
BRANCH  22  23
HETATM   23  N6  UNL     1      51.896 -11.671  19.351  1.00  0.00    -0.065 N 
ATOM     24  H63 UNL     1      51.412 -11.484  18.472  1.00  0.00     0.275 HD
ATOM     25  H62 UNL     1      51.547 -12.619  19.495  1.00  0.00     0.275 HD
ATOM     26  H61 UNL     1      51.628 -11.029  20.097  1.00  0.00     0.275 HD
ENDBRANCH  22  23
BRANCH  22  27
HETATM   27  C10 UNL     1      53.876 -12.736  20.078  1.00  0.00     0.272 C 
BRANCH  27  28
HETATM   28  N7  UNL     1      54.188 -13.937  19.369  1.00  0.00    -0.077 N 
ATOM     29  H73 UNL     1      53.335 -14.454  19.157  1.00  0.00     0.274 HD
ATOM     30  H72 UNL     1      54.502 -13.716  18.423  1.00  0.00     0.274 HD
ATOM     31  H71 UNL     1      54.864 -14.546  19.831  1.00  0.00     0.274 HD
ENDBRANCH  27  28
ENDBRANCH  22  27
ENDBRANCH  19  22
ENDBRANCH  17  18
ENDBRANCH  15  17
ENDBRANCH  10  15
BRANCH   1  32
HETATM   32  N1  UNL     1      55.896 -14.970  12.387  1.00  0.00    -0.385 N 
ATOM     33  H12 UNL     1      56.486 -15.346  13.129  1.00  0.00     0.157 HD
ATOM     34  H11 UNL     1      56.283 -14.367  11.662  1.00  0.00     0.157 HD
ENDBRANCH   1  32
BRANCH   4  35
HETATM   35  N3  UNL     1      52.595 -18.144  12.086  1.00  0.00    -0.098 N 
ATOM     36  H3  UNL     1      52.012 -18.435  11.301  1.00  0.00     0.213 HD
BRANCH  35  37
HETATM   37  O1  UNL     1      53.023 -19.046  13.026  1.00  0.00    -0.276 OA
ATOM     38  H1  UNL     1      53.468 -19.826  12.717  1.00  0.00     0.245 HD
ENDBRANCH  35  37
ENDBRANCH   4  35
TORSDOF 11
ENDMDL
