MODEL 1
REMARK VINA RESULT: -5.953807523      0.000      0.000
REMARK  11 active torsions:
REMARK  status: ('A' for Active; 'I' for Inactive)
REMARK    1  A    between atoms: C1_2  and  C2_4 
REMARK    2  A    between atoms: C2_4  and  N2_5 
REMARK    3  A    between atoms: C2_4  and  C3_9 
REMARK    4  A    between atoms: C3_9  and  O2_10 
REMARK    5  A    between atoms: C3_9  and  O3_12 
REMARK    6  A    between atoms: C3_9  and  C4_14 
REMARK    7  A    between atoms: C5_15  and  S1_16 
REMARK    8  A    between atoms: S1_16  and  N3_17 
REMARK    9  A    between atoms: C7_23  and  O6_24 
REMARK   10  A    between atoms: C8_26  and  O7_27 
REMARK   11  A    between atoms: C10_31  and  O9_32 
ROOT
HETATM    1  C4  UNL     1      53.508 -11.586  16.081  1.00  0.00     0.066 C 
HETATM    2  C5  UNL     1      54.783 -11.352  16.520  1.00  0.00     0.096 C 
HETATM    3  C6  UNL     1      55.256 -11.625  17.831  1.00  0.00     0.065 C 
HETATM    4  C7  UNL     1      54.587 -11.869  19.011  1.00  0.00     0.104 C 
HETATM    5  C8  UNL     1      53.264 -11.622  19.250  1.00  0.00     0.152 C 
HETATM    6  C9  UNL     1      52.260 -11.695  18.306  1.00  0.00     0.241 C 
HETATM    7  O8  UNL     1      51.112 -11.806  18.794  1.00  0.00    -0.282 OA
HETATM    8  C10 UNL     1      52.380 -11.660  16.934  1.00  0.00     0.132 C 
ENDROOT
BRANCH   1   9
HETATM    9  C3  UNL     1      53.335 -11.753  14.646  1.00  0.00     0.230 C 
BRANCH   9  10
HETATM   10  C2  UNL     1      52.087 -12.416  14.134  1.00  0.00     0.338 C 
BRANCH  10  11
HETATM   11  C1  UNL     1      52.075 -12.222  12.614  1.00  0.00     0.267 C 
HETATM   12  N1  UNL     1      51.261 -11.255  11.975  1.00  0.00    -0.060 NA
HETATM   13  O1  UNL     1      52.799 -12.925  11.867  1.00  0.00    -0.274 OA
ENDBRANCH  10  11
BRANCH  10  14
HETATM   14  N2  UNL     1      52.308 -13.853  14.270  1.00  0.00    -0.061 N 
ATOM     15  H23 UNL     1      51.720 -14.434  13.674  1.00  0.00     0.275 HD
ATOM     16  H22 UNL     1      53.195 -14.187  13.895  1.00  0.00     0.275 HD
ATOM     17  H21 UNL     1      52.183 -14.003  15.271  1.00  0.00     0.275 HD
ENDBRANCH  10  14
ENDBRANCH   9  10
BRANCH   9  18
HETATM   18  O2  UNL     1      54.224 -12.891  14.395  1.00  0.00    -0.360 OA
ATOM     19  H2  UNL     1      54.803 -12.433  13.797  1.00  0.00     0.213 HD
ENDBRANCH   9  18
BRANCH   9  20
HETATM   20  O3  UNL     1      53.920 -10.822  13.857  1.00  0.00    -0.360 OA
ATOM     21  H3  UNL     1      53.443 -10.014  13.700  1.00  0.00     0.213 HD
ENDBRANCH   9  20
ENDBRANCH   1   9
BRANCH   2  22
HETATM   22  S1  UNL     1      55.904 -10.705  15.447  1.00  0.00     0.257 S 
HETATM   23  O4  UNL     1      55.622  -9.269  14.993  1.00  0.00    -0.201 OA
HETATM   24  O5  UNL     1      56.559 -11.546  14.445  1.00  0.00    -0.201 OA
BRANCH  22  25
HETATM   25  N3  UNL     1      57.367 -10.294  16.418  1.00  0.00    -0.324 N 
ATOM     26  H32 UNL     1      57.627 -10.708  17.313  1.00  0.00     0.169 HD
ATOM     27  H31 UNL     1      57.870  -9.577  15.896  1.00  0.00     0.169 HD
ENDBRANCH  22  25
ENDBRANCH   2  22
BRANCH   8  28
HETATM   28  O9  UNL     1      51.183 -11.705  16.232  1.00  0.00    -0.356 OA
ATOM     29  H9  UNL     1      50.426 -11.754  16.804  1.00  0.00     0.218 HD
ENDBRANCH   8  28
BRANCH   4  30
HETATM   30  O6  UNL     1      55.360 -12.416  20.017  1.00  0.00    -0.358 OA
ATOM     31  H6  UNL     1      54.883 -12.944  20.647  1.00  0.00     0.217 HD
ENDBRANCH   4  30
BRANCH   5  32
HETATM   32  O7  UNL     1      52.939 -11.273  20.541  1.00  0.00    -0.355 OA
ATOM     33  H7  UNL     1      52.217 -10.665  20.638  1.00  0.00     0.218 HD
ENDBRANCH   5  32
TORSDOF 11
ENDMDL
MODEL 2
REMARK VINA RESULT: -5.808505396      3.697      5.706
REMARK  11 active torsions:
REMARK  status: ('A' for Active; 'I' for Inactive)
REMARK    1  A    between atoms: C1_2  and  C2_4 
REMARK    2  A    between atoms: C2_4  and  N2_5 
REMARK    3  A    between atoms: C2_4  and  C3_9 
REMARK    4  A    between atoms: C3_9  and  O2_10 
REMARK    5  A    between atoms: C3_9  and  O3_12 
REMARK    6  A    between atoms: C3_9  and  C4_14 
REMARK    7  A    between atoms: C5_15  and  S1_16 
REMARK    8  A    between atoms: S1_16  and  N3_17 
REMARK    9  A    between atoms: C7_23  and  O6_24 
REMARK   10  A    between atoms: C8_26  and  O7_27 
REMARK   11  A    between atoms: C10_31  and  O9_32 
ROOT
HETATM    1  C4  UNL     1      53.863 -14.219  15.522  1.00  0.00     0.066 C 
HETATM    2  C5  UNL     1      53.211 -14.410  14.334  1.00  0.00     0.096 C 
HETATM    3  C6  UNL     1      52.569 -13.389  13.584  1.00  0.00     0.065 C 
HETATM    4  C7  UNL     1      52.167 -12.116  13.931  1.00  0.00     0.104 C 
HETATM    5  C8  UNL     1      52.045 -11.631  15.203  1.00  0.00     0.152 C 
HETATM    6  C9  UNL     1      52.827 -12.010  16.275  1.00  0.00     0.241 C 
HETATM    7  O8  UNL     1      52.811 -11.197  17.227  1.00  0.00    -0.282 OA
HETATM    8  C10 UNL     1      53.597 -13.145  16.406  1.00  0.00     0.132 C 
ENDROOT
BRANCH   1   9
HETATM    9  C3  UNL     1      54.876 -15.203  15.872  1.00  0.00     0.230 C 
BRANCH   9  10
HETATM   10  C2  UNL     1      54.497 -16.355  16.761  1.00  0.00     0.338 C 
BRANCH  10  11
HETATM   11  C1  UNL     1      55.471 -17.496  16.445  1.00  0.00     0.267 C 
HETATM   12  N1  UNL     1      56.768 -17.568  17.007  1.00  0.00    -0.060 NA
HETATM   13  O1  UNL     1      55.149 -18.423  15.662  1.00  0.00    -0.274 OA
ENDBRANCH  10  11
BRANCH  10  14
HETATM   14  N2  UNL     1      54.888 -15.968  18.113  1.00  0.00    -0.061 N 
ATOM     15  H23 UNL     1      55.664 -16.501  18.503  1.00  0.00     0.275 HD
ATOM     16  H22 UNL     1      55.345 -15.059  18.182  1.00  0.00     0.275 HD
ATOM     17  H21 UNL     1      54.012 -16.046  18.629  1.00  0.00     0.275 HD
ENDBRANCH  10  14
ENDBRANCH   9  10
BRANCH   9  18
HETATM   18  O2  UNL     1      55.629 -14.467  16.893  1.00  0.00    -0.360 OA
ATOM     19  H2  UNL     1      55.503 -13.608  16.507  1.00  0.00     0.213 HD
ENDBRANCH   9  18
BRANCH   9  20
HETATM   20  O3  UNL     1      55.856 -15.408  14.962  1.00  0.00    -0.360 OA
ATOM     21  H3  UNL     1      56.674 -14.940  15.082  1.00  0.00     0.213 HD
ENDBRANCH   9  20
ENDBRANCH   1   9
BRANCH   2  22
HETATM   22  S1  UNL     1      53.157 -15.956  13.677  1.00  0.00     0.257 S 
HETATM   23  O4  UNL     1      52.359 -16.984  14.486  1.00  0.00    -0.201 OA
HETATM   24  O5  UNL     1      54.303 -16.505  12.951  1.00  0.00    -0.201 OA
BRANCH  22  25
HETATM   25  N3  UNL     1      52.001 -15.889  12.296  1.00  0.00    -0.324 N 
ATOM     26  H32 UNL     1      52.142 -15.384  11.421  1.00  0.00     0.169 HD
ATOM     27  H31 UNL     1      51.193 -16.449  12.565  1.00  0.00     0.169 HD
ENDBRANCH  22  25
ENDBRANCH   2  22
BRANCH   8  28
HETATM   28  O9  UNL     1      54.244 -13.286  17.626  1.00  0.00    -0.356 OA
ATOM     29  H9  UNL     1      53.822 -12.796  18.322  1.00  0.00     0.218 HD
ENDBRANCH   8  28
BRANCH   4  30
HETATM   30  O6  UNL     1      51.874 -11.287  12.865  1.00  0.00    -0.358 OA
ATOM     31  H6  UNL     1      51.957 -10.358  13.045  1.00  0.00     0.217 HD
ENDBRANCH   4  30
BRANCH   5  32
HETATM   32  O7  UNL     1      51.055 -10.696  15.399  1.00  0.00    -0.355 OA
ATOM     33  H7  UNL     1      51.014 -10.309  16.266  1.00  0.00     0.218 HD
ENDBRANCH   5  32
TORSDOF 11
ENDMDL
MODEL 3
REMARK VINA RESULT: -5.703503688      3.108      5.860
REMARK  11 active torsions:
REMARK  status: ('A' for Active; 'I' for Inactive)
REMARK    1  A    between atoms: C1_2  and  C2_4 
REMARK    2  A    between atoms: C2_4  and  N2_5 
REMARK    3  A    between atoms: C2_4  and  C3_9 
REMARK    4  A    between atoms: C3_9  and  O2_10 
REMARK    5  A    between atoms: C3_9  and  O3_12 
REMARK    6  A    between atoms: C3_9  and  C4_14 
REMARK    7  A    between atoms: C5_15  and  S1_16 
REMARK    8  A    between atoms: S1_16  and  N3_17 
REMARK    9  A    between atoms: C7_23  and  O6_24 
REMARK   10  A    between atoms: C8_26  and  O7_27 
REMARK   11  A    between atoms: C10_31  and  O9_32 
ROOT
HETATM    1  C4  UNL     1      53.988 -12.966  17.045  1.00  0.00     0.066 C 
HETATM    2  C5  UNL     1      54.315 -14.102  16.355  1.00  0.00     0.096 C 
HETATM    3  C6  UNL     1      54.131 -14.288  14.959  1.00  0.00     0.065 C 
HETATM    4  C7  UNL     1      53.364 -13.605  14.040  1.00  0.00     0.104 C 
HETATM    5  C8  UNL     1      52.356 -12.729  14.327  1.00  0.00     0.152 C 
HETATM    6  C9  UNL     1      52.310 -11.909  15.437  1.00  0.00     0.241 C 
HETATM    7  O8  UNL     1      51.524 -10.941  15.320  1.00  0.00    -0.282 OA
HETATM    8  C10 UNL     1      53.011 -12.034  16.616  1.00  0.00     0.132 C 
ENDROOT
BRANCH   1   9
HETATM    9  C3  UNL     1      54.696 -12.738  18.295  1.00  0.00     0.230 C 
BRANCH   9  10
HETATM   10  C2  UNL     1      54.058 -13.173  19.585  1.00  0.00     0.338 C 
BRANCH  10  11
HETATM   11  C1  UNL     1      55.199 -13.433  20.576  1.00  0.00     0.267 C 
HETATM   12  N1  UNL     1      55.782 -12.403  21.353  1.00  0.00    -0.060 NA
HETATM   13  O1  UNL     1      55.665 -14.587  20.738  1.00  0.00    -0.274 OA
ENDBRANCH  10  11
BRANCH  10  14
HETATM   14  N2  UNL     1      53.418 -11.985  20.140  1.00  0.00    -0.061 N 
ATOM     15  H23 UNL     1      53.410 -11.175  19.520  1.00  0.00     0.275 HD
ATOM     16  H22 UNL     1      52.405 -12.049  20.235  1.00  0.00     0.275 HD
ATOM     17  H21 UNL     1      53.923 -11.848  21.015  1.00  0.00     0.275 HD
ENDBRANCH  10  14
ENDBRANCH   9  10
BRANCH   9  18
HETATM   18  O2  UNL     1      54.458 -11.304  18.486  1.00  0.00    -0.360 OA
ATOM     19  H2  UNL     1      55.302 -11.020  18.154  1.00  0.00     0.213 HD
ENDBRANCH   9  18
BRANCH   9  20
HETATM   20  O3  UNL     1      56.049 -12.743  18.230  1.00  0.00    -0.360 OA
ATOM     21  H3  UNL     1      56.469 -12.045  17.742  1.00  0.00     0.213 HD
ENDBRANCH   9  20
ENDBRANCH   1   9
BRANCH   2  22
HETATM   22  S1  UNL     1      55.000 -15.390  17.191  1.00  0.00     0.257 S 
HETATM   23  O4  UNL     1      54.070 -16.094  18.185  1.00  0.00    -0.201 OA
HETATM   24  O5  UNL     1      56.410 -15.367  17.582  1.00  0.00    -0.201 OA
BRANCH  22  25
HETATM   25  N3  UNL     1      55.088 -16.767  16.032  1.00  0.00    -0.324 N 
ATOM     26  H32 UNL     1      54.570 -16.847  15.157  1.00  0.00     0.169 HD
ATOM     27  H31 UNL     1      55.751 -17.435  16.424  1.00  0.00     0.169 HD
ENDBRANCH  22  25
ENDBRANCH   2  22
BRANCH   8  28
HETATM   28  O9  UNL     1      52.724 -11.080  17.582  1.00  0.00    -0.356 OA
ATOM     29  H9  UNL     1      52.192 -10.369  17.245  1.00  0.00     0.218 HD
ENDBRANCH   8  28
BRANCH   4  30
HETATM   30  O6  UNL     1      53.679 -13.855  12.718  1.00  0.00    -0.358 OA
ATOM     31  H6  UNL     1      53.909 -13.087  12.208  1.00  0.00     0.217 HD
ENDBRANCH   4  30
BRANCH   5  32
HETATM   32  O7  UNL     1      51.319 -12.684  13.424  1.00  0.00    -0.355 OA
ATOM     33  H7  UNL     1      50.479 -12.995  13.739  1.00  0.00     0.218 HD
ENDBRANCH   5  32
TORSDOF 11
ENDMDL
MODEL 4
REMARK VINA RESULT: -5.669309701      3.296      4.986
REMARK  11 active torsions:
REMARK  status: ('A' for Active; 'I' for Inactive)
REMARK    1  A    between atoms: C1_2  and  C2_4 
REMARK    2  A    between atoms: C2_4  and  N2_5 
REMARK    3  A    between atoms: C2_4  and  C3_9 
REMARK    4  A    between atoms: C3_9  and  O2_10 
REMARK    5  A    between atoms: C3_9  and  O3_12 
REMARK    6  A    between atoms: C3_9  and  C4_14 
REMARK    7  A    between atoms: C5_15  and  S1_16 
REMARK    8  A    between atoms: S1_16  and  N3_17 
REMARK    9  A    between atoms: C7_23  and  O6_24 
REMARK   10  A    between atoms: C8_26  and  O7_27 
REMARK   11  A    between atoms: C10_31  and  O9_32 
ROOT
HETATM    1  C4  UNL     1      53.956 -13.843  15.290  1.00  0.00     0.066 C 
HETATM    2  C5  UNL     1      52.806 -13.673  14.570  1.00  0.00     0.096 C 
HETATM    3  C6  UNL     1      51.932 -12.559  14.682  1.00  0.00     0.065 C 
HETATM    4  C7  UNL     1      51.808 -11.590  15.655  1.00  0.00     0.104 C 
HETATM    5  C8  UNL     1      52.335 -11.644  16.914  1.00  0.00     0.152 C 
HETATM    6  C9  UNL     1      53.517 -12.271  17.253  1.00  0.00     0.241 C 
HETATM    7  O8  UNL     1      53.999 -11.888  18.344  1.00  0.00    -0.282 OA
HETATM    8  C10 UNL     1      54.200 -13.236  16.546  1.00  0.00     0.132 C 
ENDROOT
BRANCH   1   9
HETATM    9  C3  UNL     1      54.965 -14.715  14.707  1.00  0.00     0.230 C 
BRANCH   9  10
HETATM   10  C2  UNL     1      55.010 -16.159  15.123  1.00  0.00     0.338 C 
BRANCH  10  11
HETATM   11  C1  UNL     1      55.633 -16.935  13.958  1.00  0.00     0.267 C 
HETATM   12  N1  UNL     1      57.030 -16.989  13.738  1.00  0.00    -0.060 NA
HETATM   13  O1  UNL     1      54.914 -17.563  13.142  1.00  0.00    -0.274 OA
ENDBRANCH  10  11
BRANCH  10  14
HETATM   14  N2  UNL     1      56.040 -16.250  16.154  1.00  0.00    -0.061 N 
ATOM     15  H23 UNL     1      56.926 -16.644  15.839  1.00  0.00     0.275 HD
ATOM     16  H22 UNL     1      56.427 -15.355  16.452  1.00  0.00     0.275 HD
ATOM     17  H21 UNL     1      55.573 -16.781  16.889  1.00  0.00     0.275 HD
ENDBRANCH  10  14
ENDBRANCH   9  10
BRANCH   9  18
HETATM   18  O2  UNL     1      56.151 -14.303  15.464  1.00  0.00    -0.360 OA
ATOM     19  H2  UNL     1      56.601 -13.902  14.729  1.00  0.00     0.213 HD
ENDBRANCH   9  18
BRANCH   9  20
HETATM   20  O3  UNL     1      55.372 -14.410  13.452  1.00  0.00    -0.360 OA
ATOM     21  H3  UNL     1      56.148 -14.848  13.122  1.00  0.00     0.213 HD
ENDBRANCH   9  20
ENDBRANCH   1   9
BRANCH   2  22
HETATM   22  S1  UNL     1      52.369 -14.847  13.449  1.00  0.00     0.257 S 
HETATM   23  O4  UNL     1      51.905 -16.181  14.044  1.00  0.00    -0.201 OA
HETATM   24  O5  UNL     1      53.066 -14.958  12.166  1.00  0.00    -0.201 OA
BRANCH  22  25
HETATM   25  N3  UNL     1      50.752 -14.372  12.809  1.00  0.00    -0.324 N 
ATOM     26  H32 UNL     1      50.118 -13.692  13.229  1.00  0.00     0.169 HD
ATOM     27  H31 UNL     1      50.605 -14.913  11.957  1.00  0.00     0.169 HD
ENDBRANCH  22  25
ENDBRANCH   2  22
BRANCH   8  28
HETATM   28  O9  UNL     1      55.346 -13.722  17.160  1.00  0.00    -0.356 OA
ATOM     29  H9  UNL     1      56.015 -13.056  17.262  1.00  0.00     0.218 HD
ENDBRANCH   8  28
BRANCH   4  30
HETATM   30  O6  UNL     1      51.078 -10.478  15.280  1.00  0.00    -0.358 OA
ATOM     31  H6  UNL     1      50.859  -9.884  15.988  1.00  0.00     0.217 HD
ENDBRANCH   4  30
BRANCH   5  32
HETATM   32  O7  UNL     1      51.607 -11.019  17.900  1.00  0.00    -0.355 OA
ATOM     33  H7  UNL     1      51.503 -11.502  18.711  1.00  0.00     0.218 HD
ENDBRANCH   5  32
TORSDOF 11
ENDMDL
MODEL 5
REMARK VINA RESULT: -5.642198397      2.186      3.512
REMARK  11 active torsions:
REMARK  status: ('A' for Active; 'I' for Inactive)
REMARK    1  A    between atoms: C1_2  and  C2_4 
REMARK    2  A    between atoms: C2_4  and  N2_5 
REMARK    3  A    between atoms: C2_4  and  C3_9 
REMARK    4  A    between atoms: C3_9  and  O2_10 
REMARK    5  A    between atoms: C3_9  and  O3_12 
REMARK    6  A    between atoms: C3_9  and  C4_14 
REMARK    7  A    between atoms: C5_15  and  S1_16 
REMARK    8  A    between atoms: S1_16  and  N3_17 
REMARK    9  A    between atoms: C7_23  and  O6_24 
REMARK   10  A    between atoms: C8_26  and  O7_27 
REMARK   11  A    between atoms: C10_31  and  O9_32 
ROOT
HETATM    1  C4  UNL     1      54.508 -12.410  15.711  1.00  0.00     0.066 C 
HETATM    2  C5  UNL     1      53.764 -11.859  16.718  1.00  0.00     0.096 C 
HETATM    3  C6  UNL     1      54.237 -11.601  18.032  1.00  0.00     0.065 C 
HETATM    4  C7  UNL     1      55.343 -12.063  18.712  1.00  0.00     0.104 C 
HETATM    5  C8  UNL     1      56.116 -13.133  18.356  1.00  0.00     0.152 C 
HETATM    6  C9  UNL     1      56.360 -13.537  17.059  1.00  0.00     0.241 C 
HETATM    7  O8  UNL     1      57.366 -14.273  16.938  1.00  0.00    -0.282 OA
HETATM    8  C10 UNL     1      55.643 -13.230  15.924  1.00  0.00     0.132 C 
ENDROOT
BRANCH   1   9
HETATM    9  C3  UNL     1      54.073 -12.126  14.352  1.00  0.00     0.230 C 
BRANCH   9  10
HETATM   10  C2  UNL     1      53.145 -13.090  13.666  1.00  0.00     0.338 C 
BRANCH  10  11
HETATM   11  C1  UNL     1      52.434 -12.306  12.557  1.00  0.00     0.267 C 
HETATM   12  N1  UNL     1      52.944 -12.216  11.240  1.00  0.00    -0.060 NA
HETATM   13  O1  UNL     1      51.355 -11.704  12.781  1.00  0.00    -0.274 OA
ENDBRANCH  10  11
BRANCH  10  14
HETATM   14  N2  UNL     1      53.997 -14.005  12.914  1.00  0.00    -0.061 N 
ATOM     15  H23 UNL     1      54.951 -13.677  12.766  1.00  0.00     0.275 HD
ATOM     16  H22 UNL     1      54.259 -14.855  13.413  1.00  0.00     0.275 HD
ATOM     17  H21 UNL     1      53.460 -14.158  12.060  1.00  0.00     0.275 HD
ENDBRANCH  10  14
ENDBRANCH   9  10
BRANCH   9  18
HETATM   18  O2  UNL     1      55.270 -12.508  13.597  1.00  0.00    -0.360 OA
ATOM     19  H2  UNL     1      55.031 -13.421  13.490  1.00  0.00     0.213 HD
ENDBRANCH   9  18
BRANCH   9  20
HETATM   20  O3  UNL     1      53.988 -10.819  14.008  1.00  0.00    -0.360 OA
ATOM     21  H3  UNL     1      54.013 -10.177  14.707  1.00  0.00     0.213 HD
ENDBRANCH   9  20
ENDBRANCH   1   9
BRANCH   2  22
HETATM   22  S1  UNL     1      52.167 -11.433  16.408  1.00  0.00     0.257 S 
HETATM   23  O4  UNL     1      51.219 -12.605  16.133  1.00  0.00    -0.201 OA
HETATM   24  O5  UNL     1      51.845 -10.202  15.687  1.00  0.00    -0.201 OA
BRANCH  22  25
HETATM   25  N3  UNL     1      51.437 -10.988  17.995  1.00  0.00    -0.324 N 
ATOM     26  H32 UNL     1      50.755 -10.245  18.153  1.00  0.00     0.169 HD
ATOM     27  H31 UNL     1      51.837 -11.619  18.688  1.00  0.00     0.169 HD
ENDBRANCH  22  25
ENDBRANCH   2  22
BRANCH   8  28
HETATM   28  O9  UNL     1      56.099 -13.824  14.755  1.00  0.00    -0.356 OA
ATOM     29  H9  UNL     1      56.986 -13.564  14.535  1.00  0.00     0.218 HD
ENDBRANCH   8  28
BRANCH   4  30
HETATM   30  O6  UNL     1      55.667 -11.351  19.852  1.00  0.00    -0.358 OA
ATOM     31  H6  UNL     1      55.165 -11.582  20.625  1.00  0.00     0.217 HD
ENDBRANCH   4  30
BRANCH   5  32
HETATM   32  O7  UNL     1      56.679 -13.842  19.391  1.00  0.00    -0.355 OA
ATOM     33  H7  UNL     1      56.071 -14.279  19.976  1.00  0.00     0.218 HD
ENDBRANCH   5  32
TORSDOF 11
ENDMDL
