MODEL 1
REMARK VINA RESULT: -7.172367712      0.000      0.000
REMARK  7 active torsions:
REMARK  status: ('A' for Active; 'I' for Inactive)
REMARK    1  A    between atoms: N1_1  and  C1_4 
REMARK    2  A    between atoms: C2_7  and  N3_8 
REMARK    3  A    between atoms: N6_16  and  C4_17 
REMARK    4  A    between atoms: C4_17  and  C5_18 
REMARK    5  A    between atoms: C6_20  and  N7_21 
REMARK    6  A    between atoms: N7_21  and  N8_22 
REMARK       I    between atoms: N8_22  and  C7_24 
REMARK    7  A    between atoms: C9_31  and  O4_32 
ROOT
HETATM    1  C1  UNL     1      55.181 -11.333  16.098  1.00  0.00     0.679 A 
HETATM    2  N2  UNL     1      54.348 -11.527  15.066  1.00  0.00    -0.175 N 
ATOM      3  H2  UNL     1      54.741 -11.530  14.125  1.00  0.00     0.186 HD
HETATM    4  C2  UNL     1      53.025 -11.716  15.199  1.00  0.00     0.147 A 
HETATM    5  C3  UNL     1      52.474 -11.712  16.478  1.00  0.00     0.140 A 
HETATM    6  N4  UNL     1      51.259 -11.858  16.986  1.00  0.00    -0.279 N 
ATOM      7  H4  UNL     1      50.411 -12.020  16.443  1.00  0.00     0.189 HD
HETATM    8  N5  UNL     1      51.313 -11.761  18.295  1.00  0.00    -0.238 N 
ATOM      9  H5  UNL     1      50.511 -11.838  18.922  1.00  0.00     0.208 HD
HETATM   10  N6  UNL     1      52.546 -11.553  18.677  1.00  0.00    -0.257 N 
HETATM   11  C10 UNL     1      53.308 -11.515  17.555  1.00  0.00     0.171 A 
HETATM   12  N11 UNL     1      54.624 -11.333  17.341  1.00  0.00    -0.173 N 
ATOM     13  H11 UNL     1      55.233 -11.187  18.146  1.00  0.00     0.186 HD
ENDROOT
BRANCH  10  14
HETATM   14  C4  UNL     1      53.112 -11.372  19.981  1.00  0.00     0.187 C 
BRANCH  14  15
HETATM   15  C5  UNL     1      53.804 -12.611  20.534  1.00  0.00     0.183 C 
HETATM   16  O1  UNL     1      53.746 -13.552  19.515  1.00  0.00    -0.341 OA
HETATM   17  C6  UNL     1      54.739 -14.515  19.547  1.00  0.00     0.342 C 
HETATM   18  N10 UNL     1      56.004 -13.867  19.250  1.00  0.00    -0.318 N 
HETATM   19  C8  UNL     1      56.203 -12.602  19.896  1.00  0.00     0.252 C 
ATOM     20  H10 UNL     1      56.700 -14.281  18.629  1.00  0.00     0.166 HD
HETATM   21  O3  UNL     1      57.111 -11.791  19.584  1.00  0.00    -0.270 OA
HETATM   22  C9  UNL     1      55.210 -12.331  20.999  1.00  0.00     0.240 C 
BRANCH  17  23
HETATM   23  N7  UNL     1      54.401 -15.491  18.518  1.00  0.00    -0.084 NA
BRANCH  23  24
HETATM   24  N8  UNL     1      54.434 -14.857  17.280  1.00  0.00    -0.254 N 
HETATM   25  C7  UNL     1      54.275 -15.595  16.084  1.00  0.00     0.344 C 
HETATM   26  N9  UNL     1      54.304 -14.973  14.794  1.00  0.00    -0.039 NA
HETATM   27  O2  UNL     1      54.104 -16.832  16.158  1.00  0.00    -0.250 OA
ATOM     28  H8  UNL     1      54.575 -13.848  17.235  1.00  0.00     0.187 HD
ENDBRANCH  23  24
ENDBRANCH  17  23
BRANCH  22  29
HETATM   29  O4  UNL     1      55.575 -13.238  22.025  1.00  0.00    -0.383 OA
ATOM     30  H4  UNL     1      55.262 -12.924  22.866  1.00  0.00     0.210 HD
ENDBRANCH  22  29
ENDBRANCH  14  15
ENDBRANCH  10  14
BRANCH   4  31
HETATM   31  N3  UNL     1      52.234 -11.901  14.209  1.00  0.00    -0.383 N 
ATOM     32  H32 UNL     1      52.355 -12.750  13.656  1.00  0.00     0.157 HD
ATOM     33  H31 UNL     1      51.495 -11.248  13.950  1.00  0.00     0.157 HD
ENDBRANCH   4  31
BRANCH   1  34
HETATM   34  N1  UNL     1      56.449 -11.156  15.925  1.00  0.00    -0.234 N 
ATOM     35  H12 UNL     1      56.807 -10.445  15.287  1.00  0.00     0.174 HD
ATOM     36  H11 UNL     1      57.143 -11.718  16.418  1.00  0.00     0.174 HD
ENDBRANCH   1  34
TORSDOF 7
ENDMDL
MODEL 2
REMARK VINA RESULT: -6.735671272      3.076      5.359
REMARK  7 active torsions:
REMARK  status: ('A' for Active; 'I' for Inactive)
REMARK    1  A    between atoms: N1_1  and  C1_4 
REMARK    2  A    between atoms: C2_7  and  N3_8 
REMARK    3  A    between atoms: N6_16  and  C4_17 
REMARK    4  A    between atoms: C4_17  and  C5_18 
REMARK    5  A    between atoms: C6_20  and  N7_21 
REMARK    6  A    between atoms: N7_21  and  N8_22 
REMARK       I    between atoms: N8_22  and  C7_24 
REMARK    7  A    between atoms: C9_31  and  O4_32 
ROOT
HETATM    1  C1  UNL     1      55.662 -11.522  17.129  1.00  0.00     0.679 A 
HETATM    2  N2  UNL     1      55.686 -11.604  18.466  1.00  0.00    -0.175 N 
ATOM      3  H2  UNL     1      56.594 -11.602  18.931  1.00  0.00     0.186 HD
HETATM    4  C2  UNL     1      54.585 -11.689  19.230  1.00  0.00     0.147 A 
HETATM    5  C3  UNL     1      53.339 -11.696  18.609  1.00  0.00     0.140 A 
HETATM    6  N4  UNL     1      52.080 -11.767  19.014  1.00  0.00    -0.279 N 
ATOM      7  H4  UNL     1      51.778 -11.838  19.986  1.00  0.00     0.189 HD
HETATM    8  N5  UNL     1      51.278 -11.732  17.974  1.00  0.00    -0.238 N 
ATOM      9  H5  UNL     1      50.259 -11.772  18.017  1.00  0.00     0.208 HD
HETATM   10  N6  UNL     1      51.978 -11.638  16.873  1.00  0.00    -0.257 N 
HETATM   11  C10 UNL     1      53.286 -11.613  17.236  1.00  0.00     0.171 A 
HETATM   12  N11 UNL     1      54.434 -11.530  16.539  1.00  0.00    -0.173 N 
ATOM     13  H11 UNL     1      54.382 -11.470  15.522  1.00  0.00     0.186 HD
ENDROOT
BRANCH  10  14
HETATM   14  C4  UNL     1      51.574 -11.577  15.500  1.00  0.00     0.187 C 
BRANCH  14  15
HETATM   15  C5  UNL     1      52.397 -12.462  14.572  1.00  0.00     0.183 C 
HETATM   16  O1  UNL     1      51.880 -13.741  14.729  1.00  0.00    -0.341 OA
HETATM   17  C6  UNL     1      52.060 -14.584  13.647  1.00  0.00     0.342 C 
HETATM   18  N10 UNL     1      51.244 -14.091  12.551  1.00  0.00    -0.318 N 
HETATM   19  C8  UNL     1      51.267 -12.669  12.371  1.00  0.00     0.252 C 
ATOM     20  H10 UNL     1      50.695 -14.711  11.954  1.00  0.00     0.166 HD
HETATM   21  O3  UNL     1      50.456 -12.040  11.645  1.00  0.00    -0.270 OA
HETATM   22  C9  UNL     1      52.370 -11.986  13.143  1.00  0.00     0.240 C 
BRANCH  17  23
HETATM   23  N7  UNL     1      51.613 -15.905  14.073  1.00  0.00    -0.084 NA
BRANCH  23  24
HETATM   24  N8  UNL     1      52.503 -16.853  13.578  1.00  0.00    -0.254 N 
HETATM   25  C7  UNL     1      53.207 -17.711  14.455  1.00  0.00     0.344 C 
HETATM   26  N9  UNL     1      54.130 -18.698  13.978  1.00  0.00    -0.039 NA
HETATM   27  O2  UNL     1      53.016 -17.604  15.686  1.00  0.00    -0.250 OA
ATOM     28  H8  UNL     1      52.650 -16.929  12.572  1.00  0.00     0.187 HD
ENDBRANCH  23  24
ENDBRANCH  17  23
BRANCH  22  29
HETATM   29  O4  UNL     1      53.556 -12.380  12.475  1.00  0.00    -0.383 OA
ATOM     30  H4  UNL     1      53.377 -13.111  11.895  1.00  0.00     0.210 HD
ENDBRANCH  22  29
ENDBRANCH  14  15
ENDBRANCH  10  14
BRANCH   4  31
HETATM   31  N3  UNL     1      54.615 -11.767  20.508  1.00  0.00    -0.383 N 
ATOM     32  H32 UNL     1      55.447 -11.419  20.986  1.00  0.00     0.157 HD
ATOM     33  H31 UNL     1      53.855 -12.154  21.067  1.00  0.00     0.157 HD
ENDBRANCH   4  31
BRANCH   1  34
HETATM   34  N1  UNL     1      56.746 -11.440  16.432  1.00  0.00    -0.234 N 
ATOM     35  H12 UNL     1      57.182 -12.266  16.021  1.00  0.00     0.174 HD
ATOM     36  H11 UNL     1      57.211 -10.548  16.263  1.00  0.00     0.174 HD
ENDBRANCH   1  34
TORSDOF 7
ENDMDL
MODEL 3
REMARK VINA RESULT: -6.663863912      2.563      5.096
REMARK  7 active torsions:
REMARK  status: ('A' for Active; 'I' for Inactive)
REMARK    1  A    between atoms: N1_1  and  C1_4 
REMARK    2  A    between atoms: C2_7  and  N3_8 
REMARK    3  A    between atoms: N6_16  and  C4_17 
REMARK    4  A    between atoms: C4_17  and  C5_18 
REMARK    5  A    between atoms: C6_20  and  N7_21 
REMARK    6  A    between atoms: N7_21  and  N8_22 
REMARK       I    between atoms: N8_22  and  C7_24 
REMARK    7  A    between atoms: C9_31  and  O4_32 
ROOT
HETATM    1  C1  UNL     1      52.683 -16.170  13.162  1.00  0.00     0.679 A 
HETATM    2  N2  UNL     1      51.577 -15.502  12.804  1.00  0.00    -0.175 N 
ATOM      3  H2  UNL     1      50.735 -16.041  12.603  1.00  0.00     0.186 HD
HETATM    4  C2  UNL     1      51.513 -14.166  12.695  1.00  0.00     0.147 A 
HETATM    5  C3  UNL     1      52.656 -13.417  12.963  1.00  0.00     0.140 A 
HETATM    6  N4  UNL     1      52.966 -12.129  12.960  1.00  0.00    -0.279 N 
ATOM      7  H4  UNL     1      52.325 -11.371  12.727  1.00  0.00     0.189 HD
HETATM    8  N5  UNL     1      54.226 -11.977  13.303  1.00  0.00    -0.238 N 
ATOM      9  H5  UNL     1      54.709 -11.082  13.376  1.00  0.00     0.208 HD
HETATM   10  N6  UNL     1      54.768 -13.143  13.538  1.00  0.00    -0.257 N 
HETATM   11  C10 UNL     1      53.806 -14.078  13.333  1.00  0.00     0.171 A 
HETATM   12  N11 UNL     1      53.791 -15.421  13.421  1.00  0.00    -0.173 N 
ATOM     13  H11 UNL     1      54.649 -15.899  13.694  1.00  0.00     0.186 HD
ENDROOT
BRANCH  10  14
HETATM   14  C4  UNL     1      56.099 -13.504  13.928  1.00  0.00     0.187 C 
BRANCH  14  15
HETATM   15  C5  UNL     1      56.348 -13.427  15.428  1.00  0.00     0.183 C 
HETATM   16  O1  UNL     1      55.415 -12.519  15.911  1.00  0.00    -0.341 OA
HETATM   17  C6  UNL     1      55.071 -12.682  17.241  1.00  0.00     0.342 C 
HETATM   18  N10 UNL     1      54.332 -13.926  17.366  1.00  0.00    -0.318 N 
HETATM   19  C8  UNL     1      54.869 -15.027  16.619  1.00  0.00     0.252 C 
ATOM     20  H10 UNL     1      53.495 -14.012  17.943  1.00  0.00     0.166 HD
HETATM   21  O3  UNL     1      54.250 -16.101  16.410  1.00  0.00    -0.270 OA
HETATM   22  C9  UNL     1      56.263 -14.774  16.099  1.00  0.00     0.240 C 
BRANCH  17  23
HETATM   23  N7  UNL     1      54.231 -11.543  17.593  1.00  0.00    -0.084 NA
BRANCH  23  24
HETATM   24  N8  UNL     1      53.540 -11.136  16.456  1.00  0.00    -0.254 N 
HETATM   25  C7  UNL     1      52.155 -11.394  16.321  1.00  0.00     0.344 C 
HETATM   26  N9  UNL     1      51.414 -10.989  15.164  1.00  0.00    -0.039 NA
HETATM   27  O2  UNL     1      51.561 -11.995  17.243  1.00  0.00    -0.250 OA
ATOM     28  H8  UNL     1      54.036 -10.647  15.712  1.00  0.00     0.187 HD
ENDBRANCH  23  24
ENDBRANCH  17  23
BRANCH  22  29
HETATM   29  O4  UNL     1      57.075 -14.792  17.261  1.00  0.00    -0.383 OA
ATOM     30  H4  UNL     1      57.723 -14.099  17.218  1.00  0.00     0.210 HD
ENDBRANCH  22  29
ENDBRANCH  14  15
ENDBRANCH  10  14
BRANCH   4  31
HETATM   31  N3  UNL     1      50.452 -13.534  12.353  1.00  0.00    -0.383 N 
ATOM     32  H32 UNL     1      49.557 -14.004  12.485  1.00  0.00     0.157 HD
ATOM     33  H31 UNL     1      50.460 -12.593  11.961  1.00  0.00     0.157 HD
ENDBRANCH   4  31
BRANCH   1  34
HETATM   34  N1  UNL     1      52.700 -17.458  13.256  1.00  0.00    -0.234 N 
ATOM     35  H12 UNL     1      52.459 -17.933  14.126  1.00  0.00     0.174 HD
ATOM     36  H11 UNL     1      52.955 -18.052  12.468  1.00  0.00     0.174 HD
ENDBRANCH   1  34
TORSDOF 7
ENDMDL
MODEL 4
REMARK VINA RESULT: -6.461704579      2.345      4.956
REMARK  7 active torsions:
REMARK  status: ('A' for Active; 'I' for Inactive)
REMARK    1  A    between atoms: N1_1  and  C1_4 
REMARK    2  A    between atoms: C2_7  and  N3_8 
REMARK    3  A    between atoms: N6_16  and  C4_17 
REMARK    4  A    between atoms: C4_17  and  C5_18 
REMARK    5  A    between atoms: C6_20  and  N7_21 
REMARK    6  A    between atoms: N7_21  and  N8_22 
REMARK       I    between atoms: N8_22  and  C7_24 
REMARK    7  A    between atoms: C9_31  and  O4_32 
ROOT
HETATM    1  C1  UNL     1      55.888 -11.385  17.957  1.00  0.00     0.679 A 
HETATM    2  N2  UNL     1      55.571 -11.621  19.238  1.00  0.00    -0.175 N 
ATOM      3  H2  UNL     1      56.329 -11.670  19.919  1.00  0.00     0.186 HD
HETATM    4  C2  UNL     1      54.314 -11.799  19.677  1.00  0.00     0.147 A 
HETATM    5  C3  UNL     1      53.270 -11.738  18.758  1.00  0.00     0.140 A 
HETATM    6  N4  UNL     1      51.952 -11.860  18.813  1.00  0.00    -0.279 N 
ATOM      7  H4  UNL     1      51.414 -12.044  19.660  1.00  0.00     0.189 HD
HETATM    8  N5  UNL     1      51.443 -11.707  17.611  1.00  0.00    -0.238 N 
ATOM      9  H5  UNL     1      50.450 -11.755  17.385  1.00  0.00     0.208 HD
HETATM   10  N6  UNL     1      52.399 -11.483  16.747  1.00  0.00    -0.257 N 
HETATM   11  C10 UNL     1      53.568 -11.496  17.436  1.00  0.00     0.171 A 
HETATM   12  N11 UNL     1      54.853 -11.328  17.073  1.00  0.00    -0.173 N 
ATOM     13  H11 UNL     1      55.062 -11.150  16.091  1.00  0.00     0.186 HD
ENDROOT
BRANCH  10  14
HETATM   14  C4  UNL     1      52.359 -11.264  15.331  1.00  0.00     0.187 C 
BRANCH  14  15
HETATM   15  C5  UNL     1      53.279 -12.181  14.536  1.00  0.00     0.183 C 
HETATM   16  O1  UNL     1      53.428 -13.320  15.316  1.00  0.00    -0.341 OA
HETATM   17  C6  UNL     1      53.737 -14.474  14.618  1.00  0.00     0.342 C 
HETATM   18  N10 UNL     1      52.582 -14.839  13.818  1.00  0.00    -0.318 N 
HETATM   19  C8  UNL     1      51.934 -13.745  13.155  1.00  0.00     0.252 C 
ATOM     20  H10 UNL     1      52.256 -15.802  13.733  1.00  0.00     0.166 HD
HETATM   21  O3  UNL     1      50.799 -13.821  12.620  1.00  0.00    -0.270 OA
HETATM   22  C9  UNL     1      52.751 -12.476  13.156  1.00  0.00     0.240 C 
BRANCH  17  23
HETATM   23  N7  UNL     1      54.022 -15.498  15.617  1.00  0.00    -0.084 NA
BRANCH  23  24
HETATM   24  N8  UNL     1      54.953 -14.990  16.516  1.00  0.00    -0.254 N 
HETATM   25  C7  UNL     1      54.899 -15.336  17.887  1.00  0.00     0.344 C 
HETATM   26  N9  UNL     1      55.844 -14.831  18.838  1.00  0.00    -0.039 NA
HETATM   27  O2  UNL     1      53.997 -16.108  18.278  1.00  0.00    -0.250 OA
ATOM     28  H8  UNL     1      55.684 -14.361  16.183  1.00  0.00     0.187 HD
ENDBRANCH  23  24
ENDBRANCH  17  23
BRANCH  22  29
HETATM   29  O4  UNL     1      53.824 -12.753  12.272  1.00  0.00    -0.383 OA
ATOM     30  H4  UNL     1      54.507 -13.232  12.728  1.00  0.00     0.210 HD
ENDBRANCH  22  29
ENDBRANCH  14  15
ENDBRANCH  10  14
BRANCH   4  31
HETATM   31  N3  UNL     1      54.019 -12.024  20.902  1.00  0.00    -0.383 N 
ATOM     32  H32 UNL     1      54.779 -12.263  21.538  1.00  0.00     0.157 HD
ATOM     33  H31 UNL     1      53.068 -11.975  21.270  1.00  0.00     0.157 HD
ENDBRANCH   4  31
BRANCH   1  34
HETATM   34  N1  UNL     1      57.111 -11.218  17.578  1.00  0.00    -0.234 N 
ATOM     35  H12 UNL     1      57.596 -10.330  17.712  1.00  0.00     0.174 HD
ATOM     36  H11 UNL     1      57.643 -11.965  17.131  1.00  0.00     0.174 HD
ENDBRANCH   1  34
TORSDOF 7
ENDMDL
MODEL 5
REMARK VINA RESULT: -6.456701042      1.968      3.934
REMARK  7 active torsions:
REMARK  status: ('A' for Active; 'I' for Inactive)
REMARK    1  A    between atoms: N1_1  and  C1_4 
REMARK    2  A    between atoms: C2_7  and  N3_8 
REMARK    3  A    between atoms: N6_16  and  C4_17 
REMARK    4  A    between atoms: C4_17  and  C5_18 
REMARK    5  A    between atoms: C6_20  and  N7_21 
REMARK    6  A    between atoms: N7_21  and  N8_22 
REMARK       I    between atoms: N8_22  and  C7_24 
REMARK    7  A    between atoms: C9_31  and  O4_32 
ROOT
HETATM    1  C1  UNL     1      54.547 -14.759  13.993  1.00  0.00     0.679 A 
HETATM    2  N2  UNL     1      54.145 -14.056  12.925  1.00  0.00    -0.175 N 
ATOM      3  H2  UNL     1      53.778 -14.568  12.123  1.00  0.00     0.186 HD
HETATM    4  C2  UNL     1      54.196 -12.716  12.850  1.00  0.00     0.147 A 
HETATM    5  C3  UNL     1      54.696 -12.003  13.936  1.00  0.00     0.140 A 
HETATM    6  N4  UNL     1      54.897 -10.725  14.218  1.00  0.00    -0.279 N 
ATOM      7  H4  UNL     1      54.685  -9.946  13.595  1.00  0.00     0.189 HD
HETATM    8  N5  UNL     1      55.409 -10.613  15.423  1.00  0.00    -0.238 N 
ATOM      9  H5  UNL     1      55.655  -9.733  15.876  1.00  0.00     0.208 HD
HETATM   10  N6  UNL     1      55.557 -11.798  15.957  1.00  0.00    -0.257 N 
HETATM   11  C10 UNL     1      55.117 -12.702  15.046  1.00  0.00     0.171 A 
HETATM   12  N11 UNL     1      55.034 -14.045  15.046  1.00  0.00    -0.173 N 
ATOM     13  H11 UNL     1      55.350 -14.551  15.873  1.00  0.00     0.186 HD
ENDROOT
BRANCH  10  14
HETATM   14  C4  UNL     1      56.075 -12.201  17.231  1.00  0.00     0.187 C 
BRANCH  14  15
HETATM   15  C5  UNL     1      55.323 -11.616  18.419  1.00  0.00     0.183 C 
HETATM   16  O1  UNL     1      54.034 -11.380  17.961  1.00  0.00    -0.341 OA
HETATM   17  C6  UNL     1      53.054 -11.380  18.937  1.00  0.00     0.342 C 
HETATM   18  N10 UNL     1      52.921 -12.734  19.444  1.00  0.00    -0.318 N 
HETATM   19  C8  UNL     1      54.160 -13.423  19.663  1.00  0.00     0.252 C 
ATOM     20  H10 UNL     1      52.015 -13.165  19.629  1.00  0.00     0.166 HD
HETATM   21  O3  UNL     1      54.249 -14.660  19.866  1.00  0.00    -0.270 OA
HETATM   22  C9  UNL     1      55.364 -12.513  19.630  1.00  0.00     0.240 C 
BRANCH  17  23
HETATM   23  N7  UNL     1      51.823 -10.946  18.287  1.00  0.00    -0.084 NA
BRANCH  23  24
HETATM   24  N8  UNL     1      51.502 -11.864  17.292  1.00  0.00    -0.254 N 
HETATM   25  C7  UNL     1      51.680 -11.543  15.926  1.00  0.00     0.344 C 
HETATM   26  N9  UNL     1      51.360 -12.465  14.878  1.00  0.00    -0.039 NA
HETATM   27  O2  UNL     1      52.131 -10.416  15.626  1.00  0.00    -0.250 OA
ATOM     28  H8  UNL     1      51.134 -12.780  17.551  1.00  0.00     0.187 HD
ENDBRANCH  23  24
ENDBRANCH  17  23
BRANCH  22  29
HETATM   29  O4  UNL     1      55.249 -11.741  20.813  1.00  0.00    -0.383 OA
ATOM     30  H4  UNL     1      54.333 -11.602  21.025  1.00  0.00     0.210 HD
ENDBRANCH  22  29
ENDBRANCH  14  15
ENDBRANCH  10  14
BRANCH   4  31
HETATM   31  N3  UNL     1      53.809 -12.050  11.826  1.00  0.00    -0.383 N 
ATOM     32  H32 UNL     1      53.324 -12.557  11.086  1.00  0.00     0.157 HD
ATOM     33  H31 UNL     1      53.959 -11.047  11.718  1.00  0.00     0.157 HD
ENDBRANCH   4  31
BRANCH   1  34
HETATM   34  N1  UNL     1      54.479 -16.049  14.024  1.00  0.00    -0.234 N 
ATOM     35  H12 UNL     1      53.589 -16.539  13.928  1.00  0.00     0.174 HD
ATOM     36  H11 UNL     1      55.309 -16.629  14.146  1.00  0.00     0.174 HD
ENDBRANCH   1  34
TORSDOF 7
ENDMDL
