MODEL 1
REMARK VINA RESULT: -1.423526774      0.000      0.000
REMARK  2 active torsions:
REMARK  status: ('A' for Active; 'I' for Inactive)
REMARK    1  A    between atoms: C6_8  and  C7_9 
REMARK    2  A    between atoms: C7_9  and  N3_10 
ROOT
HETATM    1  C1  UNL     1      55.340  91.409   5.822  1.00  0.00     0.155 C 
HETATM    2  N1  UNL     1      54.645  92.126   6.873  1.00  0.00    -0.362 N 
HETATM    3  C2  UNL     1      53.353  91.750   7.163  1.00  0.00     0.090 A 
HETATM    4  C3  UNL     1      52.530  92.507   8.021  1.00  0.00     0.019 A 
HETATM    5  C4  UNL     1      53.031  93.645   8.593  1.00  0.00     0.030 A 
HETATM    6  C5  UNL     1      54.318  93.992   8.288  1.00  0.00     0.070 A 
HETATM    7  N2  UNL     1      54.905  95.167   8.823  1.00  0.00    -0.100 NA
HETATM    8  C6  UNL     1      55.097  93.245   7.444  1.00  0.00     0.060 A 
ENDROOT
BRANCH   8   9
HETATM    9  C7  UNL     1      56.530  93.702   7.191  1.00  0.00     0.288 C 
BRANCH   9  10
HETATM   10  N3  UNL     1      56.272  94.904   6.294  1.00  0.00    -0.074 N 
ATOM     11  H33 UNL     1      55.296  95.190   6.204  1.00  0.00     0.274 HD
ATOM     12  H32 UNL     1      56.587  95.804   6.656  1.00  0.00     0.274 HD
ATOM     13  H31 UNL     1      56.723  94.588   5.436  1.00  0.00     0.274 HD
ENDBRANCH   9  10
ENDBRANCH   8   9
TORSDOF 2
ENDMDL
MODEL 2
REMARK VINA RESULT: -0.916018833      1.006      2.656
REMARK  2 active torsions:
REMARK  status: ('A' for Active; 'I' for Inactive)
REMARK    1  A    between atoms: C6_8  and  C7_9 
REMARK    2  A    between atoms: C7_9  and  N3_10 
ROOT
HETATM    1  C1  UNL     1      54.583  94.903   8.974  1.00  0.00     0.155 C 
HETATM    2  N1  UNL     1      54.236  93.793   8.109  1.00  0.00    -0.362 N 
HETATM    3  C2  UNL     1      53.052  93.134   8.350  1.00  0.00     0.090 A 
HETATM    4  C3  UNL     1      52.722  91.928   7.699  1.00  0.00     0.019 A 
HETATM    5  C4  UNL     1      53.599  91.400   6.790  1.00  0.00     0.030 A 
HETATM    6  C5  UNL     1      54.766  92.079   6.569  1.00  0.00     0.070 A 
HETATM    7  N2  UNL     1      55.736  91.588   5.659  1.00  0.00    -0.100 NA
HETATM    8  C6  UNL     1      55.068  93.245   7.221  1.00  0.00     0.060 A 
ENDROOT
BRANCH   8   9
HETATM    9  C7  UNL     1      56.383  93.940   6.883  1.00  0.00     0.288 C 
BRANCH   9  10
HETATM   10  N3  UNL     1      55.867  95.084   6.022  1.00  0.00    -0.074 N 
ATOM     11  H33 UNL     1      54.996  95.515   6.332  1.00  0.00     0.274 HD
ATOM     12  H32 UNL     1      56.406  95.949   6.063  1.00  0.00     0.274 HD
ATOM     13  H31 UNL     1      55.835  94.623   5.113  1.00  0.00     0.274 HD
ENDBRANCH   9  10
ENDBRANCH   8   9
TORSDOF 2
ENDMDL
MODEL 3
REMARK VINA RESULT: 0.628998574      7.448      9.024
REMARK  2 active torsions:
REMARK  status: ('A' for Active; 'I' for Inactive)
REMARK    1  A    between atoms: C6_8  and  C7_9 
REMARK    2  A    between atoms: C7_9  and  N3_10 
ROOT
HETATM    1  C1  UNL     1      58.467  97.213   3.208  1.00  0.00     0.155 C 
HETATM    2  N1  UNL     1      59.151  98.425   3.611  1.00  0.00    -0.362 N 
HETATM    3  C2  UNL     1      58.528  99.628   3.367  1.00  0.00     0.090 A 
HETATM    4  C3  UNL     1      59.191 100.860   3.537  1.00  0.00     0.019 A 
HETATM    5  C4  UNL     1      60.490 100.865   3.970  1.00  0.00     0.030 A 
HETATM    6  C5  UNL     1      61.081  99.655   4.207  1.00  0.00     0.070 A 
HETATM    7  N2  UNL     1      62.430  99.572   4.636  1.00  0.00    -0.100 NA
HETATM    8  C6  UNL     1      60.420  98.469   4.026  1.00  0.00     0.060 A 
ENDROOT
BRANCH   8   9
HETATM    9  C7  UNL     1      61.159  97.174   4.345  1.00  0.00     0.288 C 
BRANCH   9  10
HETATM   10  N3  UNL     1      61.190  97.252   5.865  1.00  0.00    -0.074 N 
ATOM     11  H33 UNL     1      61.669  96.487   6.340  1.00  0.00     0.274 HD
ATOM     12  H32 UNL     1      61.785  97.980   6.260  1.00  0.00     0.274 HD
ATOM     13  H31 UNL     1      60.192  97.340   6.060  1.00  0.00     0.274 HD
ENDBRANCH   9  10
ENDBRANCH   8   9
TORSDOF 2
ENDMDL
MODEL 4
REMARK VINA RESULT: 0.664030896      7.726      9.075
REMARK  2 active torsions:
REMARK  status: ('A' for Active; 'I' for Inactive)
REMARK    1  A    between atoms: C6_8  and  C7_9 
REMARK    2  A    between atoms: C7_9  and  N3_10 
ROOT
HETATM    1  C1  UNL     1      58.840  97.315   3.030  1.00  0.00     0.155 C 
HETATM    2  N1  UNL     1      60.017  97.728   3.769  1.00  0.00    -0.362 N 
HETATM    3  C2  UNL     1      60.536  96.853   4.697  1.00  0.00     0.090 A 
HETATM    4  C3  UNL     1      61.548  97.236   5.599  1.00  0.00     0.019 A 
HETATM    5  C4  UNL     1      62.041  98.512   5.547  1.00  0.00     0.030 A 
HETATM    6  C5  UNL     1      61.508  99.357   4.613  1.00  0.00     0.070 A 
HETATM    7  N2  UNL     1      61.949 100.701   4.508  1.00  0.00    -0.100 NA
HETATM    8  C6  UNL     1      60.518  98.965   3.752  1.00  0.00     0.060 A 
ENDROOT
BRANCH   8   9
HETATM    9  C7  UNL     1      60.011  99.976   2.727  1.00  0.00     0.288 C 
BRANCH   9  10
HETATM   10  N3  UNL     1      59.182 100.878   3.631  1.00  0.00    -0.074 N 
ATOM     11  H33 UNL     1      59.702 101.394   4.341  1.00  0.00     0.274 HD
ATOM     12  H32 UNL     1      58.795 101.712   3.190  1.00  0.00     0.274 HD
ATOM     13  H31 UNL     1      58.501 100.204   3.980  1.00  0.00     0.274 HD
ENDBRANCH   9  10
ENDBRANCH   8   9
TORSDOF 2
ENDMDL
MODEL 5
REMARK VINA RESULT: 1.065167910      7.947      9.267
REMARK  2 active torsions:
REMARK  status: ('A' for Active; 'I' for Inactive)
REMARK    1  A    between atoms: C6_8  and  C7_9 
REMARK    2  A    between atoms: C7_9  and  N3_10 
ROOT
HETATM    1  C1  UNL     1      59.911  96.918   3.548  1.00  0.00     0.155 C 
HETATM    2  N1  UNL     1      59.829  98.346   3.780  1.00  0.00    -0.362 N 
HETATM    3  C2  UNL     1      58.633  98.974   3.513  1.00  0.00     0.090 A 
HETATM    4  C3  UNL     1      58.511 100.378   3.515  1.00  0.00     0.019 A 
HETATM    5  C4  UNL     1      59.610 101.143   3.802  1.00  0.00     0.030 A 
HETATM    6  C5  UNL     1      60.782 100.491   4.066  1.00  0.00     0.070 A 
HETATM    7  N2  UNL     1      61.970 101.210   4.352  1.00  0.00    -0.100 NA
HETATM    8  C6  UNL     1      60.879  99.124   4.050  1.00  0.00     0.060 A 
ENDROOT
BRANCH   8   9
HETATM    9  C7  UNL     1      62.226  98.493   4.386  1.00  0.00     0.288 C 
BRANCH   9  10
HETATM   10  N3  UNL     1      61.952  98.022   5.807  1.00  0.00    -0.074 N 
ATOM     11  H33 UNL     1      62.701  97.490   6.251  1.00  0.00     0.274 HD
ATOM     12  H32 UNL     1      61.936  98.751   6.521  1.00  0.00     0.274 HD
ATOM     13  H31 UNL     1      61.076  97.521   5.664  1.00  0.00     0.274 HD
ENDBRANCH   9  10
ENDBRANCH   8   9
TORSDOF 2
ENDMDL
