MODEL 1
REMARK VINA RESULT: -2.988036665      0.000      0.000
REMARK  2 active torsions:
REMARK  status: ('A' for Active; 'I' for Inactive)
REMARK    1  A    between atoms: N1_3  and  N2_5 
REMARK    2  A    between atoms: N2_5  and  C4_7 
ROOT
HETATM    1  C1  UNL     1      52.403  92.569   7.998  1.00  0.00     0.038 C 
HETATM    2  C2  UNL     1      53.400  92.396   7.333  1.00  0.00     0.017 C 
HETATM    3  N1  UNL     1      54.567  92.182   6.570  1.00  0.00    -0.253 N 
HETATM    4  C3  UNL     1      54.851  90.865   6.018  1.00  0.00     0.189 C 
ENDROOT
BRANCH   3   5
HETATM    5  N2  UNL     1      55.482  93.199   6.318  1.00  0.00    -0.269 N 
ATOM      6  H2  UNL     1      56.231  93.074   5.637  1.00  0.00     0.190 HD
BRANCH   5   7
HETATM    7  C4  UNL     1      55.343  94.412   7.034  1.00  0.00     0.200 C 
HETATM    8  N3  UNL     1      54.899  95.537   6.304  1.00  0.00    -0.068 NA
HETATM    9  S1  UNL     1      55.686  94.465   8.612  1.00  0.00    -0.043 SA
ENDBRANCH   5   7
ENDBRANCH   3   5
TORSDOF 2
ENDMDL
MODEL 2
REMARK VINA RESULT: -2.958432539      1.456      1.456
REMARK  2 active torsions:
REMARK  status: ('A' for Active; 'I' for Inactive)
REMARK    1  A    between atoms: N1_3  and  N2_5 
REMARK    2  A    between atoms: N2_5  and  C4_7 
ROOT
HETATM    1  C1  UNL     1      52.057  92.181   7.929  1.00  0.00     0.038 C 
HETATM    2  C2  UNL     1      53.226  92.187   7.611  1.00  0.00     0.017 C 
HETATM    3  N1  UNL     1      54.588  92.176   7.243  1.00  0.00    -0.253 N 
HETATM    4  C3  UNL     1      55.049  91.320   6.160  1.00  0.00     0.189 C 
ENDROOT
BRANCH   3   5
HETATM    5  N2  UNL     1      55.534  92.967   7.888  1.00  0.00    -0.269 N 
ATOM      6  H2  UNL     1      56.244  92.550   8.490  1.00  0.00     0.190 HD
BRANCH   5   7
HETATM    7  C4  UNL     1      55.481  94.366   7.685  1.00  0.00     0.200 C 
HETATM    8  N3  UNL     1      55.331  95.173   8.835  1.00  0.00    -0.068 NA
HETATM    9  S1  UNL     1      55.592  94.973   6.191  1.00  0.00    -0.043 SA
ENDBRANCH   5   7
ENDBRANCH   3   5
TORSDOF 2
ENDMDL
MODEL 3
REMARK VINA RESULT: -2.352969289      1.705      2.526
REMARK  2 active torsions:
REMARK  status: ('A' for Active; 'I' for Inactive)
REMARK    1  A    between atoms: N1_3  and  N2_5 
REMARK    2  A    between atoms: N2_5  and  C4_7 
ROOT
HETATM    1  C1  UNL     1      54.849  91.021   6.019  1.00  0.00     0.038 C 
HETATM    2  C2  UNL     1      54.302  91.774   6.795  1.00  0.00     0.017 C 
HETATM    3  N1  UNL     1      53.653  92.654   7.685  1.00  0.00    -0.253 N 
HETATM    4  C3  UNL     1      52.240  92.478   7.991  1.00  0.00     0.189 C 
ENDROOT
BRANCH   3   5
HETATM    5  N2  UNL     1      54.320  93.710   8.298  1.00  0.00    -0.269 N 
ATOM      6  H2  UNL     1      53.981  94.107   9.174  1.00  0.00     0.190 HD
BRANCH   5   7
HETATM    7  C4  UNL     1      55.483  94.216   7.670  1.00  0.00     0.200 C 
HETATM    8  N3  UNL     1      56.720  93.923   8.286  1.00  0.00    -0.068 NA
HETATM    9  S1  UNL     1      55.358  95.084   6.313  1.00  0.00    -0.043 SA
ENDBRANCH   5   7
ENDBRANCH   3   5
TORSDOF 2
ENDMDL
MODEL 4
REMARK VINA RESULT: -2.237870808      1.211      2.158
REMARK  2 active torsions:
REMARK  status: ('A' for Active; 'I' for Inactive)
REMARK    1  A    between atoms: N1_3  and  N2_5 
REMARK    2  A    between atoms: N2_5  and  C4_7 
ROOT
HETATM    1  C1  UNL     1      54.911  91.104   6.046  1.00  0.00     0.038 C 
HETATM    2  C2  UNL     1      54.349  91.869   6.799  1.00  0.00     0.017 C 
HETATM    3  N1  UNL     1      53.682  92.762   7.663  1.00  0.00    -0.253 N 
HETATM    4  C3  UNL     1      52.282  92.549   8.001  1.00  0.00     0.189 C 
ENDROOT
BRANCH   3   5
HETATM    5  N2  UNL     1      54.319  93.867   8.219  1.00  0.00    -0.269 N 
ATOM      6  H2  UNL     1      54.066  94.207   9.146  1.00  0.00     0.190 HD
BRANCH   5   7
HETATM    7  C4  UNL     1      55.330  94.504   7.460  1.00  0.00     0.200 C 
HETATM    8  N3  UNL     1      54.903  95.393   6.448  1.00  0.00    -0.068 NA
HETATM    9  S1  UNL     1      56.887  94.201   7.767  1.00  0.00    -0.043 SA
ENDBRANCH   5   7
ENDBRANCH   3   5
TORSDOF 2
ENDMDL
MODEL 5
REMARK VINA RESULT: -1.631874934      7.700      8.592
REMARK  2 active torsions:
REMARK  status: ('A' for Active; 'I' for Inactive)
REMARK    1  A    between atoms: N1_3  and  N2_5 
REMARK    2  A    between atoms: N2_5  and  C4_7 
ROOT
HETATM    1  C1  UNL     1      61.368  96.893   5.977  1.00  0.00     0.038 C 
HETATM    2  C2  UNL     1      60.823  97.213   4.943  1.00  0.00     0.017 C 
HETATM    3  N1  UNL     1      60.194  97.570   3.732  1.00  0.00    -0.253 N 
HETATM    4  C3  UNL     1      59.156  96.719   3.167  1.00  0.00     0.189 C 
ENDROOT
BRANCH   3   5
HETATM    5  N2  UNL     1      60.531  98.726   3.037  1.00  0.00    -0.269 N 
ATOM      6  H2  UNL     1      61.004  98.677   2.135  1.00  0.00     0.190 HD
BRANCH   5   7
HETATM    7  C4  UNL     1      60.197  99.973   3.618  1.00  0.00     0.200 C 
HETATM    8  N3  UNL     1      61.270 100.783   4.051  1.00  0.00    -0.068 NA
HETATM    9  S1  UNL     1      58.648 100.411   3.761  1.00  0.00    -0.043 SA
ENDBRANCH   5   7
ENDBRANCH   3   5
TORSDOF 2
ENDMDL
