MODEL 1
REMARK VINA RESULT: -4.738823926      0.000      0.000
REMARK  5 active torsions:
REMARK  status: ('A' for Active; 'I' for Inactive)
REMARK    1  A    between atoms: N1_2  and  S1_3 
REMARK    2  A    between atoms: S1_3  and  N2_4 
REMARK    3  A    between atoms: S1_3  and  N3_7 
REMARK    4  A    between atoms: N3_7  and  O1_8 
REMARK    5  A    between atoms: N4_10  and  O2_12 
ROOT
HETATM    1  N3  UNL     1      55.035  93.695   7.098  1.00  0.00    -0.090 N 
HETATM    2  N4  UNL     1      54.898  94.041   8.313  1.00  0.00    -0.175 N 
ATOM      3  H4  UNL     1      54.401  93.413   8.945  1.00  0.00     0.219 HD
ENDROOT
BRANCH   1   4
HETATM    4  S1  UNL     1      54.373  92.204   6.635  1.00  0.00     0.108 SA
BRANCH   4   5
HETATM    5  N1  UNL     1      53.535  91.543   7.795  1.00  0.00    -0.154 NA
HETATM    6  C1  UNL     1      52.227  92.148   7.926  1.00  0.00     0.148 C 
ENDBRANCH   4   5
BRANCH   4   7
HETATM    7  N2  UNL     1      55.417  91.133   6.254  1.00  0.00    -0.351 NA
ATOM      8  H22 UNL     1      55.130  90.175   6.454  1.00  0.00     0.166 HD
ATOM      9  H21 UNL     1      55.584  91.283   5.260  1.00  0.00     0.166 HD
ENDBRANCH   4   7
ENDBRANCH   1   4
BRANCH   1  10
HETATM   10  O1  UNL     1      55.685  94.465   6.164  1.00  0.00    -0.259 OA
ATOM     11  H1  UNL     1      56.407  94.093   5.673  1.00  0.00     0.247 HD
ENDBRANCH   1  10
BRANCH   2  12
HETATM   12  O2  UNL     1      55.387  95.221   8.810  1.00  0.00    -0.272 OA
ATOM     13  H2  UNL     1      54.829  95.955   9.039  1.00  0.00     0.246 HD
ENDBRANCH   2  12
TORSDOF 5
ENDMDL
MODEL 2
REMARK VINA RESULT: -4.631916631      1.851      2.224
REMARK  5 active torsions:
REMARK  status: ('A' for Active; 'I' for Inactive)
REMARK    1  A    between atoms: N1_2  and  S1_3 
REMARK    2  A    between atoms: S1_3  and  N2_4 
REMARK    3  A    between atoms: S1_3  and  N3_7 
REMARK    4  A    between atoms: N3_7  and  O1_8 
REMARK    5  A    between atoms: N4_10  and  O2_12 
ROOT
HETATM    1  N3  UNL     1      55.146  94.178   7.447  1.00  0.00    -0.090 N 
HETATM    2  N4  UNL     1      56.265  93.787   7.906  1.00  0.00    -0.175 N 
ATOM      3  H4  UNL     1      56.276  93.004   8.560  1.00  0.00     0.219 HD
ENDROOT
BRANCH   1   4
HETATM    4  S1  UNL     1      53.760  93.354   7.970  1.00  0.00     0.108 SA
BRANCH   4   5
HETATM    5  N1  UNL     1      53.812  91.820   7.607  1.00  0.00    -0.154 NA
HETATM    6  C1  UNL     1      54.612  91.575   6.426  1.00  0.00     0.148 C 
ENDBRANCH   4   5
BRANCH   4   7
HETATM    7  N2  UNL     1      52.444  93.854   7.337  1.00  0.00    -0.351 NA
ATOM      8  H22 UNL     1      51.882  93.124   6.899  1.00  0.00     0.166 HD
ATOM      9  H21 UNL     1      51.949  94.308   8.105  1.00  0.00     0.166 HD
ENDBRANCH   4   7
ENDBRANCH   1   4
BRANCH   1  10
HETATM   10  O1  UNL     1      55.019  95.223   6.562  1.00  0.00    -0.259 OA
ATOM     11  H1  UNL     1      54.797  95.043   5.657  1.00  0.00     0.247 HD
ENDBRANCH   1  10
BRANCH   2  12
HETATM   12  O2  UNL     1      57.455  94.371   7.561  1.00  0.00    -0.272 OA
ATOM     13  H2  UNL     1      58.199  93.874   7.240  1.00  0.00     0.246 HD
ENDBRANCH   2  12
TORSDOF 5
ENDMDL
MODEL 3
REMARK VINA RESULT: -4.595667334      2.867      3.805
REMARK  5 active torsions:
REMARK  status: ('A' for Active; 'I' for Inactive)
REMARK    1  A    between atoms: N1_2  and  S1_3 
REMARK    2  A    between atoms: S1_3  and  N2_4 
REMARK    3  A    between atoms: S1_3  and  N3_7 
REMARK    4  A    between atoms: N3_7  and  O1_8 
REMARK    5  A    between atoms: N4_10  and  O2_12 
ROOT
HETATM    1  N3  UNL     1      54.021  92.044   7.003  1.00  0.00    -0.090 N 
HETATM    2  N4  UNL     1      55.019  91.796   6.258  1.00  0.00    -0.175 N 
ATOM      3  H4  UNL     1      55.542  92.580   5.866  1.00  0.00     0.219 HD
ENDROOT
BRANCH   1   4
HETATM    4  S1  UNL     1      53.644  93.673   7.283  1.00  0.00     0.108 SA
BRANCH   4   5
HETATM    5  N1  UNL     1      54.875  94.620   7.010  1.00  0.00    -0.154 NA
HETATM    6  C1  UNL     1      55.820  94.602   8.106  1.00  0.00     0.148 C 
ENDBRANCH   4   5
BRANCH   4   7
HETATM    7  N2  UNL     1      53.229  93.991   8.735  1.00  0.00    -0.351 NA
ATOM      8  H22 UNL     1      53.929  94.504   9.271  1.00  0.00     0.166 HD
ATOM      9  H21 UNL     1      52.359  94.516   8.642  1.00  0.00     0.166 HD
ENDBRANCH   4   7
ENDBRANCH   1   4
BRANCH   1  10
HETATM   10  O1  UNL     1      53.249  91.063   7.580  1.00  0.00    -0.259 OA
ATOM     11  H1  UNL     1      53.629  90.499   8.242  1.00  0.00     0.247 HD
ENDBRANCH   1  10
BRANCH   2  12
HETATM   12  O2  UNL     1      55.425  90.522   5.956  1.00  0.00    -0.272 OA
ATOM     13  H2  UNL     1      56.186  90.337   5.418  1.00  0.00     0.246 HD
ENDBRANCH   2  12
TORSDOF 5
ENDMDL
MODEL 4
REMARK VINA RESULT: -4.417938873      1.025      1.081
REMARK  5 active torsions:
REMARK  status: ('A' for Active; 'I' for Inactive)
REMARK    1  A    between atoms: N1_2  and  S1_3 
REMARK    2  A    between atoms: S1_3  and  N2_4 
REMARK    3  A    between atoms: S1_3  and  N3_7 
REMARK    4  A    between atoms: N3_7  and  O1_8 
REMARK    5  A    between atoms: N4_10  and  O2_12 
ROOT
HETATM    1  N3  UNL     1      55.187  93.628   6.931  1.00  0.00    -0.090 N 
HETATM    2  N4  UNL     1      56.343  93.524   7.448  1.00  0.00    -0.175 N 
ATOM      3  H4  UNL     1      56.726  92.591   7.602  1.00  0.00     0.219 HD
ENDROOT
BRANCH   1   4
HETATM    4  S1  UNL     1      54.378  92.190   6.538  1.00  0.00     0.108 SA
BRANCH   4   5
HETATM    5  N1  UNL     1      53.496  91.662   7.733  1.00  0.00    -0.154 NA
HETATM    6  C1  UNL     1      52.396  92.558   8.025  1.00  0.00     0.148 C 
ENDBRANCH   4   5
BRANCH   4   7
HETATM    7  N2  UNL     1      55.309  91.008   6.195  1.00  0.00    -0.351 NA
ATOM      8  H22 UNL     1      55.917  90.715   6.960  1.00  0.00     0.166 HD
ATOM      9  H21 UNL     1      54.677  90.263   5.902  1.00  0.00     0.166 HD
ENDBRANCH   4   7
ENDBRANCH   1   4
BRANCH   1  10
HETATM   10  O1  UNL     1      54.578  94.835   6.683  1.00  0.00    -0.259 OA
ATOM     11  H1  UNL     1      53.631  94.882   6.647  1.00  0.00     0.247 HD
ENDBRANCH   1  10
BRANCH   2  12
HETATM   12  O2  UNL     1      57.096  94.610   7.809  1.00  0.00    -0.272 OA
ATOM     13  H2  UNL     1      57.999  94.538   8.097  1.00  0.00     0.246 HD
ENDBRANCH   2  12
TORSDOF 5
ENDMDL
MODEL 5
REMARK VINA RESULT: -4.400124845      2.950      3.787
REMARK  5 active torsions:
REMARK  status: ('A' for Active; 'I' for Inactive)
REMARK    1  A    between atoms: N1_2  and  S1_3 
REMARK    2  A    between atoms: S1_3  and  N2_4 
REMARK    3  A    between atoms: S1_3  and  N3_7 
REMARK    4  A    between atoms: N3_7  and  O1_8 
REMARK    5  A    between atoms: N4_10  and  O2_12 
ROOT
HETATM    1  N3  UNL     1      54.512  92.307   7.320  1.00  0.00    -0.090 N 
HETATM    2  N4  UNL     1      55.264  91.822   6.418  1.00  0.00    -0.175 N 
ATOM      3  H4  UNL     1      56.065  92.371   6.104  1.00  0.00     0.219 HD
ENDROOT
BRANCH   1   4
HETATM    4  S1  UNL     1      54.913  93.838   7.927  1.00  0.00     0.108 SA
BRANCH   4   5
HETATM    5  N1  UNL     1      54.698  94.974   6.855  1.00  0.00    -0.154 NA
HETATM    6  C1  UNL     1      55.836  95.097   5.968  1.00  0.00     0.148 C 
ENDBRANCH   4   5
BRANCH   4   7
HETATM    7  N2  UNL     1      56.388  93.988   8.356  1.00  0.00    -0.351 NA
ATOM      8  H22 UNL     1      56.891  93.105   8.454  1.00  0.00     0.166 HD
ATOM      9  H21 UNL     1      56.802  94.585   7.641  1.00  0.00     0.166 HD
ENDBRANCH   4   7
ENDBRANCH   1   4
BRANCH   1  10
HETATM   10  O1  UNL     1      53.409  91.652   7.813  1.00  0.00    -0.259 OA
ATOM     11  H1  UNL     1      52.542  91.932   7.547  1.00  0.00     0.247 HD
ENDBRANCH   1  10
BRANCH   2  12
HETATM   12  O2  UNL     1      55.046  90.595   5.848  1.00  0.00    -0.272 OA
ATOM     13  H2  UNL     1      55.752  90.011   5.597  1.00  0.00     0.246 HD
ENDBRANCH   2  12
TORSDOF 5
ENDMDL
