MODEL 1
REMARK VINA RESULT: -8.686207235      0.000      0.000
REMARK  3 active torsions:
REMARK  status: ('A' for Active; 'I' for Inactive)
REMARK    1  A    between atoms: C12_28  and  C13_29 
REMARK    2  A    between atoms: C13_29  and  O5_30 
REMARK    3  A    between atoms: C14_34  and  O6_35 
ROOT
HETATM    1  C1  UNL     1       2.873  -5.074   4.824  1.00  0.00     0.047 C 
HETATM    2  C2  UNL     1       3.014  -3.560   5.051  1.00  0.00     0.132 C 
HETATM    3  C3  UNL     1       1.685  -3.090   5.581  1.00  0.00     0.047 C 
HETATM    4  C4  UNL     1       4.084  -3.403   6.109  1.00  0.00     0.124 C 
HETATM    5  S1  UNL     1       4.081  -4.895   7.176  1.00  0.00    -0.095 SA
HETATM    6  S2  UNL     1       5.755  -6.135   6.737  1.00  0.00    -0.096 SA
HETATM    7  C5  UNL     1       6.735  -6.415   8.230  1.00  0.00     0.105 C 
HETATM    8  C6  UNL     1       8.181  -6.030   8.035  1.00  0.00     0.134 C 
HETATM    9  N1  UNL     1       8.811  -6.957   7.107  1.00  0.00    -0.355 N 
ATOM     10  H1  UNL     1       8.637  -7.956   7.220  1.00  0.00     0.163 HD
HETATM   11  C7  UNL     1       9.568  -6.573   6.163  1.00  0.00     0.227 A 
HETATM   12  N2  UNL     1       9.852  -5.191   5.951  1.00  0.00    -0.320 N 
ATOM     13  H2  UNL     1       9.490  -4.421   6.511  1.00  0.00     0.169 HD
HETATM   14  C8  UNL     1      10.639  -5.072   4.938  1.00  0.00     0.098 A 
HETATM   15  C9  UNL     1      11.068  -3.709   4.535  1.00  0.00     0.147 C 
HETATM   16  S3  UNL     1       9.626  -2.879   3.794  1.00  0.00    -0.062 SA
HETATM   17  C10 UNL     1      10.172  -1.332   3.075  1.00  0.00     0.294 C 
HETATM   18  O1  UNL     1      11.234  -0.794   3.538  1.00  0.00    -0.259 OA
HETATM   19  N3  UNL     1       9.466  -0.690   2.015  1.00  0.00    -0.228 N 
ATOM     20  H3  UNL     1      10.010  -0.246   1.276  1.00  0.00     0.184 HD
HETATM   21  S4  UNL     1       7.764  -0.623   1.910  1.00  0.00     0.328 S 
HETATM   22  O2  UNL     1       7.367  -0.219   0.519  1.00  0.00    -0.182 OA
HETATM   23  O3  UNL     1       7.232  -2.009   2.147  1.00  0.00    -0.182 OA
HETATM   24  N4  UNL     1       7.101   0.423   3.106  1.00  0.00    -0.235 N 
ATOM     25  H4  UNL     1       7.728   1.039   3.625  1.00  0.00     0.183 HD
HETATM   26  C11 UNL     1       5.711   0.457   3.397  1.00  0.00     0.257 C 
HETATM   27  O4  UNL     1       5.388   0.776   4.567  1.00  0.00    -0.270 OA
HETATM   28  C12 UNL     1       4.633   0.150   2.439  1.00  0.00     0.197 C 
HETATM   29  N5  UNL     1       4.067  -1.146   2.560  1.00  0.00    -0.360 N 
ATOM     30  H5  UNL     1       3.837  -1.710   1.741  1.00  0.00     0.158 HD
HETATM   31  C14 UNL     1       3.837  -1.617   3.884  1.00  0.00     0.423 C 
HETATM   32  N6  UNL     1       3.367  -2.985   3.798  1.00  0.00    -0.022 N 
ATOM     33  H61 UNL     1       2.588  -3.054   3.141  1.00  0.00     0.283 HD
ATOM     34  H62 UNL     1       4.051  -3.568   3.317  1.00  0.00     0.283 HD
HETATM   35  C15 UNL     1      10.938  -6.393   4.396  1.00  0.00     0.314 A 
HETATM   36  O7  UNL     1      11.682  -6.627   3.399  1.00  0.00    -0.257 OA
HETATM   37  O8  UNL     1      10.254  -7.297   5.186  1.00  0.00    -0.241 OA
ENDROOT
BRANCH  28  38
HETATM   38  C13 UNL     1       3.577   1.252   2.415  1.00  0.00     0.198 C 
BRANCH  38  39
HETATM   39  O5  UNL     1       4.086   2.451   2.875  1.00  0.00    -0.398 OA
ATOM     40  H5  UNL     1       3.444   2.927   3.390  1.00  0.00     0.209 HD
ENDBRANCH  38  39
ENDBRANCH  28  38
BRANCH  31  41
HETATM   41  O6  UNL     1       2.843  -0.890   4.538  1.00  0.00    -0.355 OA
ATOM     42  H6  UNL     1       3.191  -0.361   5.246  1.00  0.00     0.213 HD
ENDBRANCH  31  41
TORSDOF 3
ENDMDL
MODEL 2
REMARK VINA RESULT: -8.441043212      1.693      1.803
REMARK  3 active torsions:
REMARK  status: ('A' for Active; 'I' for Inactive)
REMARK    1  A    between atoms: C12_28  and  C13_29 
REMARK    2  A    between atoms: C13_29  and  O5_30 
REMARK    3  A    between atoms: C14_34  and  O6_35 
ROOT
HETATM    1  C1  UNL     1       3.277  -3.463   4.490  1.00  0.00     0.047 C 
HETATM    2  C2  UNL     1       3.574  -2.118   5.171  1.00  0.00     0.132 C 
HETATM    3  C3  UNL     1       2.257  -1.622   5.710  1.00  0.00     0.047 C 
HETATM    4  C4  UNL     1       4.518  -2.435   6.310  1.00  0.00     0.124 C 
HETATM    5  S1  UNL     1       4.203  -4.152   6.875  1.00  0.00    -0.095 SA
HETATM    6  S2  UNL     1       5.753  -5.455   6.219  1.00  0.00    -0.096 SA
HETATM    7  C5  UNL     1       6.502  -6.297   7.633  1.00  0.00     0.105 C 
HETATM    8  C6  UNL     1       7.998  -6.097   7.680  1.00  0.00     0.134 C 
HETATM    9  N1  UNL     1       8.618  -6.805   6.570  1.00  0.00    -0.355 N 
ATOM     10  H1  UNL     1       8.311  -7.756   6.362  1.00  0.00     0.163 HD
HETATM   11  C7  UNL     1       9.526  -6.287   5.849  1.00  0.00     0.227 A 
HETATM   12  N2  UNL     1      10.000  -4.963   6.085  1.00  0.00    -0.320 N 
ATOM     13  H2  UNL     1       9.669  -4.339   6.821  1.00  0.00     0.169 HD
HETATM   14  C8  UNL     1      10.914  -4.680   5.222  1.00  0.00     0.098 A 
HETATM   15  C9  UNL     1      11.551  -3.341   5.283  1.00  0.00     0.147 C 
HETATM   16  S3  UNL     1      10.322  -2.123   4.713  1.00  0.00    -0.062 SA
HETATM   17  C10 UNL     1      11.137  -0.537   4.538  1.00  0.00     0.294 C 
HETATM   18  O1  UNL     1      12.193  -0.323   5.225  1.00  0.00    -0.259 OA
HETATM   19  N3  UNL     1      10.649   0.481   3.667  1.00  0.00    -0.228 N 
ATOM     20  H3  UNL     1      11.330   1.029   3.142  1.00  0.00     0.184 HD
HETATM   21  S4  UNL     1       8.994   0.835   3.451  1.00  0.00     0.328 S 
HETATM   22  O2  UNL     1       8.822   1.675   2.219  1.00  0.00    -0.182 OA
HETATM   23  O3  UNL     1       8.272  -0.463   3.217  1.00  0.00    -0.182 OA
HETATM   24  N4  UNL     1       8.323   1.582   4.850  1.00  0.00    -0.235 N 
ATOM     25  H4  UNL     1       8.952   1.920   5.578  1.00  0.00     0.183 HD
HETATM   26  C11 UNL     1       6.922   1.744   5.024  1.00  0.00     0.257 C 
HETATM   27  O4  UNL     1       6.501   1.760   6.207  1.00  0.00    -0.270 OA
HETATM   28  C12 UNL     1       5.940   1.892   3.935  1.00  0.00     0.197 C 
HETATM   29  N5  UNL     1       5.209   0.719   3.615  1.00  0.00    -0.360 N 
ATOM     30  H5  UNL     1       5.013   0.455   2.649  1.00  0.00     0.158 HD
HETATM   31  C14 UNL     1       4.764  -0.071   4.713  1.00  0.00     0.423 C 
HETATM   32  N6  UNL     1       4.144  -1.268   4.182  1.00  0.00    -0.022 N 
ATOM     33  H61 UNL     1       3.449  -1.027   3.475  1.00  0.00     0.283 HD
ATOM     34  H62 UNL     1       4.806  -1.787   3.605  1.00  0.00     0.283 HD
HETATM   35  C15 UNL     1      11.113  -5.820   4.334  1.00  0.00     0.314 A 
HETATM   36  O7  UNL     1      11.938  -5.869   3.375  1.00  0.00    -0.257 OA
HETATM   37  O8  UNL     1      10.232  -6.797   4.757  1.00  0.00    -0.241 OA
ENDROOT
BRANCH  28  38
HETATM   38  C13 UNL     1       5.037   3.103   4.159  1.00  0.00     0.198 C 
BRANCH  38  39
HETATM   39  O5  UNL     1       5.719   4.136   4.772  1.00  0.00    -0.398 OA
ATOM     40  H5  UNL     1       5.128   4.827   5.050  1.00  0.00     0.209 HD
ENDBRANCH  38  39
ENDBRANCH  28  38
BRANCH  31  41
HETATM   41  O6  UNL     1       3.794   0.581   5.473  1.00  0.00    -0.355 OA
ATOM     42  H6  UNL     1       2.913   0.313   5.239  1.00  0.00     0.213 HD
ENDBRANCH  31  41
TORSDOF 3
ENDMDL
MODEL 3
REMARK VINA RESULT: -8.203164550      2.624      3.815
REMARK  3 active torsions:
REMARK  status: ('A' for Active; 'I' for Inactive)
REMARK    1  A    between atoms: C12_28  and  C13_29 
REMARK    2  A    between atoms: C13_29  and  O5_30 
REMARK    3  A    between atoms: C14_34  and  O6_35 
ROOT
HETATM    1  C1  UNL     1       3.960  -1.237   2.634  1.00  0.00     0.047 C 
HETATM    2  C2  UNL     1       4.478  -0.122   3.557  1.00  0.00     0.132 C 
HETATM    3  C3  UNL     1       3.440   0.970   3.518  1.00  0.00     0.047 C 
HETATM    4  C4  UNL     1       4.543  -0.732   4.940  1.00  0.00     0.124 C 
HETATM    5  S1  UNL     1       3.275  -2.054   5.060  1.00  0.00    -0.095 SA
HETATM    6  S2  UNL     1       4.187  -3.976   4.986  1.00  0.00    -0.096 SA
HETATM    7  C5  UNL     1       3.742  -4.936   6.453  1.00  0.00     0.105 C 
HETATM    8  C6  UNL     1       4.961  -5.441   7.187  1.00  0.00     0.134 C 
HETATM    9  N1  UNL     1       5.629  -6.452   6.381  1.00  0.00    -0.355 N 
ATOM     10  H1  UNL     1       5.063  -7.171   5.928  1.00  0.00     0.163 HD
HETATM   11  C7  UNL     1       6.888  -6.476   6.219  1.00  0.00     0.227 A 
HETATM   12  N2  UNL     1       7.736  -5.502   6.823  1.00  0.00    -0.320 N 
ATOM     13  H2  UNL     1       7.424  -4.732   7.414  1.00  0.00     0.169 HD
HETATM   14  C8  UNL     1       8.960  -5.749   6.505  1.00  0.00     0.098 A 
HETATM   15  C9  UNL     1      10.020  -4.852   7.029  1.00  0.00     0.147 C 
HETATM   16  S3  UNL     1       9.878  -3.264   6.148  1.00  0.00    -0.062 SA
HETATM   17  C10 UNL     1      11.293  -2.252   6.577  1.00  0.00     0.294 C 
HETATM   18  O1  UNL     1      11.887  -2.484   7.684  1.00  0.00    -0.259 OA
HETATM   19  N3  UNL     1      11.769  -1.207   5.732  1.00  0.00    -0.228 N 
ATOM     20  H3  UNL     1      12.778  -1.082   5.646  1.00  0.00     0.184 HD
HETATM   21  S4  UNL     1      10.752  -0.155   4.855  1.00  0.00     0.328 S 
HETATM   22  O2  UNL     1      11.558   0.555   3.805  1.00  0.00    -0.182 OA
HETATM   23  O3  UNL     1       9.724  -0.992   4.146  1.00  0.00    -0.182 OA
HETATM   24  N4  UNL     1       9.931   0.941   5.898  1.00  0.00    -0.235 N 
ATOM     25  H4  UNL     1      10.234   1.017   6.869  1.00  0.00     0.183 HD
HETATM   26  C11 UNL     1       8.845   1.742   5.453  1.00  0.00     0.257 C 
HETATM   27  O4  UNL     1       7.988   2.057   6.315  1.00  0.00    -0.270 OA
HETATM   28  C12 UNL     1       8.653   2.225   4.074  1.00  0.00     0.197 C 
HETATM   29  N5  UNL     1       7.713   1.494   3.302  1.00  0.00    -0.360 N 
ATOM     30  H5  UNL     1       7.886   1.262   2.323  1.00  0.00     0.158 HD
HETATM   31  C14 UNL     1       6.516   1.100   3.965  1.00  0.00     0.423 C 
HETATM   32  N6  UNL     1       5.747   0.277   3.053  1.00  0.00    -0.022 N 
ATOM     33  H61 UNL     1       5.643   0.745   2.152  1.00  0.00     0.283 HD
ATOM     34  H62 UNL     1       6.289  -0.537   2.764  1.00  0.00     0.283 HD
HETATM   35  C15 UNL     1       9.010  -6.929   5.648  1.00  0.00     0.314 A 
HETATM   36  O7  UNL     1      10.061  -7.438   5.160  1.00  0.00    -0.257 OA
HETATM   37  O8  UNL     1       7.702  -7.350   5.495  1.00  0.00    -0.241 OA
ENDROOT
BRANCH  28  38
HETATM   38  C13 UNL     1       8.396   3.729   4.039  1.00  0.00     0.198 C 
BRANCH  38  39
HETATM   39  O5  UNL     1       7.488   4.110   5.007  1.00  0.00    -0.398 OA
ATOM     40  H5  UNL     1       7.696   4.967   5.363  1.00  0.00     0.209 HD
ENDBRANCH  38  39
ENDBRANCH  28  38
BRANCH  31  41
HETATM   41  O6  UNL     1       5.713   2.190   4.298  1.00  0.00    -0.355 OA
ATOM     42  H6  UNL     1       5.152   2.010   5.044  1.00  0.00     0.213 HD
ENDBRANCH  31  41
TORSDOF 3
ENDMDL
MODEL 4
REMARK VINA RESULT: -8.188804407      2.751      7.621
REMARK  3 active torsions:
REMARK  status: ('A' for Active; 'I' for Inactive)
REMARK    1  A    between atoms: C12_28  and  C13_29 
REMARK    2  A    between atoms: C13_29  and  O5_30 
REMARK    3  A    between atoms: C14_34  and  O6_35 
ROOT
HETATM    1  C1  UNL     1      11.120  -6.431   5.837  1.00  0.00     0.047 C 
HETATM    2  C2  UNL     1      10.076  -6.230   6.947  1.00  0.00     0.132 C 
HETATM    3  C3  UNL     1      10.622  -6.927   8.166  1.00  0.00     0.047 C 
HETATM    4  C4  UNL     1      10.012  -4.737   7.184  1.00  0.00     0.124 C 
HETATM    5  S1  UNL     1      11.642  -4.004   6.766  1.00  0.00    -0.095 SA
HETATM    6  S2  UNL     1      11.541  -2.957   4.915  1.00  0.00    -0.096 SA
HETATM    7  C5  UNL     1      12.058  -1.239   5.139  1.00  0.00     0.105 C 
HETATM    8  C6  UNL     1      11.012  -0.267   4.650  1.00  0.00     0.134 C 
HETATM    9  N1  UNL     1      10.916  -0.345   3.200  1.00  0.00    -0.355 N 
ATOM     10  H1  UNL     1      11.777  -0.372   2.652  1.00  0.00     0.163 HD
HETATM   11  C7  UNL     1       9.803  -0.382   2.589  1.00  0.00     0.227 A 
HETATM   12  N2  UNL     1       8.564  -0.348   3.293  1.00  0.00    -0.320 N 
ATOM     13  H2  UNL     1       8.462  -0.295   4.306  1.00  0.00     0.169 HD
HETATM   14  C8  UNL     1       7.594  -0.396   2.447  1.00  0.00     0.098 A 
HETATM   15  C9  UNL     1       6.204  -0.373   2.966  1.00  0.00     0.147 C 
HETATM   16  S3  UNL     1       5.888  -1.983   3.756  1.00  0.00    -0.062 SA
HETATM   17  C10 UNL     1       4.147  -2.079   4.169  1.00  0.00     0.294 C 
HETATM   18  O1  UNL     1       3.506  -0.986   4.332  1.00  0.00    -0.259 OA
HETATM   19  N3  UNL     1       3.465  -3.321   4.320  1.00  0.00    -0.228 N 
ATOM     20  H3  UNL     1       2.513  -3.392   3.962  1.00  0.00     0.184 HD
HETATM   21  S4  UNL     1       4.147  -4.697   5.064  1.00  0.00     0.328 S 
HETATM   22  O2  UNL     1       3.323  -5.906   4.724  1.00  0.00    -0.182 OA
HETATM   23  O3  UNL     1       5.517  -4.905   4.481  1.00  0.00    -0.182 OA
HETATM   24  N4  UNL     1       4.311  -4.477   6.764  1.00  0.00    -0.235 N 
ATOM     25  H4  UNL     1       3.843  -3.685   7.206  1.00  0.00     0.183 HD
HETATM   26  C11 UNL     1       5.077  -5.359   7.572  1.00  0.00     0.257 C 
HETATM   27  O4  UNL     1       5.596  -4.869   8.605  1.00  0.00    -0.270 OA
HETATM   28  C12 UNL     1       5.304  -6.789   7.293  1.00  0.00     0.197 C 
HETATM   29  N5  UNL     1       6.565  -7.101   6.720  1.00  0.00    -0.360 N 
ATOM     30  H5  UNL     1       6.658  -7.781   5.966  1.00  0.00     0.158 HD
HETATM   31  C14 UNL     1       7.692  -6.413   7.254  1.00  0.00     0.423 C 
HETATM   32  N6  UNL     1       8.854  -6.782   6.471  1.00  0.00    -0.022 N 
ATOM     33  H61 UNL     1       8.926  -7.796   6.394  1.00  0.00     0.283 HD
ATOM     34  H62 UNL     1       8.713  -6.543   5.489  1.00  0.00     0.283 HD
HETATM   35  C15 UNL     1       8.134  -0.467   1.093  1.00  0.00     0.314 A 
HETATM   36  O7  UNL     1       7.448  -0.527   0.031  1.00  0.00    -0.257 OA
HETATM   37  O8  UNL     1       9.509  -0.456   1.226  1.00  0.00    -0.241 OA
ENDROOT
BRANCH  28  38
HETATM   38  C13 UNL     1       4.982  -7.653   8.508  1.00  0.00     0.198 C 
BRANCH  38  39
HETATM   39  O5  UNL     1       5.687  -8.841   8.487  1.00  0.00    -0.398 OA
ATOM     40  H5  UNL     1       5.142  -9.565   8.201  1.00  0.00     0.209 HD
ENDBRANCH  38  39
ENDBRANCH  28  38
BRANCH  31  41
HETATM   41  O6  UNL     1       7.961  -6.783   8.571  1.00  0.00    -0.355 OA
ATOM     42  H6  UNL     1       8.851  -6.573   8.830  1.00  0.00     0.213 HD
ENDBRANCH  31  41
TORSDOF 3
ENDMDL
MODEL 5
REMARK VINA RESULT: -8.061021172      2.401      5.604
REMARK  3 active torsions:
REMARK  status: ('A' for Active; 'I' for Inactive)
REMARK    1  A    between atoms: C12_28  and  C13_29 
REMARK    2  A    between atoms: C13_29  and  O5_30 
REMARK    3  A    between atoms: C14_34  and  O6_35 
ROOT
HETATM    1  C1  UNL     1       9.111   1.163   5.760  1.00  0.00     0.047 C 
HETATM    2  C2  UNL     1       8.148   1.080   4.565  1.00  0.00     0.132 C 
HETATM    3  C3  UNL     1       8.428   2.294   3.716  1.00  0.00     0.047 C 
HETATM    4  C4  UNL     1       8.529  -0.179   3.818  1.00  0.00     0.124 C 
HETATM    5  S1  UNL     1      10.313  -0.508   4.092  1.00  0.00    -0.095 SA
HETATM    6  S2  UNL     1      10.578  -2.129   5.447  1.00  0.00    -0.096 SA
HETATM    7  C5  UNL     1      11.581  -3.425   4.684  1.00  0.00     0.105 C 
HETATM    8  C6  UNL     1      10.887  -4.765   4.713  1.00  0.00     0.134 C 
HETATM    9  N1  UNL     1      10.808  -5.243   6.085  1.00  0.00    -0.355 N 
ATOM     10  H1  UNL     1      11.635  -5.166   6.679  1.00  0.00     0.163 HD
HETATM   11  C7  UNL     1       9.752  -5.750   6.573  1.00  0.00     0.227 A 
HETATM   12  N2  UNL     1       8.563  -5.886   5.798  1.00  0.00    -0.320 N 
ATOM     13  H2  UNL     1       8.456  -5.601   4.825  1.00  0.00     0.169 HD
HETATM   14  C8  UNL     1       7.645  -6.426   6.523  1.00  0.00     0.098 A 
HETATM   15  C9  UNL     1       6.313  -6.663   5.911  1.00  0.00     0.147 C 
HETATM   16  S3  UNL     1       5.509  -5.042   5.707  1.00  0.00    -0.062 SA
HETATM   17  C10 UNL     1       3.809  -5.313   5.206  1.00  0.00     0.294 C 
HETATM   18  O1  UNL     1       3.522  -6.410   4.618  1.00  0.00    -0.259 OA
HETATM   19  N3  UNL     1       2.782  -4.352   5.440  1.00  0.00    -0.228 N 
ATOM     20  H3  UNL     1       1.862  -4.693   5.717  1.00  0.00     0.184 HD
HETATM   21  S4  UNL     1       3.001  -2.668   5.282  1.00  0.00     0.328 S 
HETATM   22  O2  UNL     1       1.861  -1.953   5.951  1.00  0.00    -0.182 OA
HETATM   23  O3  UNL     1       4.259  -2.295   6.016  1.00  0.00    -0.182 OA
HETATM   24  N4  UNL     1       3.181  -2.208   3.633  1.00  0.00    -0.235 N 
ATOM     25  H4  UNL     1       2.961  -2.888   2.905  1.00  0.00     0.183 HD
HETATM   26  C11 UNL     1       3.627  -0.914   3.251  1.00  0.00     0.257 C 
HETATM   27  O4  UNL     1       4.243  -0.830   2.161  1.00  0.00    -0.270 OA
HETATM   28  C12 UNL     1       3.421   0.322   4.029  1.00  0.00     0.197 C 
HETATM   29  N5  UNL     1       4.544   0.758   4.780  1.00  0.00    -0.360 N 
ATOM     30  H5  UNL     1       4.447   1.120   5.729  1.00  0.00     0.158 HD
HETATM   31  C14 UNL     1       5.811   0.665   4.138  1.00  0.00     0.423 C 
HETATM   32  N6  UNL     1       6.828   1.047   5.097  1.00  0.00    -0.022 N 
ATOM     33  H61 UNL     1       6.594   1.942   5.528  1.00  0.00     0.283 HD
ATOM     34  H62 UNL     1       6.790   0.443   5.918  1.00  0.00     0.283 HD
HETATM   35  C15 UNL     1       8.171  -6.692   7.857  1.00  0.00     0.314 A 
HETATM   36  O7  UNL     1       7.525  -7.217   8.810  1.00  0.00    -0.257 OA
HETATM   37  O8  UNL     1       9.483  -6.257   7.846  1.00  0.00    -0.241 OA
ENDROOT
BRANCH  28  38
HETATM   38  C13 UNL     1       2.824   1.431   3.168  1.00  0.00     0.198 C 
BRANCH  38  39
HETATM   39  O5  UNL     1       1.890   0.935   2.279  1.00  0.00    -0.398 OA
ATOM     40  H5  UNL     1       1.405   1.635   1.856  1.00  0.00     0.209 HD
ENDBRANCH  38  39
ENDBRANCH  28  38
BRANCH  31  41
HETATM   41  O6  UNL     1       5.924   1.542   3.060  1.00  0.00    -0.355 OA
ATOM     42  H6  UNL     1       6.544   2.241   3.229  1.00  0.00     0.213 HD
ENDBRANCH  31  41
TORSDOF 3
ENDMDL
