MODEL 1
REMARK VINA RESULT: -10.168742280      0.000      0.000
REMARK  2 active torsions:
REMARK  status: ('A' for Active; 'I' for Inactive)
REMARK    1  A    between atoms: N1_2  and  C2_4 
REMARK       I    between atoms: N6_29  and  C14_30 
REMARK    2  A    between atoms: C14_30  and  O5_32 
ROOT
HETATM    1  C2  UNL     1       8.611  -5.713   6.827  1.00  0.00     0.214 C 
HETATM    2  N2  UNL     1       9.681  -5.622   6.114  1.00  0.00    -0.356 N 
ATOM      3  H2  UNL     1      10.507  -5.281   6.607  1.00  0.00     0.163 HD
HETATM    4  C3  UNL     1       9.877  -5.927   4.741  1.00  0.00     0.132 C 
HETATM    5  C4  UNL     1      10.522  -4.687   4.105  1.00  0.00     0.123 C 
HETATM    6  C5  UNL     1      11.865  -4.444   4.683  1.00  0.00     0.227 C 
HETATM    7  O1  UNL     1      12.865  -4.849   4.028  1.00  0.00    -0.273 OA
HETATM    8  N3  UNL     1      12.102  -3.789   5.921  1.00  0.00    -0.273 N 
ATOM      9  H3  UNL     1      12.882  -4.125   6.487  1.00  0.00     0.174 HD
HETATM   10  C6  UNL     1      11.344  -2.708   6.432  1.00  0.00     0.367 C 
HETATM   11  O2  UNL     1      11.217  -2.616   7.689  1.00  0.00    -0.238 OA
HETATM   12  O3  UNL     1      10.782  -1.811   5.571  1.00  0.00    -0.302 OA
HETATM   13  C7  UNL     1      11.415  -1.142   4.527  1.00  0.00     0.208 C 
HETATM   14  C8  UNL     1      10.420  -0.207   3.875  1.00  0.00     0.259 C 
HETATM   15  N4  UNL     1       9.048  -0.637   4.036  1.00  0.00    -0.072 N 
ATOM     16  H41 UNL     1       8.992  -1.466   4.627  1.00  0.00     0.277 HD
ATOM     17  H42 UNL     1       8.682  -1.027   3.168  1.00  0.00     0.277 HD
HETATM   18  C9  UNL     1       8.186   0.416   4.537  1.00  0.00     0.259 C 
HETATM   19  C10 UNL     1       7.166   0.858   3.542  1.00  0.00     0.260 C 
HETATM   20  N5  UNL     1       6.772  -0.173   2.611  1.00  0.00    -0.070 N 
ATOM     21  H51 UNL     1       7.526  -0.396   1.961  1.00  0.00     0.277 HD
ATOM     22  H52 UNL     1       6.082   0.172   1.944  1.00  0.00     0.277 HD
HETATM   23  C11 UNL     1       6.292  -1.372   3.303  1.00  0.00     0.274 C 
HETATM   24  C12 UNL     1       4.808  -1.507   3.171  1.00  0.00     0.016 A 
HETATM   25  C13 UNL     1       4.254  -0.678   2.183  1.00  0.00     0.118 A 
HETATM   26  N6  UNL     1       2.928  -0.697   2.002  1.00  0.00    -0.218 N 
HETATM   27  C14 UNL     1       2.326   0.131   1.007  1.00  0.00     0.374 C 
HETATM   28  O4  UNL     1       3.057   0.883   0.298  1.00  0.00    -0.237 OA
HETATM   29  C16 UNL     1       2.140  -1.495   2.753  1.00  0.00     0.356 A 
HETATM   30  O6  UNL     1       0.904  -1.500   2.570  1.00  0.00    -0.245 OA
HETATM   31  N7  UNL     1       2.642  -2.312   3.718  1.00  0.00    -0.091 N 
HETATM   32  C17 UNL     1       2.081  -3.165   4.581  1.00  0.00     0.689 A 
HETATM   33  N8  UNL     1       0.826  -3.434   4.691  1.00  0.00    -0.234 N 
ATOM     34  H81 UNL     1       0.398  -4.086   5.349  1.00  0.00     0.174 HD
ATOM     35  H82 UNL     1       0.065  -3.038   4.139  1.00  0.00     0.174 HD
HETATM   36  N9  UNL     1       3.089  -3.689   5.312  1.00  0.00    -0.168 N 
ATOM     37  H9  UNL     1       2.973  -4.376   6.057  1.00  0.00     0.186 HD
HETATM   38  C18 UNL     1       4.276  -3.170   4.913  1.00  0.00     0.186 A 
HETATM   39  C19 UNL     1       3.984  -2.286   3.893  1.00  0.00     0.122 A 
HETATM   40  O7  UNL     1       5.558  -3.393   5.346  1.00  0.00    -0.332 OA
HETATM   41  C20 UNL     1       6.531  -4.330   4.924  1.00  0.00     0.204 C 
HETATM   42  C21 UNL     1       6.385  -5.655   5.630  1.00  0.00     0.205 C 
HETATM   43  O8  UNL     1       7.465  -6.147   6.290  1.00  0.00    -0.320 OA
ENDROOT
BRANCH  27  44
HETATM   44  O5  UNL     1       0.977   0.163   0.765  1.00  0.00    -0.308 OA
HETATM   45  C15 UNL     1       0.283   1.398   0.608  1.00  0.00     0.215 C 
ENDBRANCH  27  44
BRANCH   1  46
HETATM   46  N1  UNL     1       8.812  -5.303   8.213  1.00  0.00    -0.361 N 
HETATM   47  C1  UNL     1      10.003  -5.728   8.894  1.00  0.00     0.150 C 
ATOM     48  H1  UNL     1       8.118  -4.726   8.690  1.00  0.00     0.162 HD
ENDBRANCH   1  46
TORSDOF 2
ENDMDL
MODEL 2
REMARK VINA RESULT: -9.927466137      1.402      1.568
REMARK  2 active torsions:
REMARK  status: ('A' for Active; 'I' for Inactive)
REMARK    1  A    between atoms: N1_2  and  C2_4 
REMARK       I    between atoms: N6_29  and  C14_30 
REMARK    2  A    between atoms: C14_30  and  O5_32 
ROOT
HETATM    1  C2  UNL     1       6.841  -6.381   7.638  1.00  0.00     0.214 C 
HETATM    2  N2  UNL     1       7.983  -6.560   7.067  1.00  0.00    -0.356 N 
ATOM      3  H2  UNL     1       8.797  -6.362   7.649  1.00  0.00     0.163 HD
HETATM    4  C3  UNL     1       8.271  -6.995   5.746  1.00  0.00     0.132 C 
HETATM    5  C4  UNL     1       9.234  -5.960   5.146  1.00  0.00     0.123 C 
HETATM    6  C5  UNL     1      10.520  -5.956   5.883  1.00  0.00     0.227 C 
HETATM    7  O1  UNL     1      11.482  -6.602   5.383  1.00  0.00    -0.273 OA
HETATM    8  N3  UNL     1      10.742  -5.279   7.112  1.00  0.00    -0.273 N 
ATOM      9  H3  UNL     1      11.361  -5.726   7.789  1.00  0.00     0.174 HD
HETATM   10  C6  UNL     1      10.175  -4.032   7.472  1.00  0.00     0.367 C 
HETATM   11  O2  UNL     1       9.922  -3.828   8.697  1.00  0.00    -0.238 OA
HETATM   12  O3  UNL     1       9.921  -3.102   6.507  1.00  0.00    -0.302 OA
HETATM   13  C7  UNL     1      10.801  -2.651   5.526  1.00  0.00     0.208 C 
HETATM   14  C8  UNL     1      10.110  -1.581   4.709  1.00  0.00     0.259 C 
HETATM   15  N4  UNL     1       8.669  -1.709   4.709  1.00  0.00    -0.072 N 
ATOM     16  H41 UNL     1       8.369  -2.466   5.323  1.00  0.00     0.277 HD
ATOM     17  H42 UNL     1       8.334  -2.076   3.818  1.00  0.00     0.277 HD
HETATM   18  C9  UNL     1       7.996  -0.469   5.046  1.00  0.00     0.259 C 
HETATM   19  C10 UNL     1       7.217   0.100   3.908  1.00  0.00     0.260 C 
HETATM   20  N5  UNL     1       6.727  -0.891   2.980  1.00  0.00    -0.070 N 
ATOM     21  H51 UNL     1       7.489  -1.308   2.444  1.00  0.00     0.277 HD
ATOM     22  H52 UNL     1       6.210  -0.460   2.214  1.00  0.00     0.277 HD
HETATM   23  C11 UNL     1       5.927  -1.916   3.655  1.00  0.00     0.274 C 
HETATM   24  C12 UNL     1       4.474  -1.753   3.337  1.00  0.00     0.016 A 
HETATM   25  C13 UNL     1       4.228  -0.900   2.249  1.00  0.00     0.118 A 
HETATM   26  N6  UNL     1       2.960  -0.660   1.898  1.00  0.00    -0.218 N 
HETATM   27  C14 UNL     1       2.668   0.201   0.797  1.00  0.00     0.374 C 
HETATM   28  O4  UNL     1       3.621   0.736   0.158  1.00  0.00    -0.237 OA
HETATM   29  C16 UNL     1       1.937  -1.226   2.574  1.00  0.00     0.356 A 
HETATM   30  O6  UNL     1       0.759  -0.991   2.231  1.00  0.00    -0.245 OA
HETATM   31  N7  UNL     1       2.138  -2.058   3.631  1.00  0.00    -0.091 N 
HETATM   32  C17 UNL     1       1.310  -2.716   4.450  1.00  0.00     0.689 A 
HETATM   33  N8  UNL     1       0.023  -2.715   4.407  1.00  0.00    -0.234 N 
ATOM     34  H81 UNL     1      -0.609  -3.217   5.031  1.00  0.00     0.174 HD
ATOM     35  H82 UNL     1      -0.566  -2.212   3.743  1.00  0.00     0.174 HD
HETATM   36  N9  UNL     1       2.091  -3.382   5.328  1.00  0.00    -0.168 N 
ATOM     37  H9  UNL     1       1.745  -3.978   6.082  1.00  0.00     0.186 HD
HETATM   38  C18 UNL     1       3.399  -3.147   5.065  1.00  0.00     0.186 A 
HETATM   39  C19 UNL     1       3.424  -2.295   3.979  1.00  0.00     0.122 A 
HETATM   40  O7  UNL     1       4.544  -3.596   5.672  1.00  0.00    -0.332 OA
HETATM   41  C20 UNL     1       5.341  -4.739   5.421  1.00  0.00     0.204 C 
HETATM   42  C21 UNL     1       4.835  -5.953   6.160  1.00  0.00     0.205 C 
HETATM   43  O8  UNL     1       5.701  -6.608   6.976  1.00  0.00    -0.320 OA
ENDROOT
BRANCH  27  44
HETATM   44  O5  UNL     1       1.395   0.492   0.380  1.00  0.00    -0.308 OA
HETATM   45  C15 UNL     1       0.914   1.832   0.352  1.00  0.00     0.215 C 
ENDBRANCH  27  44
BRANCH   1  46
HETATM   46  N1  UNL     1       6.958  -5.924   9.020  1.00  0.00    -0.361 N 
HETATM   47  C1  UNL     1       6.496  -4.606   9.352  1.00  0.00     0.150 C 
ATOM     48  H1  UNL     1       7.360  -6.531   9.735  1.00  0.00     0.162 HD
ENDBRANCH   1  46
TORSDOF 2
ENDMDL
MODEL 3
REMARK VINA RESULT: -9.444718010      1.017      1.056
REMARK  2 active torsions:
REMARK  status: ('A' for Active; 'I' for Inactive)
REMARK    1  A    between atoms: N1_2  and  C2_4 
REMARK       I    between atoms: N6_29  and  C14_30 
REMARK    2  A    between atoms: C14_30  and  O5_32 
ROOT
HETATM    1  C2  UNL     1       8.662  -6.465   7.168  1.00  0.00     0.214 C 
HETATM    2  N2  UNL     1       9.797  -6.222   6.607  1.00  0.00    -0.356 N 
ATOM      3  H2  UNL     1      10.550  -5.956   7.242  1.00  0.00     0.163 HD
HETATM    4  C3  UNL     1      10.150  -6.271   5.232  1.00  0.00     0.132 C 
HETATM    5  C4  UNL     1      10.804  -4.922   4.901  1.00  0.00     0.123 C 
HETATM    6  C5  UNL     1      12.066  -4.755   5.659  1.00  0.00     0.227 C 
HETATM    7  O1  UNL     1      13.147  -5.012   5.060  1.00  0.00    -0.273 OA
HETATM    8  N3  UNL     1      12.143  -4.328   7.012  1.00  0.00    -0.273 N 
ATOM      9  H3  UNL     1      12.872  -4.741   7.593  1.00  0.00     0.174 HD
HETATM   10  C6  UNL     1      11.289  -3.374   7.617  1.00  0.00     0.367 C 
HETATM   11  O2  UNL     1      11.026  -3.512   8.849  1.00  0.00    -0.238 OA
HETATM   12  O3  UNL     1      10.783  -2.351   6.870  1.00  0.00    -0.302 OA
HETATM   13  C7  UNL     1      11.494  -1.490   6.037  1.00  0.00     0.208 C 
HETATM   14  C8  UNL     1      10.534  -0.477   5.452  1.00  0.00     0.259 C 
HETATM   15  N4  UNL     1       9.172  -0.961   5.381  1.00  0.00    -0.072 N 
ATOM     16  H41 UNL     1       9.090  -1.885   5.807  1.00  0.00     0.277 HD
ATOM     17  H42 UNL     1       8.918  -1.198   4.422  1.00  0.00     0.277 HD
HETATM   18  C9  UNL     1       8.217  -0.036   5.959  1.00  0.00     0.259 C 
HETATM   19  C10 UNL     1       7.290   0.553   4.949  1.00  0.00     0.260 C 
HETATM   20  N5  UNL     1       7.042  -0.304   3.814  1.00  0.00    -0.070 N 
ATOM     21  H51 UNL     1       7.870  -0.388   3.223  1.00  0.00     0.277 HD
ATOM     22  H52 UNL     1       6.412   0.139   3.145  1.00  0.00     0.277 HD
HETATM   23  C11 UNL     1       6.544  -1.618   4.226  1.00  0.00     0.274 C 
HETATM   24  C12 UNL     1       5.089  -1.763   3.908  1.00  0.00     0.016 A 
HETATM   25  C13 UNL     1       4.607  -0.783   3.025  1.00  0.00     0.118 A 
HETATM   26  N6  UNL     1       3.310  -0.801   2.696  1.00  0.00    -0.218 N 
HETATM   27  C14 UNL     1       2.782   0.178   1.800  1.00  0.00     0.374 C 
HETATM   28  O4  UNL     1       3.551   1.062   1.321  1.00  0.00    -0.237 OA
HETATM   29  C16 UNL     1       2.483  -1.739   3.202  1.00  0.00     0.356 A 
HETATM   30  O6  UNL     1       1.274  -1.740   2.883  1.00  0.00    -0.245 OA
HETATM   31  N7  UNL     1       2.914  -2.703   4.058  1.00  0.00    -0.091 N 
HETATM   32  C17 UNL     1       2.302  -3.710   4.689  1.00  0.00     0.689 A 
HETATM   33  N8  UNL     1       1.056  -4.025   4.608  1.00  0.00    -0.234 N 
ATOM     34  H81 UNL     1       0.589  -4.794   5.090  1.00  0.00     0.174 HD
ATOM     35  H82 UNL     1       0.341  -3.555   4.053  1.00  0.00     0.174 HD
HETATM   36  N9  UNL     1       3.249  -4.333   5.425  1.00  0.00    -0.168 N 
ATOM     37  H9  UNL     1       3.085  -5.146   6.020  1.00  0.00     0.186 HD
HETATM   38  C18 UNL     1       4.448  -3.724   5.258  1.00  0.00     0.186 A 
HETATM   39  C19 UNL     1       4.228  -2.678   4.384  1.00  0.00     0.122 A 
HETATM   40  O7  UNL     1       5.685  -3.990   5.787  1.00  0.00    -0.332 OA
HETATM   41  C20 UNL     1       6.738  -4.812   5.318  1.00  0.00     0.204 C 
HETATM   42  C21 UNL     1       6.575  -6.246   5.759  1.00  0.00     0.205 C 
HETATM   43  O8  UNL     1       7.599  -6.823   6.439  1.00  0.00    -0.320 OA
ENDROOT
BRANCH  27  44
HETATM   44  O5  UNL     1       1.466   0.222   1.419  1.00  0.00    -0.308 OA
HETATM   45  C15 UNL     1       0.842   1.449   1.053  1.00  0.00     0.215 C 
ENDBRANCH  27  44
BRANCH   1  46
HETATM   46  N1  UNL     1       8.697  -6.307   8.619  1.00  0.00    -0.361 N 
HETATM   47  C1  UNL     1       7.920  -5.257   9.217  1.00  0.00     0.150 C 
ATOM     48  H1  UNL     1       9.262  -6.929   9.197  1.00  0.00     0.162 HD
ENDBRANCH   1  46
TORSDOF 2
ENDMDL
MODEL 4
REMARK VINA RESULT: -9.293397818      2.041      5.029
REMARK  2 active torsions:
REMARK  status: ('A' for Active; 'I' for Inactive)
REMARK    1  A    between atoms: N1_2  and  C2_4 
REMARK       I    between atoms: N6_29  and  C14_30 
REMARK    2  A    between atoms: C14_30  and  O5_32 
ROOT
HETATM    1  C2  UNL     1      12.058  -4.406   5.784  1.00  0.00     0.214 C 
HETATM    2  N2  UNL     1      11.815  -4.534   7.043  1.00  0.00    -0.356 N 
ATOM      3  H2  UNL     1      11.957  -5.470   7.423  1.00  0.00     0.163 HD
HETATM    4  C3  UNL     1      11.377  -3.559   7.979  1.00  0.00     0.132 C 
HETATM    5  C4  UNL     1      10.143  -4.148   8.679  1.00  0.00     0.123 C 
HETATM    6  C5  UNL     1      10.513  -5.352   9.459  1.00  0.00     0.227 C 
HETATM    7  O1  UNL     1      10.696  -5.211  10.700  1.00  0.00    -0.273 OA
HETATM    8  N3  UNL     1      10.675  -6.651   8.908  1.00  0.00    -0.273 N 
ATOM      9  H3  UNL     1      11.405  -7.242   9.307  1.00  0.00     0.174 HD
HETATM   10  C6  UNL     1       9.905  -7.192   7.850  1.00  0.00     0.367 C 
HETATM   11  O2  UNL     1      10.472  -8.009   7.063  1.00  0.00    -0.238 OA
HETATM   12  O3  UNL     1       8.600  -6.825   7.708  1.00  0.00    -0.302 OA
HETATM   13  C7  UNL     1       7.618  -6.825   8.697  1.00  0.00     0.208 C 
HETATM   14  C8  UNL     1       6.306  -6.395   8.078  1.00  0.00     0.259 C 
HETATM   15  N4  UNL     1       6.477  -5.563   6.907  1.00  0.00    -0.072 N 
ATOM     16  H41 UNL     1       7.464  -5.471   6.665  1.00  0.00     0.277 HD
ATOM     17  H42 UNL     1       6.267  -4.587   7.117  1.00  0.00     0.277 HD
HETATM   18  C9  UNL     1       5.705  -6.028   5.771  1.00  0.00     0.259 C 
HETATM   19  C10 UNL     1       4.613  -5.087   5.383  1.00  0.00     0.260 C 
HETATM   20  N5  UNL     1       4.893  -3.706   5.695  1.00  0.00    -0.070 N 
ATOM     21  H51 UNL     1       4.879  -3.541   6.702  1.00  0.00     0.277 HD
ATOM     22  H52 UNL     1       4.119  -3.099   5.423  1.00  0.00     0.277 HD
HETATM   23  C11 UNL     1       6.154  -3.261   5.098  1.00  0.00     0.274 C 
HETATM   24  C12 UNL     1       5.905  -2.339   3.946  1.00  0.00     0.016 A 
HETATM   25  C13 UNL     1       4.588  -1.855   3.890  1.00  0.00     0.118 A 
HETATM   26  N6  UNL     1       4.248  -1.044   2.881  1.00  0.00    -0.218 N 
HETATM   27  C14 UNL     1       2.919  -0.530   2.788  1.00  0.00     0.374 C 
HETATM   28  O4  UNL     1       2.066  -0.848   3.668  1.00  0.00    -0.237 OA
HETATM   29  C16 UNL     1       5.150  -0.700   1.937  1.00  0.00     0.356 A 
HETATM   30  O6  UNL     1       4.814   0.058   1.002  1.00  0.00    -0.245 OA
HETATM   31  N7  UNL     1       6.434  -1.149   1.961  1.00  0.00    -0.091 N 
HETATM   32  C17 UNL     1       7.484  -0.965   1.156  1.00  0.00     0.689 A 
HETATM   33  N8  UNL     1       7.519  -0.246   0.087  1.00  0.00    -0.234 N 
ATOM     34  H81 UNL     1       8.321  -0.105  -0.527  1.00  0.00     0.174 HD
ATOM     35  H82 UNL     1       6.750   0.293  -0.312  1.00  0.00     0.174 HD
HETATM   36  N9  UNL     1       8.502  -1.679   1.685  1.00  0.00    -0.168 N 
ATOM     37  H9  UNL     1       9.442  -1.736   1.291  1.00  0.00     0.186 HD
HETATM   38  C18 UNL     1       8.096  -2.307   2.815  1.00  0.00     0.186 A 
HETATM   39  C19 UNL     1       6.768  -1.967   2.986  1.00  0.00     0.122 A 
HETATM   40  O7  UNL     1       8.761  -3.130   3.687  1.00  0.00    -0.332 OA
HETATM   41  C20 UNL     1       9.500  -2.837   4.859  1.00  0.00     0.204 C 
HETATM   42  C21 UNL     1      10.939  -2.505   4.550  1.00  0.00     0.205 C 
HETATM   43  O8  UNL     1      11.907  -3.226   5.173  1.00  0.00    -0.320 OA
ENDROOT
BRANCH  27  44
HETATM   44  O5  UNL     1       2.500   0.304   1.784  1.00  0.00    -0.308 OA
HETATM   45  C15 UNL     1       1.135   0.342   1.375  1.00  0.00     0.215 C 
ENDBRANCH  27  44
BRANCH   1  46
HETATM   46  N1  UNL     1      12.495  -5.651   5.157  1.00  0.00    -0.361 N 
HETATM   47  C1  UNL     1      11.644  -6.265   4.177  1.00  0.00     0.150 C 
ATOM     48  H1  UNL     1      13.387  -6.076   5.412  1.00  0.00     0.162 HD
ENDBRANCH   1  46
TORSDOF 2
ENDMDL
MODEL 5
REMARK VINA RESULT: -9.057249150      2.913      5.798
REMARK  2 active torsions:
REMARK  status: ('A' for Active; 'I' for Inactive)
REMARK    1  A    between atoms: N1_2  and  C2_4 
REMARK       I    between atoms: N6_29  and  C14_30 
REMARK    2  A    between atoms: C14_30  and  O5_32 
ROOT
HETATM    1  C2  UNL     1      12.390  -4.523   6.000  1.00  0.00     0.214 C 
HETATM    2  N2  UNL     1      11.837  -5.132   6.993  1.00  0.00    -0.356 N 
ATOM      3  H2  UNL     1      11.721  -6.139   6.877  1.00  0.00     0.163 HD
HETATM    4  C3  UNL     1      11.368  -4.604   8.225  1.00  0.00     0.132 C 
HETATM    5  C4  UNL     1       9.920  -5.092   8.386  1.00  0.00     0.123 C 
HETATM    6  C5  UNL     1       9.879  -6.568   8.511  1.00  0.00     0.227 C 
HETATM    7  O1  UNL     1       9.785  -7.053   9.673  1.00  0.00    -0.273 OA
HETATM    8  N3  UNL     1       9.938  -7.471   7.417  1.00  0.00    -0.273 N 
ATOM      9  H3  UNL     1      10.439  -8.349   7.560  1.00  0.00     0.174 HD
HETATM   10  C6  UNL     1       9.358  -7.252   6.144  1.00  0.00     0.367 C 
HETATM   11  O2  UNL     1       9.943  -7.747   5.134  1.00  0.00    -0.238 OA
HETATM   12  O3  UNL     1       8.207  -6.528   6.042  1.00  0.00    -0.302 OA
HETATM   13  C7  UNL     1       7.035  -6.710   6.772  1.00  0.00     0.208 C 
HETATM   14  C8  UNL     1       6.002  -5.715   6.289  1.00  0.00     0.259 C 
HETATM   15  N4  UNL     1       6.588  -4.526   5.711  1.00  0.00    -0.072 N 
ATOM     16  H41 UNL     1       7.604  -4.601   5.669  1.00  0.00     0.277 HD
ATOM     17  H42 UNL     1       6.507  -3.732   6.346  1.00  0.00     0.277 HD
HETATM   18  C9  UNL     1       6.037  -4.206   4.408  1.00  0.00     0.259 C 
HETATM   19  C10 UNL     1       5.248  -2.939   4.402  1.00  0.00     0.260 C 
HETATM   20  N5  UNL     1       5.683  -1.975   5.385  1.00  0.00    -0.070 N 
ATOM     21  H51 UNL     1       5.461  -2.283   6.332  1.00  0.00     0.277 HD
ATOM     22  H52 UNL     1       5.114  -1.130   5.354  1.00  0.00     0.277 HD
HETATM   23  C11 UNL     1       7.108  -1.664   5.245  1.00  0.00     0.274 C 
HETATM   24  C12 UNL     1       7.302  -0.294   4.676  1.00  0.00     0.016 A 
HETATM   25  C13 UNL     1       6.141   0.495   4.703  1.00  0.00     0.118 A 
HETATM   26  N6  UNL     1       6.196   1.730   4.191  1.00  0.00    -0.218 N 
HETATM   27  C14 UNL     1       5.037   2.565   4.200  1.00  0.00     0.374 C 
HETATM   28  O4  UNL     1       3.959   2.126   4.697  1.00  0.00    -0.237 OA
HETATM   29  C16 UNL     1       7.341   2.207   3.658  1.00  0.00     0.356 A 
HETATM   30  O6  UNL     1       7.373   3.363   3.184  1.00  0.00    -0.245 OA
HETATM   31  N7  UNL     1       8.484   1.471   3.616  1.00  0.00    -0.091 N 
HETATM   32  C17 UNL     1       9.711   1.710   3.142  1.00  0.00     0.689 A 
HETATM   33  N8  UNL     1      10.122   2.793   2.579  1.00  0.00    -0.234 N 
ATOM     34  H81 UNL     1      11.059   2.975   2.218  1.00  0.00     0.174 HD
ATOM     35  H82 UNL     1       9.576   3.637   2.406  1.00  0.00     0.174 HD
HETATM   36  N9  UNL     1      10.435   0.592   3.372  1.00  0.00    -0.168 N 
ATOM     37  H9  UNL     1      11.416   0.469   3.120  1.00  0.00     0.186 HD
HETATM   38  C18 UNL     1       9.669  -0.343   3.986  1.00  0.00     0.186 A 
HETATM   39  C19 UNL     1       8.420   0.224   4.137  1.00  0.00     0.122 A 
HETATM   40  O7  UNL     1       9.956  -1.614   4.415  1.00  0.00    -0.332 OA
HETATM   41  C20 UNL     1      10.437  -2.087   5.660  1.00  0.00     0.204 C 
HETATM   42  C21 UNL     1      11.943  -2.049   5.735  1.00  0.00     0.205 C 
HETATM   43  O8  UNL     1      12.595  -3.201   6.036  1.00  0.00    -0.320 OA
ENDROOT
BRANCH  27  44
HETATM   44  O5  UNL     1       5.019   3.839   3.694  1.00  0.00    -0.308 OA
HETATM   45  C15 UNL     1       3.801   4.454   3.284  1.00  0.00     0.215 C 
ENDBRANCH  27  44
BRANCH   1  46
HETATM   46  N1  UNL     1      12.738  -5.419   4.902  1.00  0.00    -0.361 N 
HETATM   47  C1  UNL     1      12.032  -5.293   3.658  1.00  0.00     0.150 C 
ATOM     48  H1  UNL     1      13.470  -6.121   5.016  1.00  0.00     0.162 HD
ENDBRANCH   1  46
TORSDOF 2
ENDMDL
