MODEL 1
REMARK VINA RESULT: -11.538576471      0.000      0.000
REMARK  2 active torsions:
REMARK  status: ('A' for Active; 'I' for Inactive)
REMARK    1  A    between atoms: C4_6  and  N1_7 
REMARK    2  A    between atoms: C18_38  and  N13_39 
ROOT
HETATM    1  N1  UNL     1       9.129   1.124   2.854  1.00  0.00    -0.278 N 
HETATM    2  S1  UNL     1       8.083  -0.046   3.650  1.00  0.00    -0.010 SA
HETATM    3  C5  UNL     1       7.680  -1.460   2.633  1.00  0.00     0.159 C 
HETATM    4  N2  UNL     1       7.487  -1.179   1.249  1.00  0.00    -0.339 N 
ATOM      5  H2  UNL     1       6.670  -1.647   0.855  1.00  0.00     0.164 HD
HETATM    6  C6  UNL     1       8.111  -0.475   0.407  1.00  0.00     0.192 C 
HETATM    7  N3  UNL     1       7.617  -0.420  -0.940  1.00  0.00    -0.063 NA
HETATM    8  N4  UNL     1       9.271   0.302   0.599  1.00  0.00    -0.304 N 
ATOM      9  H4  UNL     1       9.869   0.330  -0.227  1.00  0.00     0.171 HD
HETATM   10  C7  UNL     1       9.745   0.982   1.578  1.00  0.00     0.203 C 
HETATM   11  N5  UNL     1      10.975   1.658   1.413  1.00  0.00    -0.062 NA
HETATM   12  C8  UNL     1       6.334  -1.939   3.119  1.00  0.00     0.040 A 
HETATM   13  C9  UNL     1       5.094  -1.394   2.891  1.00  0.00     0.080 A 
HETATM   14  N6  UNL     1       4.890  -0.210   2.114  1.00  0.00    -0.100 NA
HETATM   15  C10 UNL     1       3.978  -1.996   3.425  1.00  0.00     0.091 A 
HETATM   16  C11 UNL     1       2.656  -1.458   3.211  1.00  0.00     0.103 C 
HETATM   17  N7  UNL     1       1.594  -1.017   3.020  1.00  0.00    -0.191 NA
HETATM   18  C12 UNL     1       4.152  -3.127   4.169  1.00  0.00     0.090 A 
HETATM   19  C13 UNL     1       2.965  -3.742   4.719  1.00  0.00     0.102 C 
HETATM   20  N8  UNL     1       2.023  -4.242   5.176  1.00  0.00    -0.191 NA
HETATM   21  C14 UNL     1       5.411  -3.707   4.419  1.00  0.00     0.096 A 
HETATM   22  C15 UNL     1       5.456  -4.891   5.196  1.00  0.00     0.103 C 
HETATM   23  N9  UNL     1       5.462  -5.865   5.829  1.00  0.00    -0.191 NA
HETATM   24  C16 UNL     1       6.477  -3.074   3.870  1.00  0.00     0.085 A 
HETATM   25  N10 UNL     1       7.883  -3.411   3.941  1.00  0.00    -0.274 N 
HETATM   26  N11 UNL     1       8.612  -4.237   4.762  1.00  0.00    -0.248 N 
ATOM     27  H11 UNL     1       8.156  -4.739   5.525  1.00  0.00     0.192 HD
HETATM   28  C17 UNL     1      10.031  -4.390   4.536  1.00  0.00     0.336 C 
HETATM   29  O3  UNL     1      10.663  -5.156   5.299  1.00  0.00    -0.246 OA
HETATM   30  N12 UNL     1      10.606  -3.663   3.462  1.00  0.00    -0.312 N 
ATOM     31  H12 UNL     1      11.410  -4.000   2.932  1.00  0.00     0.166 HD
HETATM   32  C18 UNL     1       9.952  -2.398   3.181  1.00  0.00     0.314 C 
HETATM   33  C19 UNL     1       8.525  -2.680   2.879  1.00  0.00     0.204 C 
ENDROOT
BRANCH   1  34
HETATM   34  C4  UNL     1       9.409   2.363   3.542  1.00  0.00     0.205 C 
HETATM   35  C3  UNL     1       8.153   3.113   3.788  1.00  0.00     0.283 C 
HETATM   36  O1  UNL     1       8.412   3.932   4.890  1.00  0.00    -0.314 OA
HETATM   37  O2  UNL     1       7.044   3.095   3.199  1.00  0.00    -0.263 OA
HETATM   38  C2  UNL     1       9.336   3.266   5.753  1.00  0.00     0.134 C 
HETATM   39  C1  UNL     1       8.574   2.793   6.973  1.00  0.00     0.040 C 
HETATM   40  C20 UNL     1       9.887   2.113   4.951  1.00  0.00     0.044 C 
HETATM   41  C21 UNL     1      11.401   2.069   5.034  1.00  0.00     0.015 C 
ENDBRANCH   1  34
BRANCH  32  42
HETATM   42  N13 UNL     1      10.130  -1.560   4.352  1.00  0.00    -0.056 N 
ATOM     43 3H13 UNL     1      10.378  -2.087   5.188  1.00  0.00     0.276 HD
ATOM     44 2H13 UNL     1      10.969  -0.983   4.307  1.00  0.00     0.276 HD
ATOM     45 1H13 UNL     1       9.274  -1.014   4.461  1.00  0.00     0.276 HD
ENDBRANCH  32  42
TORSDOF 2
ENDMDL
MODEL 2
REMARK VINA RESULT: -11.526245044      1.317      1.637
REMARK  2 active torsions:
REMARK  status: ('A' for Active; 'I' for Inactive)
REMARK    1  A    between atoms: C4_6  and  N1_7 
REMARK    2  A    between atoms: C18_38  and  N13_39 
ROOT
HETATM    1  N1  UNL     1       8.673   0.744   3.678  1.00  0.00    -0.278 N 
HETATM    2  S1  UNL     1       7.218  -0.123   4.155  1.00  0.00    -0.010 SA
HETATM    3  C5  UNL     1       6.768  -1.444   3.037  1.00  0.00     0.159 C 
HETATM    4  N2  UNL     1       7.001  -1.178   1.656  1.00  0.00    -0.339 N 
ATOM      5  H2  UNL     1       6.224  -1.460   1.057  1.00  0.00     0.164 HD
HETATM    6  C6  UNL     1       7.963  -0.668   1.016  1.00  0.00     0.192 C 
HETATM    7  N3  UNL     1       7.852  -0.553  -0.410  1.00  0.00    -0.063 NA
HETATM    8  N4  UNL     1       9.184  -0.172   1.515  1.00  0.00    -0.304 N 
ATOM      9  H4  UNL     1       9.961  -0.313   0.869  1.00  0.00     0.171 HD
HETATM   10  C7  UNL     1       9.540   0.417   2.596  1.00  0.00     0.203 C 
HETATM   11  N5  UNL     1      10.894   0.786   2.765  1.00  0.00    -0.062 NA
HETATM   12  C8  UNL     1       5.270  -1.581   3.154  1.00  0.00     0.040 A 
HETATM   13  C9  UNL     1       4.289  -0.776   2.631  1.00  0.00     0.080 A 
HETATM   14  N6  UNL     1       4.567   0.394   1.855  1.00  0.00    -0.100 NA
HETATM   15  C10 UNL     1       2.966  -1.084   2.850  1.00  0.00     0.091 A 
HETATM   16  C11 UNL     1       1.903  -0.266   2.319  1.00  0.00     0.103 C 
HETATM   17  N7  UNL     1       1.056   0.400   1.874  1.00  0.00    -0.191 NA
HETATM   18  C12 UNL     1       2.680  -2.196   3.588  1.00  0.00     0.090 A 
HETATM   19  C13 UNL     1       1.283  -2.501   3.804  1.00  0.00     0.102 C 
HETATM   20  N8  UNL     1       0.167  -2.753   3.996  1.00  0.00    -0.191 NA
HETATM   21  C14 UNL     1       3.665  -3.040   4.136  1.00  0.00     0.096 A 
HETATM   22  C15 UNL     1       3.237  -4.173   4.873  1.00  0.00     0.103 C 
HETATM   23  N9  UNL     1       2.857  -5.098   5.464  1.00  0.00    -0.191 NA
HETATM   24  C16 UNL     1       4.952  -2.690   3.891  1.00  0.00     0.085 A 
HETATM   25  N10 UNL     1       6.177  -3.338   4.309  1.00  0.00    -0.274 N 
HETATM   26  N11 UNL     1       6.463  -4.279   5.270  1.00  0.00    -0.248 N 
ATOM     27  H11 UNL     1       5.726  -4.633   5.880  1.00  0.00     0.192 HD
HETATM   28  C17 UNL     1       7.818  -4.762   5.408  1.00  0.00     0.336 C 
HETATM   29  O3  UNL     1       8.041  -5.623   6.289  1.00  0.00    -0.246 OA
HETATM   30  N12 UNL     1       8.798  -4.227   4.532  1.00  0.00    -0.312 N 
ATOM     31  H12 UNL     1       9.609  -4.760   4.216  1.00  0.00     0.166 HD
HETATM   32  C18 UNL     1       8.547  -2.857   4.123  1.00  0.00     0.314 C 
HETATM   33  C19 UNL     1       7.217  -2.815   3.462  1.00  0.00     0.204 C 
ENDROOT
BRANCH   1  34
HETATM   34  C4  UNL     1       9.049   1.911   4.441  1.00  0.00     0.205 C 
HETATM   35  C3  UNL     1       8.044   2.988   4.270  1.00  0.00     0.283 C 
HETATM   36  O1  UNL     1       8.149   3.789   5.410  1.00  0.00    -0.314 OA
HETATM   37  O2  UNL     1       7.227   3.225   3.346  1.00  0.00    -0.263 OA
HETATM   38  C2  UNL     1       8.519   2.967   6.519  1.00  0.00     0.134 C 
HETATM   39  C1  UNL     1       7.303   2.811   7.407  1.00  0.00     0.040 C 
HETATM   40  C20 UNL     1       8.955   1.651   5.924  1.00  0.00     0.044 C 
HETATM   41  C21 UNL     1      10.284   1.206   6.506  1.00  0.00     0.015 C 
ENDBRANCH   1  34
BRANCH  32  42
HETATM   42  N13 UNL     1       8.613  -2.039   5.319  1.00  0.00    -0.056 N 
ATOM     43 3H13 UNL     1       7.982  -1.238   5.291  1.00  0.00     0.276 HD
ATOM     44 2H13 UNL     1       8.210  -2.494   6.138  1.00  0.00     0.276 HD
ATOM     45 1H13 UNL     1       9.590  -1.775   5.447  1.00  0.00     0.276 HD
ENDBRANCH  32  42
TORSDOF 2
ENDMDL
MODEL 3
REMARK VINA RESULT: -10.372470502      4.805      7.060
REMARK  2 active torsions:
REMARK  status: ('A' for Active; 'I' for Inactive)
REMARK    1  A    between atoms: C4_6  and  N1_7 
REMARK    2  A    between atoms: C18_38  and  N13_39 
ROOT
HETATM    1  N1  UNL     1       4.894   0.099   8.821  1.00  0.00    -0.278 N 
HETATM    2  S1  UNL     1       3.904   0.355   7.389  1.00  0.00    -0.010 SA
HETATM    3  C5  UNL     1       4.733  -0.052   5.858  1.00  0.00     0.159 C 
HETATM    4  N2  UNL     1       6.121   0.271   5.813  1.00  0.00    -0.339 N 
ATOM      5  H2  UNL     1       6.401   0.715   4.939  1.00  0.00     0.164 HD
HETATM    6  C6  UNL     1       7.076   0.125   6.626  1.00  0.00     0.192 C 
HETATM    7  N3  UNL     1       8.381   0.580   6.237  1.00  0.00    -0.063 NA
HETATM    8  N4  UNL     1       7.054  -0.443   7.915  1.00  0.00    -0.304 N 
ATOM      9  H4  UNL     1       7.920  -0.928   8.149  1.00  0.00     0.171 HD
HETATM   10  C7  UNL     1       6.190  -0.488   8.863  1.00  0.00     0.203 C 
HETATM   11  N5  UNL     1       6.516  -1.166  10.059  1.00  0.00    -0.062 NA
HETATM   12  C8  UNL     1       4.100   0.828   4.808  1.00  0.00     0.040 A 
HETATM   13  C9  UNL     1       4.291   2.168   4.580  1.00  0.00     0.080 A 
HETATM   14  N6  UNL     1       5.171   2.978   5.366  1.00  0.00    -0.100 NA
HETATM   15  C10 UNL     1       3.616   2.787   3.554  1.00  0.00     0.091 A 
HETATM   16  C11 UNL     1       3.786   4.194   3.279  1.00  0.00     0.103 C 
HETATM   17  N7  UNL     1       3.943   5.328   3.064  1.00  0.00    -0.191 NA
HETATM   18  C12 UNL     1       2.772   2.032   2.793  1.00  0.00     0.090 A 
HETATM   19  C13 UNL     1       2.073   2.704   1.720  1.00  0.00     0.102 C 
HETATM   20  N8  UNL     1       1.497   3.230   0.862  1.00  0.00    -0.191 NA
HETATM   21  C14 UNL     1       2.557   0.656   3.003  1.00  0.00     0.096 A 
HETATM   22  C15 UNL     1       1.664  -0.020   2.134  1.00  0.00     0.103 C 
HETATM   23  N9  UNL     1       0.935  -0.548   1.401  1.00  0.00    -0.191 NA
HETATM   24  C16 UNL     1       3.247   0.096   4.027  1.00  0.00     0.085 A 
HETATM   25  N10 UNL     1       3.246  -1.273   4.497  1.00  0.00    -0.274 N 
HETATM   26  N11 UNL     1       2.399  -2.337   4.294  1.00  0.00    -0.248 N 
ATOM     27  H11 UNL     1       1.556  -2.224   3.731  1.00  0.00     0.192 HD
HETATM   28  C17 UNL     1       2.713  -3.617   4.887  1.00  0.00     0.336 C 
HETATM   29  O3  UNL     1       1.923  -4.565   4.676  1.00  0.00    -0.246 OA
HETATM   30  N12 UNL     1       3.897  -3.708   5.663  1.00  0.00    -0.312 N 
ATOM     31  H12 UNL     1       4.447  -4.564   5.736  1.00  0.00     0.166 HD
HETATM   32  C18 UNL     1       4.260  -2.478   6.342  1.00  0.00     0.314 C 
HETATM   33  C19 UNL     1       4.423  -1.420   5.313  1.00  0.00     0.204 C 
ENDROOT
BRANCH   1  34
HETATM   34  C4  UNL     1       4.364   0.520  10.097  1.00  0.00     0.205 C 
HETATM   35  C3  UNL     1       4.390   1.998  10.207  1.00  0.00     0.283 C 
HETATM   36  O1  UNL     1       3.394   2.327  11.130  1.00  0.00    -0.314 OA
HETATM   37  O2  UNL     1       5.106   2.862   9.642  1.00  0.00    -0.263 OA
HETATM   38  C2  UNL     1       2.333   1.376  11.024  1.00  0.00     0.134 C 
HETATM   39  C1  UNL     1       1.165   2.057  10.344  1.00  0.00     0.040 C 
HETATM   40  C20 UNL     1       2.884   0.241  10.195  1.00  0.00     0.044 C 
HETATM   41  C21 UNL     1       2.603  -1.097  10.852  1.00  0.00     0.015 C 
ENDBRANCH   1  34
BRANCH  32  42
HETATM   42  N13 UNL     1       3.201  -2.189   7.290  1.00  0.00    -0.056 N 
ATOM     43 3H13 UNL     1       3.173  -2.843   8.072  1.00  0.00     0.276 HD
ATOM     44 2H13 UNL     1       3.370  -1.343   7.834  1.00  0.00     0.276 HD
ATOM     45 1H13 UNL     1       2.328  -2.157   6.762  1.00  0.00     0.276 HD
ENDBRANCH  32  42
TORSDOF 2
ENDMDL
MODEL 4
REMARK VINA RESULT: -10.197559008      1.140      1.261
REMARK  2 active torsions:
REMARK  status: ('A' for Active; 'I' for Inactive)
REMARK    1  A    between atoms: C4_6  and  N1_7 
REMARK    2  A    between atoms: C18_38  and  N13_39 
ROOT
HETATM    1  N1  UNL     1       9.441   0.885   3.896  1.00  0.00    -0.278 N 
HETATM    2  S1  UNL     1       8.524  -0.460   4.564  1.00  0.00    -0.010 SA
HETATM    3  C5  UNL     1       8.374  -1.852   3.451  1.00  0.00     0.159 C 
HETATM    4  N2  UNL     1       8.219  -1.516   2.074  1.00  0.00    -0.339 N 
ATOM      5  H2  UNL     1       7.496  -2.065   1.607  1.00  0.00     0.164 HD
HETATM    6  C6  UNL     1       8.784  -0.685   1.311  1.00  0.00     0.192 C 
HETATM    7  N3  UNL     1       8.361  -0.617  -0.059  1.00  0.00    -0.063 NA
HETATM    8  N4  UNL     1       9.815   0.227   1.614  1.00  0.00    -0.304 N 
ATOM      9  H4  UNL     1      10.446   0.385   0.829  1.00  0.00     0.171 HD
HETATM   10  C7  UNL     1      10.137   0.904   2.654  1.00  0.00     0.203 C 
HETATM   11  N5  UNL     1      11.270   1.748   2.601  1.00  0.00    -0.062 NA
HETATM   12  C8  UNL     1       7.083  -2.535   3.828  1.00  0.00     0.040 A 
HETATM   13  C9  UNL     1       5.794  -2.149   3.554  1.00  0.00     0.080 A 
HETATM   14  N6  UNL     1       5.471  -0.958   2.829  1.00  0.00    -0.100 NA
HETATM   15  C10 UNL     1       4.745  -2.926   3.986  1.00  0.00     0.091 A 
HETATM   16  C11 UNL     1       3.374  -2.559   3.720  1.00  0.00     0.103 C 
HETATM   17  N7  UNL     1       2.274  -2.254   3.487  1.00  0.00    -0.191 NA
HETATM   18  C12 UNL     1       5.032  -4.066   4.679  1.00  0.00     0.090 A 
HETATM   19  C13 UNL     1       3.913  -4.868   5.122  1.00  0.00     0.102 C 
HETATM   20  N8  UNL     1       3.026  -5.515   5.494  1.00  0.00    -0.191 NA
HETATM   21  C14 UNL     1       6.343  -4.487   4.974  1.00  0.00     0.096 A 
HETATM   22  C15 UNL     1       6.509  -5.698   5.690  1.00  0.00     0.103 C 
HETATM   23  N9  UNL     1       6.614  -6.699   6.270  1.00  0.00    -0.191 NA
HETATM   24  C16 UNL     1       7.340  -3.684   4.526  1.00  0.00     0.085 A 
HETATM   25  N10 UNL     1       8.773  -3.833   4.665  1.00  0.00    -0.274 N 
HETATM   26  N11 UNL     1       9.564  -4.602   5.485  1.00  0.00    -0.248 N 
ATOM     27  H11 UNL     1       9.141  -5.205   6.191  1.00  0.00     0.192 HD
HETATM   28  C17 UNL     1      11.001  -4.549   5.338  1.00  0.00     0.336 C 
HETATM   29  O3  UNL     1      11.690  -5.268   6.097  1.00  0.00    -0.246 OA
HETATM   30  N12 UNL     1      11.527  -3.688   4.341  1.00  0.00    -0.312 N 
ATOM     31  H12 UNL     1      12.397  -3.882   3.844  1.00  0.00     0.166 HD
HETATM   32  C18 UNL     1      10.721  -2.508   4.087  1.00  0.00     0.314 C 
HETATM   33  C19 UNL     1       9.365  -2.960   3.685  1.00  0.00     0.204 C 
ENDROOT
BRANCH   1  34
HETATM   34  C4  UNL     1       9.510   2.107   4.663  1.00  0.00     0.205 C 
HETATM   35  C3  UNL     1       8.347   2.975   4.359  1.00  0.00     0.283 C 
HETATM   36  O1  UNL     1       8.179   3.789   5.483  1.00  0.00    -0.314 OA
HETATM   37  O2  UNL     1       7.604   3.049   3.349  1.00  0.00    -0.263 OA
HETATM   38  C2  UNL     1       8.574   3.059   6.646  1.00  0.00     0.134 C 
HETATM   39  C1  UNL     1       7.320   2.684   7.406  1.00  0.00     0.040 C 
HETATM   40  C20 UNL     1       9.308   1.843   6.135  1.00  0.00     0.044 C 
HETATM   41  C21 UNL     1      10.626   1.660   6.863  1.00  0.00     0.015 C 
ENDBRANCH   1  34
BRANCH  32  42
HETATM   42  N13 UNL     1      10.719  -1.725   5.309  1.00  0.00    -0.056 N 
ATOM     43 3H13 UNL     1       9.893  -1.885   5.886  1.00  0.00     0.276 HD
ATOM     44 2H13 UNL     1      11.414  -2.038   5.986  1.00  0.00     0.276 HD
ATOM     45 1H13 UNL     1      10.835  -0.749   5.038  1.00  0.00     0.276 HD
ENDBRANCH  32  42
TORSDOF 2
ENDMDL
MODEL 5
REMARK VINA RESULT: -9.864034852      2.606      5.059
REMARK  2 active torsions:
REMARK  status: ('A' for Active; 'I' for Inactive)
REMARK    1  A    between atoms: C4_6  and  N1_7 
REMARK    2  A    between atoms: C18_38  and  N13_39 
ROOT
HETATM    1  N1  UNL     1       5.004   0.774   4.839  1.00  0.00    -0.278 N 
HETATM    2  S1  UNL     1       6.268  -0.445   4.961  1.00  0.00    -0.010 SA
HETATM    3  C5  UNL     1       6.041  -1.829   3.852  1.00  0.00     0.159 C 
HETATM    4  N2  UNL     1       4.690  -2.242   3.662  1.00  0.00    -0.339 N 
ATOM      5  H2  UNL     1       4.571  -3.255   3.696  1.00  0.00     0.164 HD
HETATM    6  C6  UNL     1       3.610  -1.621   3.460  1.00  0.00     0.192 C 
HETATM    7  N3  UNL     1       2.401  -2.381   3.310  1.00  0.00    -0.063 NA
HETATM    8  N4  UNL     1       3.401  -0.231   3.355  1.00  0.00    -0.304 N 
ATOM      9  H4  UNL     1       2.654   0.009   2.704  1.00  0.00     0.171 HD
HETATM   10  C7  UNL     1       3.939   0.801   3.895  1.00  0.00     0.203 C 
HETATM   11  N5  UNL     1       3.463   2.086   3.547  1.00  0.00    -0.062 NA
HETATM   12  C8  UNL     1       6.709  -3.002   4.527  1.00  0.00     0.040 A 
HETATM   13  C9  UNL     1       6.264  -3.751   5.588  1.00  0.00     0.080 A 
HETATM   14  N6  UNL     1       5.023  -3.503   6.256  1.00  0.00    -0.100 NA
HETATM   15  C10 UNL     1       7.030  -4.796   6.052  1.00  0.00     0.091 A 
HETATM   16  C11 UNL     1       6.601  -5.609   7.165  1.00  0.00     0.103 C 
HETATM   17  N7  UNL     1       6.235  -6.263   8.058  1.00  0.00    -0.191 NA
HETATM   18  C12 UNL     1       8.217  -5.048   5.429  1.00  0.00     0.090 A 
HETATM   19  C13 UNL     1       9.004  -6.152   5.934  1.00  0.00     0.102 C 
HETATM   20  N8  UNL     1       9.652  -7.026   6.334  1.00  0.00    -0.191 NA
HETATM   21  C14 UNL     1       8.698  -4.298   4.339  1.00  0.00     0.096 A 
HETATM   22  C15 UNL     1       9.941  -4.670   3.770  1.00  0.00     0.103 C 
HETATM   23  N9  UNL     1      10.958  -5.004   3.319  1.00  0.00    -0.191 NA
HETATM   24  C16 UNL     1       7.905  -3.280   3.922  1.00  0.00     0.085 A 
HETATM   25  N10 UNL     1       8.112  -2.335   2.846  1.00  0.00    -0.274 N 
HETATM   26  N11 UNL     1       9.218  -1.963   2.119  1.00  0.00    -0.248 N 
ATOM     27  H11 UNL     1      10.132  -2.366   2.330  1.00  0.00     0.192 HD
HETATM   28  C17 UNL     1       9.077  -0.997   1.054  1.00  0.00     0.336 C 
HETATM   29  O3  UNL     1      10.104  -0.686   0.410  1.00  0.00    -0.246 OA
HETATM   30  N12 UNL     1       7.781  -0.471   0.814  1.00  0.00    -0.312 N 
ATOM     31  H12 UNL     1       7.464  -0.178  -0.111  1.00  0.00     0.166 HD
HETATM   32  C18 UNL     1       6.944  -0.385   1.997  1.00  0.00     0.314 C 
HETATM   33  C19 UNL     1       6.825  -1.750   2.570  1.00  0.00     0.204 C 
ENDROOT
BRANCH   1  34
HETATM   34  C4  UNL     1       5.023   1.868   5.782  1.00  0.00     0.205 C 
HETATM   35  C3  UNL     1       4.338   1.481   7.039  1.00  0.00     0.283 C 
HETATM   36  O1  UNL     1       4.879   2.302   8.032  1.00  0.00    -0.314 OA
HETATM   37  O2  UNL     1       3.454   0.621   7.274  1.00  0.00    -0.263 OA
HETATM   38  C2  UNL     1       6.243   2.579   7.711  1.00  0.00     0.134 C 
HETATM   39  C1  UNL     1       7.115   1.783   8.658  1.00  0.00     0.040 C 
HETATM   40  C20 UNL     1       6.422   2.141   6.278  1.00  0.00     0.044 C 
HETATM   41  C21 UNL     1       7.111   3.219   5.463  1.00  0.00     0.015 C 
ENDBRANCH   1  34
BRANCH  32  42
HETATM   42  N13 UNL     1       7.579   0.556   2.899  1.00  0.00    -0.056 N 
ATOM     43 3H13 UNL     1       7.611   1.506   2.530  1.00  0.00     0.276 HD
ATOM     44 2H13 UNL     1       7.020   0.757   3.728  1.00  0.00     0.276 HD
ATOM     45 1H13 UNL     1       8.502   0.181   3.120  1.00  0.00     0.276 HD
ENDBRANCH  32  42
TORSDOF 2
ENDMDL
