MODEL 1
REMARK VINA RESULT: -7.749893949      0.000      0.000
REMARK  5 active torsions:
REMARK  status: ('A' for Active; 'I' for Inactive)
REMARK       I    between atoms: C1_2  and  N1_3 
REMARK    1  A    between atoms: C1_2  and  C8_12 
REMARK    2  A    between atoms: N1_3  and  C2_4 
REMARK    3  A    between atoms: C2_4  and  C3_5 
REMARK    4  A    between atoms: C3_5  and  N2_6 
REMARK    5  A    between atoms: C8_12  and  N3_14 
ROOT
HETATM    1  O1  UNL     1      -8.886  23.375  64.149  1.00  0.00    -0.248 OA
HETATM    2  C1  UNL     1      -9.978  22.836  63.894  1.00  0.00     0.353 C 
HETATM    3  N1  UNL     1     -10.367  22.564  62.507  1.00  0.00    -0.380 NA
ENDROOT
BRANCH   2   4
HETATM    4  C8  UNL     1     -10.906  22.453  64.937  1.00  0.00     0.182 C 
HETATM    5  S1  UNL     1     -10.990  23.416  66.281  1.00  0.00    -0.053 SA
BRANCH   4   6
HETATM    6  N3  UNL     1     -11.773  21.365  64.836  1.00  0.00    -0.367 N 
HETATM    7  C9  UNL     1     -11.068  20.046  65.063  1.00  0.00     0.124 C 
HETATM    8  C10 UNL     1     -11.755  19.493  66.286  1.00  0.00     0.020 C 
HETATM    9  C11 UNL     1     -12.912  18.648  66.044  1.00  0.00     0.002 C 
HETATM   10  C12 UNL     1     -13.905  19.026  65.038  1.00  0.00     0.002 C 
HETATM   11  C13 UNL     1     -13.670  20.112  64.079  1.00  0.00     0.020 C 
HETATM   12  C14 UNL     1     -13.197  21.416  64.642  1.00  0.00     0.124 C 
ENDBRANCH   4   6
ENDBRANCH   2   4
BRANCH   3  13
HETATM   13  C2  UNL     1     -10.707  22.325  61.263  1.00  0.00     0.189 C 
BRANCH  13  14
HETATM   14  C3  UNL     1     -11.067  20.892  60.840  1.00  0.00     0.331 C 
BRANCH  14  15
HETATM   15  N2  UNL     1     -11.189  20.834  59.417  1.00  0.00     0.098 N 
HETATM   16  C4  UNL     1     -11.198  22.054  58.758  1.00  0.00     0.299 C 
HETATM   17  C5  UNL     1     -10.006  22.173  57.801  1.00  0.00     0.198 C 
HETATM   18  O2  UNL     1      -9.940  21.104  56.988  1.00  0.00    -0.388 OA
HETATM   19  C6  UNL     1      -9.993  19.847  57.517  1.00  0.00     0.198 C 
HETATM   20  C7  UNL     1     -10.321  19.782  58.936  1.00  0.00     0.299 C 
ENDBRANCH  14  15
ENDBRANCH  13  14
ENDBRANCH   3  13
TORSDOF 5
ENDMDL
MODEL 2
REMARK VINA RESULT: -7.722685893      1.163      1.788
REMARK  5 active torsions:
REMARK  status: ('A' for Active; 'I' for Inactive)
REMARK       I    between atoms: C1_2  and  N1_3 
REMARK    1  A    between atoms: C1_2  and  C8_12 
REMARK    2  A    between atoms: N1_3  and  C2_4 
REMARK    3  A    between atoms: C2_4  and  C3_5 
REMARK    4  A    between atoms: C3_5  and  N2_6 
REMARK    5  A    between atoms: C8_12  and  N3_14 
ROOT
HETATM    1  O1  UNL     1      -9.496  23.876  62.253  1.00  0.00    -0.248 OA
HETATM    2  C1  UNL     1     -10.105  22.875  62.670  1.00  0.00     0.353 C 
HETATM    3  N1  UNL     1     -10.642  21.885  61.731  1.00  0.00    -0.380 NA
ENDROOT
BRANCH   2   4
HETATM    4  C8  UNL     1     -10.310  22.637  64.083  1.00  0.00     0.182 C 
HETATM    5  S1  UNL     1      -9.708  23.755  65.145  1.00  0.00    -0.053 SA
BRANCH   4   6
HETATM    6  N3  UNL     1     -11.043  21.561  64.586  1.00  0.00    -0.367 N 
HETATM    7  C9  UNL     1     -12.363  21.994  65.184  1.00  0.00     0.124 C 
HETATM    8  C10 UNL     1     -13.380  21.287  64.323  1.00  0.00     0.020 C 
HETATM    9  C11 UNL     1     -13.794  19.968  64.774  1.00  0.00     0.002 C 
HETATM   10  C12 UNL     1     -12.802  19.013  65.268  1.00  0.00     0.002 C 
HETATM   11  C13 UNL     1     -11.417  19.403  65.559  1.00  0.00     0.020 C 
HETATM   12  C14 UNL     1     -10.697  20.168  64.493  1.00  0.00     0.124 C 
ENDBRANCH   4   6
ENDBRANCH   2   4
BRANCH   3  13
HETATM   13  C2  UNL     1     -11.118  21.005  60.883  1.00  0.00     0.189 C 
BRANCH  13  14
HETATM   14  C3  UNL     1     -10.303  19.742  60.567  1.00  0.00     0.331 C 
BRANCH  14  15
HETATM   15  N2  UNL     1     -10.294  19.524  59.154  1.00  0.00     0.098 N 
HETATM   16  C4  UNL     1     -10.973  20.461  58.391  1.00  0.00     0.299 C 
HETATM   17  C5  UNL     1     -10.022  21.183  57.430  1.00  0.00     0.198 C 
HETATM   18  O2  UNL     1      -9.308  20.297  56.713  1.00  0.00    -0.388 OA
HETATM   19  C6  UNL     1      -8.651  19.284  57.349  1.00  0.00     0.198 C 
HETATM   20  C7  UNL     1      -8.954  19.141  58.769  1.00  0.00     0.299 C 
ENDBRANCH  14  15
ENDBRANCH  13  14
ENDBRANCH   3  13
TORSDOF 5
ENDMDL
MODEL 3
REMARK VINA RESULT: -7.662415825      0.761      1.250
REMARK  5 active torsions:
REMARK  status: ('A' for Active; 'I' for Inactive)
REMARK       I    between atoms: C1_2  and  N1_3 
REMARK    1  A    between atoms: C1_2  and  C8_12 
REMARK    2  A    between atoms: N1_3  and  C2_4 
REMARK    3  A    between atoms: C2_4  and  C3_5 
REMARK    4  A    between atoms: C3_5  and  N2_6 
REMARK    5  A    between atoms: C8_12  and  N3_14 
ROOT
HETATM    1  O1  UNL     1      -8.811  23.222  64.186  1.00  0.00    -0.248 OA
HETATM    2  C1  UNL     1      -9.943  22.789  63.908  1.00  0.00     0.353 C 
HETATM    3  N1  UNL     1     -10.359  22.639  62.510  1.00  0.00    -0.380 NA
ENDROOT
BRANCH   2   4
HETATM    4  C8  UNL     1     -10.893  22.413  64.933  1.00  0.00     0.182 C 
HETATM    5  S1  UNL     1     -11.001  23.382  66.272  1.00  0.00    -0.053 SA
BRANCH   4   6
HETATM    6  N3  UNL     1     -11.763  21.328  64.819  1.00  0.00    -0.367 N 
HETATM    7  C9  UNL     1     -11.052  20.003  64.986  1.00  0.00     0.124 C 
HETATM    8  C10 UNL     1     -11.710  19.412  66.208  1.00  0.00     0.020 C 
HETATM    9  C11 UNL     1     -12.872  18.573  65.966  1.00  0.00     0.002 C 
HETATM   10  C12 UNL     1     -13.889  18.983  64.997  1.00  0.00     0.002 C 
HETATM   11  C13 UNL     1     -13.678  20.099  64.068  1.00  0.00     0.020 C 
HETATM   12  C14 UNL     1     -13.191  21.384  64.661  1.00  0.00     0.124 C 
ENDBRANCH   4   6
ENDBRANCH   2   4
BRANCH   3  13
HETATM   13  C2  UNL     1     -10.722  22.508  61.257  1.00  0.00     0.189 C 
BRANCH  13  14
HETATM   14  C3  UNL     1     -11.040  21.110  60.704  1.00  0.00     0.331 C 
BRANCH  14  15
HETATM   15  N2  UNL     1     -10.780  21.086  59.298  1.00  0.00     0.098 N 
HETATM   16  C4  UNL     1     -11.470  20.129  58.570  1.00  0.00     0.299 C 
HETATM   17  C5  UNL     1     -12.386  20.782  57.529  1.00  0.00     0.198 C 
HETATM   18  O2  UNL     1     -11.700  21.662  56.778  1.00  0.00    -0.388 OA
HETATM   19  C6  UNL     1     -10.926  22.610  57.383  1.00  0.00     0.198 C 
HETATM   20  C7  UNL     1     -10.760  22.451  58.823  1.00  0.00     0.299 C 
ENDBRANCH  14  15
ENDBRANCH  13  14
ENDBRANCH   3  13
TORSDOF 5
ENDMDL
MODEL 4
REMARK VINA RESULT: -7.569531100      1.935      2.723
REMARK  5 active torsions:
REMARK  status: ('A' for Active; 'I' for Inactive)
REMARK       I    between atoms: C1_2  and  N1_3 
REMARK    1  A    between atoms: C1_2  and  C8_12 
REMARK    2  A    between atoms: N1_3  and  C2_4 
REMARK    3  A    between atoms: C2_4  and  C3_5 
REMARK    4  A    between atoms: C3_5  and  N2_6 
REMARK    5  A    between atoms: C8_12  and  N3_14 
ROOT
HETATM    1  O1  UNL     1      -9.912  19.846  61.767  1.00  0.00    -0.248 OA
HETATM    2  C1  UNL     1     -10.397  20.949  62.077  1.00  0.00     0.353 C 
HETATM    3  N1  UNL     1     -10.843  21.883  61.038  1.00  0.00    -0.380 NA
ENDROOT
BRANCH   2   4
HETATM    4  C8  UNL     1     -10.548  21.360  63.456  1.00  0.00     0.182 C 
HETATM    5  S1  UNL     1      -9.725  22.709  63.949  1.00  0.00    -0.053 SA
BRANCH   4   6
HETATM    6  N3  UNL     1     -11.398  20.725  64.362  1.00  0.00    -0.367 N 
HETATM    7  C9  UNL     1     -12.825  21.216  64.252  1.00  0.00     0.124 C 
HETATM    8  C10 UNL     1     -13.586  19.977  63.853  1.00  0.00     0.020 C 
HETATM    9  C11 UNL     1     -14.118  19.174  64.942  1.00  0.00     0.002 C 
HETATM   10  C12 UNL     1     -13.302  18.903  66.125  1.00  0.00     0.002 C 
HETATM   11  C13 UNL     1     -12.039  19.605  66.381  1.00  0.00     0.020 C 
HETATM   12  C14 UNL     1     -11.055  19.651  65.254  1.00  0.00     0.124 C 
ENDBRANCH   4   6
ENDBRANCH   2   4
BRANCH   3  13
HETATM   13  C2  UNL     1     -11.239  22.712  60.102  1.00  0.00     0.189 C 
BRANCH  13  14
HETATM   14  C3  UNL     1     -10.354  22.934  58.866  1.00  0.00     0.331 C 
BRANCH  14  15
HETATM   15  N2  UNL     1     -11.025  22.431  57.707  1.00  0.00     0.098 N 
HETATM   16  C4  UNL     1     -10.932  21.064  57.497  1.00  0.00     0.299 C 
HETATM   17  C5  UNL     1     -12.314  20.403  57.539  1.00  0.00     0.198 C 
HETATM   18  O2  UNL     1     -13.168  21.034  56.714  1.00  0.00    -0.388 OA
HETATM   19  C6  UNL     1     -13.294  22.392  56.779  1.00  0.00     0.198 C 
HETATM   20  C7  UNL     1     -12.321  23.067  57.629  1.00  0.00     0.299 C 
ENDBRANCH  14  15
ENDBRANCH  13  14
ENDBRANCH   3  13
TORSDOF 5
ENDMDL
MODEL 5
REMARK VINA RESULT: -7.497495837      1.341      2.011
REMARK  5 active torsions:
REMARK  status: ('A' for Active; 'I' for Inactive)
REMARK       I    between atoms: C1_2  and  N1_3 
REMARK    1  A    between atoms: C1_2  and  C8_12 
REMARK    2  A    between atoms: N1_3  and  C2_4 
REMARK    3  A    between atoms: C2_4  and  C3_5 
REMARK    4  A    between atoms: C3_5  and  N2_6 
REMARK    5  A    between atoms: C8_12  and  N3_14 
ROOT
HETATM    1  O1  UNL     1     -10.216  23.342  61.939  1.00  0.00    -0.248 OA
HETATM    2  C1  UNL     1     -10.368  22.255  62.524  1.00  0.00     0.353 C 
HETATM    3  N1  UNL     1     -10.404  21.000  61.766  1.00  0.00    -0.380 NA
ENDROOT
BRANCH   2   4
HETATM    4  C8  UNL     1     -10.512  22.173  63.962  1.00  0.00     0.182 C 
HETATM    5  S1  UNL     1      -9.803  23.359  64.874  1.00  0.00    -0.053 SA
BRANCH   4   6
HETATM    6  N3  UNL     1     -11.268  21.193  64.607  1.00  0.00    -0.367 N 
HETATM    7  C9  UNL     1     -12.646  21.689  64.986  1.00  0.00     0.124 C 
HETATM    8  C10 UNL     1     -13.565  20.786  64.201  1.00  0.00     0.020 C 
HETATM    9  C11 UNL     1     -13.995  19.571  64.873  1.00  0.00     0.002 C 
HETATM   10  C12 UNL     1     -13.036  18.771  65.637  1.00  0.00     0.002 C 
HETATM   11  C13 UNL     1     -11.692  19.263  65.962  1.00  0.00     0.020 C 
HETATM   12  C14 UNL     1     -10.889  19.824  64.830  1.00  0.00     0.124 C 
ENDBRANCH   4   6
ENDBRANCH   2   4
BRANCH   3  13
HETATM   13  C2  UNL     1     -10.435  19.883  61.080  1.00  0.00     0.189 C 
BRANCH  13  14
HETATM   14  C3  UNL     1     -10.201  19.922  59.562  1.00  0.00     0.331 C 
BRANCH  14  15
HETATM   15  N2  UNL     1     -11.060  20.902  58.974  1.00  0.00     0.098 N 
HETATM   16  C4  UNL     1     -10.442  22.054  58.514  1.00  0.00     0.299 C 
HETATM   17  C5  UNL     1     -10.630  22.215  57.001  1.00  0.00     0.198 C 
HETATM   18  O2  UNL     1     -11.930  22.114  56.671  1.00  0.00    -0.388 OA
HETATM   19  C6  UNL     1     -12.664  21.057  57.126  1.00  0.00     0.198 C 
HETATM   20  C7  UNL     1     -11.998  20.216  58.114  1.00  0.00     0.299 C 
ENDBRANCH  14  15
ENDBRANCH  13  14
ENDBRANCH   3  13
TORSDOF 5
ENDMDL
