MODEL 1
REMARK VINA RESULT: -7.481761119      0.000      0.000
REMARK  3 active torsions:
REMARK  status: ('A' for Active; 'I' for Inactive)
REMARK       I    between atoms: C2_2  and  N1_4 
REMARK    1  A    between atoms: N1_4  and  C3_6 
REMARK    2  A    between atoms: C3_6  and  C4_7 
REMARK    3  A    between atoms: C4_7  and  N2_8 
ROOT
HETATM    1  N2  UNL     1     -10.777  20.904  61.897  1.00  0.00    -0.257 NA
HETATM    2  C5  UNL     1     -12.118  20.600  62.254  1.00  0.00     0.338 C 
HETATM    3  N3  UNL     1     -12.409  20.334  63.611  1.00  0.00     0.048 N 
HETATM    4  O2  UNL     1     -13.443  19.416  63.622  1.00  0.00    -0.059 OA
HETATM    5  C6  UNL     1     -13.004  21.491  64.303  1.00  0.00     0.345 C 
HETATM    6  C7  UNL     1     -11.961  22.470  64.760  1.00  0.00     0.205 C 
HETATM    7  O3  UNL     1     -11.396  23.025  63.626  1.00  0.00    -0.376 OA
HETATM    8  C8  UNL     1     -10.081  22.640  63.421  1.00  0.00     0.077 C 
HETATM    9  C9  UNL     1      -9.598  23.524  62.255  1.00  0.00     0.040 C 
HETATM   10  C10 UNL     1      -9.387  24.931  62.829  1.00  0.00     0.003 C 
HETATM   11  C11 UNL     1      -8.015  24.917  63.482  1.00  0.00     0.000 C 
HETATM   12  C12 UNL     1      -7.879  23.577  64.181  1.00  0.00     0.003 C 
HETATM   13  C13 UNL     1      -9.262  23.056  64.595  1.00  0.00     0.040 C 
HETATM   14  C14 UNL     1      -9.894  21.241  62.980  1.00  0.00     0.101 C 
HETATM   15  C15 UNL     1      -9.980  20.172  64.003  1.00  0.00     0.060 C 
HETATM   16  C16 UNL     1     -11.363  19.773  64.396  1.00  0.00     0.321 C 
ENDROOT
BRANCH   1  17
HETATM   17  C4  UNL     1     -10.139  19.884  61.098  1.00  0.00     0.117 C 
BRANCH  17  18
HETATM   18  C3  UNL     1     -10.829  19.545  59.824  1.00  0.00     0.137 C 
BRANCH  18  19
HETATM   19  N1  UNL     1     -10.223  20.296  58.746  1.00  0.00    -0.360 N 
HETATM   20  C2  UNL     1     -10.822  21.459  58.190  1.00  0.00     0.213 C 
HETATM   21  C1  UNL     1     -10.144  22.177  57.083  1.00  0.00     0.117 C 
HETATM   22  O1  UNL     1     -11.913  21.923  58.588  1.00  0.00    -0.274 OA
ATOM     23  H1  UNL     1      -9.330  19.978  58.369  1.00  0.00     0.162 HD
ENDBRANCH  18  19
ENDBRANCH  17  18
ENDBRANCH   1  17
TORSDOF 3
ENDMDL
MODEL 2
REMARK VINA RESULT: -6.923384690      3.015      6.602
REMARK  3 active torsions:
REMARK  status: ('A' for Active; 'I' for Inactive)
REMARK       I    between atoms: C2_2  and  N1_4 
REMARK    1  A    between atoms: N1_4  and  C3_6 
REMARK    2  A    between atoms: C3_6  and  C4_7 
REMARK    3  A    between atoms: C4_7  and  N2_8 
ROOT
HETATM    1  N2  UNL     1     -11.036  23.077  65.024  1.00  0.00    -0.257 NA
HETATM    2  C5  UNL     1     -10.720  23.846  63.872  1.00  0.00     0.338 C 
HETATM    3  N3  UNL     1      -9.906  23.262  62.876  1.00  0.00     0.048 N 
HETATM    4  O2  UNL     1      -9.170  24.289  62.314  1.00  0.00    -0.059 OA
HETATM    5  C6  UNL     1     -10.680  22.761  61.728  1.00  0.00     0.345 C 
HETATM    6  C7  UNL     1     -11.263  21.402  61.992  1.00  0.00     0.205 C 
HETATM    7  O3  UNL     1     -12.213  21.549  62.986  1.00  0.00    -0.376 OA
HETATM    8  C8  UNL     1     -11.848  20.964  64.188  1.00  0.00     0.077 C 
HETATM    9  C9  UNL     1     -13.114  21.061  65.062  1.00  0.00     0.040 C 
HETATM   10  C10 UNL     1     -14.095  20.009  64.530  1.00  0.00     0.003 C 
HETATM   11  C11 UNL     1     -13.677  18.689  65.155  1.00  0.00     0.000 C 
HETATM   12  C12 UNL     1     -12.159  18.662  65.141  1.00  0.00     0.003 C 
HETATM   13  C13 UNL     1     -11.629  19.506  63.974  1.00  0.00     0.040 C 
HETATM   14  C14 UNL     1     -10.780  21.665  64.933  1.00  0.00     0.101 C 
HETATM   15  C15 UNL     1      -9.380  21.471  64.488  1.00  0.00     0.060 C 
HETATM   16  C16 UNL     1      -8.967  22.281  63.305  1.00  0.00     0.321 C 
ENDROOT
BRANCH   1  17
HETATM   17  C4  UNL     1     -10.426  23.566  66.239  1.00  0.00     0.117 C 
BRANCH  17  18
HETATM   18  C3  UNL     1     -10.638  25.011  66.523  1.00  0.00     0.137 C 
BRANCH  18  19
HETATM   19  N1  UNL     1     -11.554  25.142  67.636  1.00  0.00    -0.360 N 
HETATM   20  C2  UNL     1     -12.391  26.279  67.810  1.00  0.00     0.213 C 
HETATM   21  C1  UNL     1     -13.304  26.347  68.978  1.00  0.00     0.117 C 
HETATM   22  O1  UNL     1     -12.402  27.247  67.020  1.00  0.00    -0.274 OA
ATOM     23  H1  UNL     1     -11.600  24.390  68.323  1.00  0.00     0.162 HD
ENDBRANCH  18  19
ENDBRANCH  17  18
ENDBRANCH   1  17
TORSDOF 3
ENDMDL
MODEL 3
REMARK VINA RESULT: -6.827662512      1.866      4.195
REMARK  3 active torsions:
REMARK  status: ('A' for Active; 'I' for Inactive)
REMARK       I    between atoms: C2_2  and  N1_4 
REMARK    1  A    between atoms: N1_4  and  C3_6 
REMARK    2  A    between atoms: C3_6  and  C4_7 
REMARK    3  A    between atoms: C4_7  and  N2_8 
ROOT
HETATM    1  N2  UNL     1      -9.888  20.646  63.338  1.00  0.00    -0.257 NA
HETATM    2  C5  UNL     1      -9.084  21.744  63.747  1.00  0.00     0.338 C 
HETATM    3  N3  UNL     1      -9.677  23.025  63.814  1.00  0.00     0.048 N 
HETATM    4  O2  UNL     1      -8.687  23.937  63.500  1.00  0.00    -0.059 OA
HETATM    5  C6  UNL     1     -10.043  23.413  65.186  1.00  0.00     0.345 C 
HETATM    6  C7  UNL     1     -11.361  22.825  65.605  1.00  0.00     0.205 C 
HETATM    7  O3  UNL     1     -11.190  21.455  65.688  1.00  0.00    -0.376 OA
HETATM    8  C8  UNL     1     -11.872  20.754  64.707  1.00  0.00     0.077 C 
HETATM    9  C9  UNL     1     -11.718  19.275  65.114  1.00  0.00     0.040 C 
HETATM   10  C10 UNL     1     -12.650  19.050  66.311  1.00  0.00     0.003 C 
HETATM   11  C11 UNL     1     -14.035  18.821  65.729  1.00  0.00     0.000 C 
HETATM   12  C12 UNL     1     -14.190  19.797  64.577  1.00  0.00     0.003 C 
HETATM   13  C13 UNL     1     -13.329  21.043  64.824  1.00  0.00     0.040 C 
HETATM   14  C14 UNL     1     -11.309  20.865  63.344  1.00  0.00     0.101 C 
HETATM   15  C15 UNL     1     -11.595  22.097  62.572  1.00  0.00     0.060 C 
HETATM   16  C16 UNL     1     -10.758  23.280  62.923  1.00  0.00     0.321 C 
ENDROOT
BRANCH   1  17
HETATM   17  C4  UNL     1      -9.523  20.102  62.051  1.00  0.00     0.117 C 
BRANCH  17  18
HETATM   18  C3  UNL     1     -10.627  19.449  61.298  1.00  0.00     0.137 C 
BRANCH  18  19
HETATM   19  N1  UNL     1     -10.261  19.370  59.900  1.00  0.00    -0.360 N 
HETATM   20  C2  UNL     1     -11.074  19.905  58.863  1.00  0.00     0.213 C 
HETATM   21  C1  UNL     1     -10.636  19.784  57.450  1.00  0.00     0.117 C 
HETATM   22  O1  UNL     1     -12.162  20.483  59.075  1.00  0.00    -0.274 OA
ATOM     23  H1  UNL     1      -9.385  18.912  59.649  1.00  0.00     0.162 HD
ENDBRANCH  18  19
ENDBRANCH  17  18
ENDBRANCH   1  17
TORSDOF 3
ENDMDL
MODEL 4
REMARK VINA RESULT: -6.759255566      2.322      5.598
REMARK  3 active torsions:
REMARK  status: ('A' for Active; 'I' for Inactive)
REMARK       I    between atoms: C2_2  and  N1_4 
REMARK    1  A    between atoms: N1_4  and  C3_6 
REMARK    2  A    between atoms: C3_6  and  C4_7 
REMARK    3  A    between atoms: C4_7  and  N2_8 
ROOT
HETATM    1  N2  UNL     1     -11.147  22.763  64.611  1.00  0.00    -0.257 NA
HETATM    2  C5  UNL     1     -10.942  23.384  63.350  1.00  0.00     0.338 C 
HETATM    3  N3  UNL     1     -10.249  22.666  62.350  1.00  0.00     0.048 N 
HETATM    4  O2  UNL     1      -9.560  23.599  61.598  1.00  0.00    -0.059 OA
HETATM    5  C6  UNL     1     -11.150  22.059  61.356  1.00  0.00     0.345 C 
HETATM    6  C7  UNL     1     -11.725  20.757  61.837  1.00  0.00     0.205 C 
HETATM    7  O3  UNL     1     -12.561  21.046  62.900  1.00  0.00    -0.376 OA
HETATM    8  C8  UNL     1     -12.080  20.593  64.117  1.00  0.00     0.077 C 
HETATM    9  C9  UNL     1     -13.244  20.827  65.102  1.00  0.00     0.040 C 
HETATM   10  C10 UNL     1     -14.294  19.750  64.802  1.00  0.00     0.003 C 
HETATM   11  C11 UNL     1     -13.834  18.499  65.531  1.00  0.00     0.000 C 
HETATM   12  C12 UNL     1     -12.328  18.426  65.362  1.00  0.00     0.003 C 
HETATM   13  C13 UNL     1     -11.910  19.114  64.055  1.00  0.00     0.040 C 
HETATM   14  C14 UNL     1     -10.927  21.343  64.661  1.00  0.00     0.101 C 
HETATM   15  C15 UNL     1      -9.586  21.058  64.098  1.00  0.00     0.060 C 
HETATM   16  C16 UNL     1      -9.288  21.714  62.792  1.00  0.00     0.321 C 
ENDROOT
BRANCH   1  17
HETATM   17  C4  UNL     1     -10.403  23.370  65.690  1.00  0.00     0.117 C 
BRANCH  17  18
HETATM   18  C3  UNL     1      -9.642  24.597  65.330  1.00  0.00     0.137 C 
BRANCH  18  19
HETATM   19  N1  UNL     1      -8.248  24.251  65.154  1.00  0.00    -0.360 N 
HETATM   20  C2  UNL     1      -7.437  24.829  64.139  1.00  0.00     0.213 C 
HETATM   21  C1  UNL     1      -6.014  24.424  64.016  1.00  0.00     0.117 C 
HETATM   22  O1  UNL     1      -7.861  25.677  63.324  1.00  0.00    -0.274 OA
ATOM     23  H1  UNL     1      -7.830  23.566  65.783  1.00  0.00     0.162 HD
ENDBRANCH  18  19
ENDBRANCH  17  18
ENDBRANCH   1  17
TORSDOF 3
ENDMDL
MODEL 5
REMARK VINA RESULT: -6.325429436      2.673      4.981
REMARK  3 active torsions:
REMARK  status: ('A' for Active; 'I' for Inactive)
REMARK       I    between atoms: C2_2  and  N1_4 
REMARK    1  A    between atoms: N1_4  and  C3_6 
REMARK    2  A    between atoms: C3_6  and  C4_7 
REMARK    3  A    between atoms: C4_7  and  N2_8 
ROOT
HETATM    1  N2  UNL     1     -11.292  21.357  65.228  1.00  0.00    -0.257 NA
HETATM    2  C5  UNL     1     -11.555  20.372  66.217  1.00  0.00     0.338 C 
HETATM    3  N3  UNL     1     -12.715  19.576  66.083  1.00  0.00     0.048 N 
HETATM    4  O2  UNL     1     -13.143  19.282  67.364  1.00  0.00    -0.059 OA
HETATM    5  C6  UNL     1     -12.429  18.241  65.530  1.00  0.00     0.345 C 
HETATM    6  C7  UNL     1     -12.321  18.264  64.031  1.00  0.00     0.205 C 
HETATM    7  O3  UNL     1     -11.192  18.996  63.714  1.00  0.00    -0.376 OA
HETATM    8  C8  UNL     1     -11.474  20.211  63.111  1.00  0.00     0.077 C 
HETATM    9  C9  UNL     1     -10.100  20.746  62.660  1.00  0.00     0.040 C 
HETATM   10  C10 UNL     1      -9.689  19.920  61.435  1.00  0.00     0.003 C 
HETATM   11  C11 UNL     1     -10.403  20.544  60.248  1.00  0.00     0.000 C 
HETATM   12  C12 UNL     1     -11.798  20.909  60.721  1.00  0.00     0.003 C 
HETATM   13  C13 UNL     1     -12.233  19.967  61.852  1.00  0.00     0.040 C 
HETATM   14  C14 UNL     1     -12.042  21.243  64.006  1.00  0.00     0.101 C 
HETATM   15  C15 UNL     1     -13.481  21.151  64.347  1.00  0.00     0.060 C 
HETATM   16  C16 UNL     1     -13.824  20.163  65.411  1.00  0.00     0.321 C 
ENDROOT
BRANCH   1  17
HETATM   17  C4  UNL     1     -11.417  22.714  65.706  1.00  0.00     0.117 C 
BRANCH  17  18
HETATM   18  C3  UNL     1     -10.142  23.473  65.813  1.00  0.00     0.137 C 
BRANCH  18  19
HETATM   19  N1  UNL     1      -9.818  24.034  64.519  1.00  0.00    -0.360 N 
HETATM   20  C2  UNL     1      -8.481  24.295  64.111  1.00  0.00     0.213 C 
HETATM   21  C1  UNL     1      -8.223  24.875  62.769  1.00  0.00     0.117 C 
HETATM   22  O1  UNL     1      -7.487  24.061  64.831  1.00  0.00    -0.274 OA
ATOM     23  H1  UNL     1     -10.578  24.251  63.875  1.00  0.00     0.162 HD
ENDBRANCH  18  19
ENDBRANCH  17  18
ENDBRANCH   1  17
TORSDOF 3
ENDMDL
