MODEL 1
REMARK VINA RESULT: -7.665126316      0.000      0.000
REMARK  7 active torsions:
REMARK  status: ('A' for Active; 'I' for Inactive)
REMARK    1  A    between atoms: C2_2  and  C4_4 
REMARK    2  A    between atoms: C4_4  and  C5_5 
REMARK    3  A    between atoms: C5_5  and  C6_6 
REMARK    4  A    between atoms: C6_6  and  C7_7 
REMARK    5  A    between atoms: C7_7  and  C9_9 
REMARK    6  A    between atoms: C13_13  and  N1_15 
REMARK       I    between atoms: N1_15  and  C15_17 
REMARK    7  A    between atoms: C15_17  and  O2_19 
ROOT
HETATM    1  C9  UNL     1     -14.372  -8.032   5.706  1.00  0.00     0.002 A 
HETATM    2  C10 UNL     1     -13.844  -6.726   6.172  1.00  0.00    -0.006 A 
HETATM    3  C11 UNL     1     -14.565  -5.461   5.876  1.00  0.00     0.011 C 
HETATM    4  C12 UNL     1     -13.889  -7.234   7.568  1.00  0.00     0.026 A 
HETATM    5  C13 UNL     1     -12.623  -7.432   8.334  1.00  0.00     0.036 C 
HETATM    6  C14 UNL     1     -12.300  -6.153   9.070  1.00  0.00     0.039 C 
HETATM    7  C17 UNL     1     -12.821  -8.491   9.418  1.00  0.00     0.031 C 
HETATM    8  C18 UNL     1     -13.275  -9.792   8.855  1.00  0.00     0.003 C 
HETATM    9  C19 UNL     1     -13.763  -9.739   7.433  1.00  0.00     0.010 C 
HETATM   10  C20 UNL     1     -14.537  -8.496   7.088  1.00  0.00    -0.033 A 
HETATM   11  C21 UNL     1     -15.906  -8.619   7.693  1.00  0.00     0.016 C 
ENDROOT
BRANCH   1  12
HETATM   12  C7  UNL     1     -15.433  -8.136   4.687  1.00  0.00    -0.013 C 
HETATM   13  C8  UNL     1     -14.840  -8.617   3.385  1.00  0.00     0.010 C 
BRANCH  12  14
HETATM   14  C6  UNL     1     -16.721  -8.723   4.915  1.00  0.00     0.005 C 
BRANCH  14  15
HETATM   15  C5  UNL     1     -17.881  -7.789   4.888  1.00  0.00     0.005 C 
BRANCH  15  16
HETATM   16  C4  UNL     1     -18.165  -6.944   3.723  1.00  0.00     0.033 C 
BRANCH  16  17
HETATM   17  C2  UNL     1     -17.710  -5.540   4.113  1.00  0.00    -0.093 C 
HETATM   18  C1  UNL     1     -18.188  -4.912   5.177  1.00  0.00     0.014 C 
HETATM   19  C3  UNL     1     -16.707  -4.878   3.268  1.00  0.00     0.042 C 
ENDBRANCH  16  17
ENDBRANCH  15  16
ENDBRANCH  14  15
ENDBRANCH  12  14
ENDBRANCH   1  12
BRANCH   5  20
HETATM   20  N1  UNL     1     -11.475  -7.812   7.569  1.00  0.00    -0.328 N 
HETATM   21  C15 UNL     1     -10.117  -7.618   7.922  1.00  0.00     0.360 C 
HETATM   22  O1  UNL     1      -9.704  -7.071   8.976  1.00  0.00    -0.239 OA
ATOM     23  H1  UNL     1     -11.654  -8.269   6.675  1.00  0.00     0.165 HD
BRANCH  21  24
HETATM   24  O2  UNL     1      -9.072  -8.047   7.074  1.00  0.00    -0.309 OA
HETATM   25  C16 UNL     1      -8.340  -9.230   7.333  1.00  0.00     0.215 C 
ENDBRANCH  21  24
ENDBRANCH   5  20
TORSDOF 7
ENDMDL
MODEL 2
REMARK VINA RESULT: -7.178577603      1.421      1.601
REMARK  7 active torsions:
REMARK  status: ('A' for Active; 'I' for Inactive)
REMARK    1  A    between atoms: C2_2  and  C4_4 
REMARK    2  A    between atoms: C4_4  and  C5_5 
REMARK    3  A    between atoms: C5_5  and  C6_6 
REMARK    4  A    between atoms: C6_6  and  C7_7 
REMARK    5  A    between atoms: C7_7  and  C9_9 
REMARK    6  A    between atoms: C13_13  and  N1_15 
REMARK       I    between atoms: N1_15  and  C15_17 
REMARK    7  A    between atoms: C15_17  and  O2_19 
ROOT
HETATM    1  C9  UNL     1     -13.606  -7.957   5.831  1.00  0.00     0.002 A 
HETATM    2  C10 UNL     1     -13.504  -6.944   6.911  1.00  0.00    -0.006 A 
HETATM    3  C11 UNL     1     -14.716  -6.271   7.445  1.00  0.00     0.011 C 
HETATM    4  C12 UNL     1     -12.847  -7.963   7.770  1.00  0.00     0.026 A 
HETATM    5  C13 UNL     1     -11.422  -7.790   8.183  1.00  0.00     0.036 C 
HETATM    6  C14 UNL     1     -11.387  -7.025   9.485  1.00  0.00     0.039 C 
HETATM    7  C17 UNL     1     -10.791  -9.149   8.486  1.00  0.00     0.031 C 
HETATM    8  C18 UNL     1     -10.868 -10.075   7.324  1.00  0.00     0.003 C 
HETATM    9  C19 UNL     1     -11.808  -9.653   6.229  1.00  0.00     0.010 C 
HETATM   10  C20 UNL     1     -13.074  -9.000   6.714  1.00  0.00    -0.033 A 
HETATM   11  C21 UNL     1     -13.973 -10.076   7.252  1.00  0.00     0.016 C 
ENDROOT
BRANCH   1  12
HETATM   12  C7  UNL     1     -14.829  -8.128   5.024  1.00  0.00    -0.013 C 
HETATM   13  C8  UNL     1     -14.515  -8.955   3.799  1.00  0.00     0.010 C 
BRANCH  12  14
HETATM   14  C6  UNL     1     -16.114  -8.468   5.560  1.00  0.00     0.005 C 
BRANCH  14  15
HETATM   15  C5  UNL     1     -17.257  -7.632   5.102  1.00  0.00     0.005 C 
BRANCH  15  16
HETATM   16  C4  UNL     1     -17.175  -6.807   3.892  1.00  0.00     0.033 C 
BRANCH  16  17
HETATM   17  C2  UNL     1     -17.081  -5.365   4.384  1.00  0.00    -0.093 C 
HETATM   18  C1  UNL     1     -18.104  -4.743   4.950  1.00  0.00     0.014 C 
HETATM   19  C3  UNL     1     -15.804  -4.658   4.215  1.00  0.00     0.042 C 
ENDBRANCH  16  17
ENDBRANCH  15  16
ENDBRANCH  14  15
ENDBRANCH  12  14
ENDBRANCH   1  12
BRANCH   5  20
HETATM   20  N1  UNL     1     -10.571  -7.122   7.246  1.00  0.00    -0.328 N 
HETATM   21  C15 UNL     1      -9.170  -6.941   7.351  1.00  0.00     0.360 C 
HETATM   22  O1  UNL     1      -8.448  -7.342   8.299  1.00  0.00    -0.239 OA
ATOM     23  H1  UNL     1     -11.021  -6.735   6.417  1.00  0.00     0.165 HD
BRANCH  21  24
HETATM   24  O2  UNL     1      -8.442  -6.263   6.348  1.00  0.00    -0.309 OA
HETATM   25  C16 UNL     1      -7.186  -6.730   5.895  1.00  0.00     0.215 C 
ENDBRANCH  21  24
ENDBRANCH   5  20
TORSDOF 7
ENDMDL
MODEL 3
REMARK VINA RESULT: -6.667192683      2.977      7.422
REMARK  7 active torsions:
REMARK  status: ('A' for Active; 'I' for Inactive)
REMARK    1  A    between atoms: C2_2  and  C4_4 
REMARK    2  A    between atoms: C4_4  and  C5_5 
REMARK    3  A    between atoms: C5_5  and  C6_6 
REMARK    4  A    between atoms: C6_6  and  C7_7 
REMARK    5  A    between atoms: C7_7  and  C9_9 
REMARK    6  A    between atoms: C13_13  and  N1_15 
REMARK       I    between atoms: N1_15  and  C15_17 
REMARK    7  A    between atoms: C15_17  and  O2_19 
ROOT
HETATM    1  C9  UNL     1     -10.548  -7.727   7.255  1.00  0.00     0.002 A 
HETATM    2  C10 UNL     1     -10.978  -9.133   7.052  1.00  0.00    -0.006 A 
HETATM    3  C11 UNL     1     -10.038 -10.260   7.282  1.00  0.00     0.011 C 
HETATM    4  C12 UNL     1     -12.056  -8.920   8.053  1.00  0.00     0.026 A 
HETATM    5  C13 UNL     1     -13.488  -8.967   7.633  1.00  0.00     0.036 C 
HETATM    6  C14 UNL     1     -13.983 -10.388   7.764  1.00  0.00     0.039 C 
HETATM    7  C17 UNL     1     -14.347  -8.142   8.592  1.00  0.00     0.031 C 
HETATM    8  C18 UNL     1     -13.895  -6.727   8.674  1.00  0.00     0.003 C 
HETATM    9  C19 UNL     1     -12.534  -6.455   8.094  1.00  0.00     0.010 C 
HETATM   10  C20 UNL     1     -11.527  -7.547   8.332  1.00  0.00    -0.033 A 
HETATM   11  C21 UNL     1     -11.080  -7.463   9.763  1.00  0.00     0.016 C 
ENDROOT
BRANCH   1  12
HETATM   12  C7  UNL     1      -9.129  -7.347   7.382  1.00  0.00    -0.013 C 
HETATM   13  C8  UNL     1      -8.991  -5.849   7.246  1.00  0.00     0.010 C 
BRANCH  12  14
HETATM   14  C6  UNL     1      -8.239  -7.858   8.384  1.00  0.00     0.005 C 
BRANCH  14  15
HETATM   15  C5  UNL     1      -7.079  -8.649   7.888  1.00  0.00     0.005 C 
BRANCH  15  16
HETATM   16  C4  UNL     1      -6.685  -8.640   6.475  1.00  0.00     0.033 C 
BRANCH  16  17
HETATM   17  C2  UNL     1      -5.521  -7.659   6.379  1.00  0.00    -0.093 C 
HETATM   18  C1  UNL     1      -5.664  -6.437   5.886  1.00  0.00     0.014 C 
HETATM   19  C3  UNL     1      -4.203  -8.100   6.854  1.00  0.00     0.042 C 
ENDBRANCH  16  17
ENDBRANCH  15  16
ENDBRANCH  14  15
ENDBRANCH  12  14
ENDBRANCH   1  12
BRANCH   5  20
HETATM   20  N1  UNL     1     -13.772  -8.514   6.306  1.00  0.00    -0.328 N 
HETATM   21  C15 UNL     1     -15.045  -8.203   5.768  1.00  0.00     0.360 C 
HETATM   22  O1  UNL     1     -16.140  -8.283   6.382  1.00  0.00    -0.239 OA
ATOM     23  H1  UNL     1     -12.973  -8.403   5.682  1.00  0.00     0.165 HD
BRANCH  21  24
HETATM   24  O2  UNL     1     -15.188  -7.758   4.435  1.00  0.00    -0.309 OA
HETATM   25  C16 UNL     1     -14.956  -8.615   3.335  1.00  0.00     0.215 C 
ENDBRANCH  21  24
ENDBRANCH   5  20
TORSDOF 7
ENDMDL
MODEL 4
REMARK VINA RESULT: -6.624344343      1.907      3.734
REMARK  7 active torsions:
REMARK  status: ('A' for Active; 'I' for Inactive)
REMARK    1  A    between atoms: C2_2  and  C4_4 
REMARK    2  A    between atoms: C4_4  and  C5_5 
REMARK    3  A    between atoms: C5_5  and  C6_6 
REMARK    4  A    between atoms: C6_6  and  C7_7 
REMARK    5  A    between atoms: C7_7  and  C9_9 
REMARK    6  A    between atoms: C13_13  and  N1_15 
REMARK       I    between atoms: N1_15  and  C15_17 
REMARK    7  A    between atoms: C15_17  and  O2_19 
ROOT
HETATM    1  C9  UNL     1     -12.205  -7.331   7.885  1.00  0.00     0.002 A 
HETATM    2  C10 UNL     1     -11.034  -6.853   8.662  1.00  0.00    -0.006 A 
HETATM    3  C11 UNL     1     -11.210  -6.195   9.982  1.00  0.00     0.011 C 
HETATM    4  C12 UNL     1     -10.492  -8.237   8.648  1.00  0.00     0.026 A 
HETATM    5  C13 UNL     1      -9.227  -8.540   7.915  1.00  0.00     0.036 C 
HETATM    6  C14 UNL     1      -8.065  -8.356   8.863  1.00  0.00     0.039 C 
HETATM    7  C17 UNL     1      -9.195 -10.011   7.504  1.00  0.00     0.031 C 
HETATM    8  C18 UNL     1     -10.364 -10.385   6.663  1.00  0.00     0.003 C 
HETATM    9  C19 UNL     1     -11.489  -9.388   6.651  1.00  0.00     0.010 C 
HETATM   10  C20 UNL     1     -11.740  -8.719   7.975  1.00  0.00    -0.033 A 
HETATM   11  C21 UNL     1     -12.443  -9.702   8.866  1.00  0.00     0.016 C 
ENDROOT
BRANCH   1  12
HETATM   12  C7  UNL     1     -13.584  -6.918   8.204  1.00  0.00    -0.013 C 
HETATM   13  C8  UNL     1     -13.563  -5.896   9.316  1.00  0.00     0.010 C 
BRANCH  12  14
HETATM   14  C6  UNL     1     -14.581  -6.595   7.226  1.00  0.00     0.005 C 
BRANCH  14  15
HETATM   15  C5  UNL     1     -14.149  -6.666   5.803  1.00  0.00     0.005 C 
BRANCH  15  16
HETATM   16  C4  UNL     1     -15.118  -6.750   4.705  1.00  0.00     0.033 C 
BRANCH  16  17
HETATM   17  C2  UNL     1     -15.638  -5.330   4.506  1.00  0.00    -0.093 C 
HETATM   18  C1  UNL     1     -14.827  -4.296   4.338  1.00  0.00     0.014 C 
HETATM   19  C3  UNL     1     -17.092  -5.119   4.504  1.00  0.00     0.042 C 
ENDBRANCH  16  17
ENDBRANCH  15  16
ENDBRANCH  14  15
ENDBRANCH  12  14
ENDBRANCH   1  12
BRANCH   5  20
HETATM   20  N1  UNL     1      -8.977  -7.761   6.742  1.00  0.00    -0.328 N 
HETATM   21  C15 UNL     1      -8.046  -6.701   6.608  1.00  0.00     0.360 C 
HETATM   22  O1  UNL     1      -7.288  -6.272   7.515  1.00  0.00    -0.239 OA
ATOM     23  H1  UNL     1      -9.527  -7.993   5.914  1.00  0.00     0.165 HD
BRANCH  21  24
HETATM   24  O2  UNL     1      -7.892  -6.012   5.384  1.00  0.00    -0.309 OA
HETATM   25  C16 UNL     1      -6.821  -6.290   4.503  1.00  0.00     0.215 C 
ENDBRANCH  21  24
ENDBRANCH   5  20
TORSDOF 7
ENDMDL
MODEL 5
REMARK VINA RESULT: -6.618454183      2.971      6.748
REMARK  7 active torsions:
REMARK  status: ('A' for Active; 'I' for Inactive)
REMARK    1  A    between atoms: C2_2  and  C4_4 
REMARK    2  A    between atoms: C4_4  and  C5_5 
REMARK    3  A    between atoms: C5_5  and  C6_6 
REMARK    4  A    between atoms: C6_6  and  C7_7 
REMARK    5  A    between atoms: C7_7  and  C9_9 
REMARK    6  A    between atoms: C13_13  and  N1_15 
REMARK       I    between atoms: N1_15  and  C15_17 
REMARK    7  A    between atoms: C15_17  and  O2_19 
ROOT
HETATM    1  C9  UNL     1     -13.623  -7.605   7.571  1.00  0.00     0.002 A 
HETATM    2  C10 UNL     1     -13.341  -8.221   6.250  1.00  0.00    -0.006 A 
HETATM    3  C11 UNL     1     -12.280  -9.250   6.098  1.00  0.00     0.011 C 
HETATM    4  C12 UNL     1     -14.755  -8.676   6.189  1.00  0.00     0.026 A 
HETATM    5  C13 UNL     1     -15.676  -8.122   5.153  1.00  0.00     0.036 C 
HETATM    6  C14 UNL     1     -15.598  -8.994   3.922  1.00  0.00     0.039 C 
HETATM    7  C17 UNL     1     -17.125  -8.212   5.631  1.00  0.00     0.031 C 
HETATM    8  C18 UNL     1     -17.336  -7.502   6.921  1.00  0.00     0.003 C 
HETATM    9  C19 UNL     1     -16.080  -7.131   7.661  1.00  0.00     0.010 C 
HETATM   10  C20 UNL     1     -14.982  -8.156   7.575  1.00  0.00    -0.033 A 
HETATM   11  C21 UNL     1     -15.341  -9.296   8.485  1.00  0.00     0.016 C 
ENDROOT
BRANCH   1  12
HETATM   12  C7  UNL     1     -12.698  -7.729   8.712  1.00  0.00    -0.013 C 
HETATM   13  C8  UNL     1     -12.428  -9.189   8.989  1.00  0.00     0.010 C 
BRANCH  12  14
HETATM   14  C6  UNL     1     -11.511  -6.943   8.883  1.00  0.00     0.005 C 
BRANCH  14  15
HETATM   15  C5  UNL     1     -10.222  -7.640   8.625  1.00  0.00     0.005 C 
BRANCH  15  16
HETATM   16  C4  UNL     1      -9.367  -7.289   7.485  1.00  0.00     0.033 C 
BRANCH  16  17
HETATM   17  C2  UNL     1      -8.513  -8.524   7.216  1.00  0.00    -0.093 C 
HETATM   18  C1  UNL     1      -8.927  -9.748   7.507  1.00  0.00     0.014 C 
HETATM   19  C3  UNL     1      -7.187  -8.330   6.613  1.00  0.00     0.042 C 
ENDBRANCH  16  17
ENDBRANCH  15  16
ENDBRANCH  14  15
ENDBRANCH  12  14
ENDBRANCH   1  12
BRANCH   5  20
HETATM   20  N1  UNL     1     -15.439  -6.767   4.758  1.00  0.00    -0.328 N 
HETATM   21  C15 UNL     1     -16.297  -5.945   3.985  1.00  0.00     0.360 C 
HETATM   22  O1  UNL     1     -17.413  -6.286   3.517  1.00  0.00    -0.239 OA
ATOM     23  H1  UNL     1     -14.561  -6.349   5.065  1.00  0.00     0.165 HD
BRANCH  21  24
HETATM   24  O2  UNL     1     -15.945  -4.614   3.668  1.00  0.00    -0.309 OA
HETATM   25  C16 UNL     1     -14.807  -3.990   4.231  1.00  0.00     0.215 C 
ENDBRANCH  21  24
ENDBRANCH   5  20
TORSDOF 7
ENDMDL
