MODEL 1
REMARK VINA RESULT: -8.490635999      0.000      0.000
REMARK  6 active torsions:
REMARK  status: ('A' for Active; 'I' for Inactive)
REMARK    1  A    between atoms: C2_2  and  C4_4 
REMARK    2  A    between atoms: C4_4  and  C7_7 
REMARK    3  A    between atoms: C7_7  and  O1_9 
REMARK    4  A    between atoms: C7_7  and  C9_11 
REMARK    5  A    between atoms: C9_11  and  C10_12 
REMARK    6  A    between atoms: C10_12  and  C11_13 
ROOT
HETATM    1  C11 UNL     1     -13.048  -7.705   7.244  1.00  0.00     0.004 C 
HETATM    2  C12 UNL     1     -12.911  -6.717   8.326  1.00  0.00     0.046 C 
HETATM    3  C13 UNL     1     -13.891  -6.912   9.465  1.00  0.00    -0.020 C 
HETATM    4  C14 UNL     1     -13.693  -8.009  10.173  1.00  0.00     0.001 C 
HETATM    5  C15 UNL     1     -12.545  -8.872   9.741  1.00  0.00     0.146 C 
HETATM    6  C16 UNL     1     -13.102  -9.752   8.642  1.00  0.00     0.045 C 
HETATM    7  C17 UNL     1     -13.807  -8.972   7.574  1.00  0.00    -0.041 C 
HETATM    8  C18 UNL     1     -13.654  -9.845   6.312  1.00  0.00     0.015 C 
HETATM    9  C19 UNL     1     -15.270  -8.779   7.787  1.00  0.00     0.015 C 
HETATM   10  O2  UNL     1     -11.424  -8.193   9.364  1.00  0.00    -0.371 OA
HETATM   11  C20 UNL     1     -11.564  -6.871   9.052  1.00  0.00     0.062 C 
HETATM   12  C21 UNL     1     -10.498  -6.329   8.159  1.00  0.00     0.046 C 
HETATM   13  C22 UNL     1     -11.593  -5.992  10.310  1.00  0.00     0.046 C 
ENDROOT
BRANCH   1  14
HETATM   14  C10 UNL     1     -13.559  -7.064   5.996  1.00  0.00     0.009 C 
BRANCH  14  15
HETATM   15  C9  UNL     1     -14.781  -6.203   6.172  1.00  0.00     0.039 C 
BRANCH  15  16
HETATM   16  C7  UNL     1     -15.589  -6.167   4.890  1.00  0.00     0.065 C 
HETATM   17  C8  UNL     1     -15.147  -7.341   4.049  1.00  0.00     0.047 C 
BRANCH  16  18
HETATM   18  C4  UNL     1     -17.040  -6.320   5.213  1.00  0.00     0.005 C 
HETATM   19  C5  UNL     1     -17.790  -4.998   5.053  1.00  0.00     0.023 C 
HETATM   20  C6  UNL     1     -17.227  -6.750   6.636  1.00  0.00     0.023 C 
BRANCH  18  21
HETATM   21  C2  UNL     1     -17.686  -7.325   4.301  1.00  0.00    -0.082 C 
HETATM   22  C1  UNL     1     -18.010  -7.062   3.043  1.00  0.00     0.015 C 
HETATM   23  C3  UNL     1     -17.988  -8.693   4.827  1.00  0.00     0.043 C 
ENDBRANCH  18  21
ENDBRANCH  16  18
BRANCH  16  24
HETATM   24  O1  UNL     1     -15.325  -4.984   4.189  1.00  0.00    -0.389 OA
ATOM     25  H1  UNL     1     -15.792  -4.240   4.552  1.00  0.00     0.210 HD
ENDBRANCH  16  24
ENDBRANCH  15  16
ENDBRANCH  14  15
ENDBRANCH   1  14
TORSDOF 6
ENDMDL
MODEL 2
REMARK VINA RESULT: -8.403326130      1.546      6.452
REMARK  6 active torsions:
REMARK  status: ('A' for Active; 'I' for Inactive)
REMARK    1  A    between atoms: C2_2  and  C4_4 
REMARK    2  A    between atoms: C4_4  and  C7_7 
REMARK    3  A    between atoms: C7_7  and  O1_9 
REMARK    4  A    between atoms: C7_7  and  C9_11 
REMARK    5  A    between atoms: C9_11  and  C10_12 
REMARK    6  A    between atoms: C10_12  and  C11_13 
ROOT
HETATM    1  C11 UNL     1     -15.155  -6.550   4.729  1.00  0.00     0.004 C 
HETATM    2  C12 UNL     1     -16.272  -7.328   5.289  1.00  0.00     0.046 C 
HETATM    3  C13 UNL     1     -17.375  -6.479   5.885  1.00  0.00    -0.020 C 
HETATM    4  C14 UNL     1     -18.054  -5.769   5.003  1.00  0.00     0.001 C 
HETATM    5  C15 UNL     1     -17.627  -5.917   3.572  1.00  0.00     0.146 C 
HETATM    6  C16 UNL     1     -16.485  -4.937   3.396  1.00  0.00     0.045 C 
HETATM    7  C17 UNL     1     -15.423  -5.088   4.442  1.00  0.00    -0.041 C 
HETATM    8  C18 UNL     1     -14.139  -4.598   3.744  1.00  0.00     0.015 C 
HETATM    9  C19 UNL     1     -15.601  -4.242   5.656  1.00  0.00     0.015 C 
HETATM   10  O2  UNL     1     -17.304  -7.187   3.196  1.00  0.00    -0.371 OA
HETATM   11  C20 UNL     1     -17.030  -8.086   4.187  1.00  0.00     0.062 C 
HETATM   12  C21 UNL     1     -16.185  -9.240   3.760  1.00  0.00     0.046 C 
HETATM   13  C22 UNL     1     -18.313  -8.665   4.798  1.00  0.00     0.046 C 
ENDROOT
BRANCH   1  14
HETATM   14  C10 UNL     1     -13.914  -6.736   5.538  1.00  0.00     0.009 C 
BRANCH  14  15
HETATM   15  C9  UNL     1     -13.834  -8.032   6.300  1.00  0.00     0.039 C 
BRANCH  15  16
HETATM   16  C7  UNL     1     -13.722  -7.763   7.787  1.00  0.00     0.065 C 
HETATM   17  C8  UNL     1     -14.939  -8.369   8.444  1.00  0.00     0.047 C 
BRANCH  16  18
HETATM   18  C4  UNL     1     -12.497  -8.431   8.322  1.00  0.00     0.005 C 
HETATM   19  C5  UNL     1     -11.953  -9.468   7.341  1.00  0.00     0.023 C 
HETATM   20  C6  UNL     1     -12.803  -9.163   9.594  1.00  0.00     0.023 C 
BRANCH  18  21
HETATM   21  C2  UNL     1     -11.409  -7.427   8.576  1.00  0.00    -0.082 C 
HETATM   22  C1  UNL     1     -10.364  -7.270   7.776  1.00  0.00     0.015 C 
HETATM   23  C3  UNL     1     -11.495  -6.554   9.789  1.00  0.00     0.043 C 
ENDBRANCH  18  21
ENDBRANCH  16  18
BRANCH  16  24
HETATM   24  O1  UNL     1     -13.718  -6.383   8.025  1.00  0.00    -0.389 OA
ATOM     25  H1  UNL     1     -14.103  -6.163   8.866  1.00  0.00     0.210 HD
ENDBRANCH  16  24
ENDBRANCH  15  16
ENDBRANCH  14  15
ENDBRANCH   1  14
TORSDOF 6
ENDMDL
MODEL 3
REMARK VINA RESULT: -8.274471532      0.679      1.216
REMARK  6 active torsions:
REMARK  status: ('A' for Active; 'I' for Inactive)
REMARK    1  A    between atoms: C2_2  and  C4_4 
REMARK    2  A    between atoms: C4_4  and  C7_7 
REMARK    3  A    between atoms: C7_7  and  O1_9 
REMARK    4  A    between atoms: C7_7  and  C9_11 
REMARK    5  A    between atoms: C9_11  and  C10_12 
REMARK    6  A    between atoms: C10_12  and  C11_13 
ROOT
HETATM    1  C11 UNL     1     -13.010  -8.095   7.367  1.00  0.00     0.004 C 
HETATM    2  C12 UNL     1     -12.745  -6.818   8.051  1.00  0.00     0.046 C 
HETATM    3  C13 UNL     1     -13.681  -6.535   9.208  1.00  0.00    -0.020 C 
HETATM    4  C14 UNL     1     -13.534  -7.345  10.240  1.00  0.00     0.001 C 
HETATM    5  C15 UNL     1     -12.477  -8.401  10.100  1.00  0.00     0.146 C 
HETATM    6  C16 UNL     1     -13.154  -9.545   9.373  1.00  0.00     0.045 C 
HETATM    7  C17 UNL     1     -13.848  -9.106   8.120  1.00  0.00    -0.041 C 
HETATM    8  C18 UNL     1     -13.824 -10.360   7.222  1.00  0.00     0.015 C 
HETATM    9  C19 UNL     1     -15.279  -8.724   8.285  1.00  0.00     0.015 C 
HETATM   10  O2  UNL     1     -11.327  -7.989   9.495  1.00  0.00    -0.371 OA
HETATM   11  C20 UNL     1     -11.380  -6.840   8.759  1.00  0.00     0.062 C 
HETATM   12  C21 UNL     1     -10.320  -6.724   7.714  1.00  0.00     0.046 C 
HETATM   13  C22 UNL     1     -11.280  -5.593   9.647  1.00  0.00     0.046 C 
ENDROOT
BRANCH   1  14
HETATM   14  C10 UNL     1     -13.530  -7.864   5.986  1.00  0.00     0.009 C 
BRANCH  14  15
HETATM   15  C9  UNL     1     -14.446  -6.678   5.836  1.00  0.00     0.039 C 
BRANCH  15  16
HETATM   16  C7  UNL     1     -15.316  -6.837   4.606  1.00  0.00     0.065 C 
HETATM   17  C8  UNL     1     -14.781  -8.016   3.828  1.00  0.00     0.047 C 
BRANCH  16  18
HETATM   18  C4  UNL     1     -16.721  -7.129   5.025  1.00  0.00     0.005 C 
HETATM   19  C5  UNL     1     -16.959  -6.746   6.484  1.00  0.00     0.023 C 
HETATM   20  C6  UNL     1     -17.016  -8.594   4.911  1.00  0.00     0.023 C 
BRANCH  18  21
HETATM   21  C2  UNL     1     -17.699  -6.359   4.184  1.00  0.00    -0.082 C 
HETATM   22  C1  UNL     1     -18.178  -6.806   3.032  1.00  0.00     0.015 C 
HETATM   23  C3  UNL     1     -18.164  -5.017   4.658  1.00  0.00     0.043 C 
ENDBRANCH  18  21
ENDBRANCH  16  18
BRANCH  16  24
HETATM   24  O1  UNL     1     -15.230  -5.691   3.806  1.00  0.00    -0.389 OA
ATOM     25  H1  UNL     1     -15.246  -5.898   2.879  1.00  0.00     0.210 HD
ENDBRANCH  16  24
ENDBRANCH  15  16
ENDBRANCH  14  15
ENDBRANCH   1  14
TORSDOF 6
ENDMDL
MODEL 4
REMARK VINA RESULT: -8.181619626      1.607      6.370
REMARK  6 active torsions:
REMARK  status: ('A' for Active; 'I' for Inactive)
REMARK    1  A    between atoms: C2_2  and  C4_4 
REMARK    2  A    between atoms: C4_4  and  C7_7 
REMARK    3  A    between atoms: C7_7  and  O1_9 
REMARK    4  A    between atoms: C7_7  and  C9_11 
REMARK    5  A    between atoms: C9_11  and  C10_12 
REMARK    6  A    between atoms: C10_12  and  C11_13 
ROOT
HETATM    1  C11 UNL     1     -15.174  -6.607   4.777  1.00  0.00     0.004 C 
HETATM    2  C12 UNL     1     -16.335  -7.326   5.326  1.00  0.00     0.046 C 
HETATM    3  C13 UNL     1     -17.418  -6.419   5.871  1.00  0.00    -0.020 C 
HETATM    4  C14 UNL     1     -18.045  -5.705   4.954  1.00  0.00     0.001 C 
HETATM    5  C15 UNL     1     -17.587  -5.905   3.540  1.00  0.00     0.146 C 
HETATM    6  C16 UNL     1     -16.403  -4.976   3.371  1.00  0.00     0.045 C 
HETATM    7  C17 UNL     1     -15.376  -5.143   4.449  1.00  0.00    -0.041 C 
HETATM    8  C18 UNL     1     -14.055  -4.721   3.774  1.00  0.00     0.015 C 
HETATM    9  C19 UNL     1     -15.551  -4.261   5.638  1.00  0.00     0.015 C 
HETATM   10  O2  UNL     1     -17.306  -7.196   3.203  1.00  0.00    -0.371 OA
HETATM   11  C20 UNL     1     -17.094  -8.080   4.221  1.00  0.00     0.062 C 
HETATM   12  C21 UNL     1     -16.286  -9.277   3.845  1.00  0.00     0.046 C 
HETATM   13  C22 UNL     1     -18.415  -8.593   4.811  1.00  0.00     0.046 C 
ENDROOT
BRANCH   1  14
HETATM   14  C10 UNL     1     -13.962  -6.822   5.624  1.00  0.00     0.009 C 
BRANCH  14  15
HETATM   15  C9  UNL     1     -14.239  -7.189   7.058  1.00  0.00     0.039 C 
BRANCH  15  16
HETATM   16  C7  UNL     1     -13.786  -8.607   7.336  1.00  0.00     0.065 C 
HETATM   17  C8  UNL     1     -13.268  -9.174   6.035  1.00  0.00     0.047 C 
BRANCH  16  18
HETATM   18  C4  UNL     1     -12.674  -8.587   8.334  1.00  0.00     0.005 C 
HETATM   19  C5  UNL     1     -11.309  -8.652   7.651  1.00  0.00     0.023 C 
HETATM   20  C6  UNL     1     -12.756  -9.773   9.246  1.00  0.00     0.023 C 
BRANCH  18  21
HETATM   21  C2  UNL     1     -12.716  -7.327   9.153  1.00  0.00    -0.082 C 
HETATM   22  C1  UNL     1     -13.735  -7.003   9.937  1.00  0.00     0.015 C 
HETATM   23  C3  UNL     1     -11.558  -6.382   9.089  1.00  0.00     0.043 C 
ENDBRANCH  18  21
ENDBRANCH  16  18
BRANCH  16  24
HETATM   24  O1  UNL     1     -14.870  -9.382   7.767  1.00  0.00    -0.389 OA
ATOM     25  H1  UNL     1     -15.556  -9.435   7.111  1.00  0.00     0.210 HD
ENDBRANCH  16  24
ENDBRANCH  15  16
ENDBRANCH  14  15
ENDBRANCH   1  14
TORSDOF 6
ENDMDL
MODEL 5
REMARK VINA RESULT: -8.048571603      2.680      6.775
REMARK  6 active torsions:
REMARK  status: ('A' for Active; 'I' for Inactive)
REMARK    1  A    between atoms: C2_2  and  C4_4 
REMARK    2  A    between atoms: C4_4  and  C7_7 
REMARK    3  A    between atoms: C7_7  and  O1_9 
REMARK    4  A    between atoms: C7_7  and  C9_11 
REMARK    5  A    between atoms: C9_11  and  C10_12 
REMARK    6  A    between atoms: C10_12  and  C11_13 
ROOT
HETATM    1  C11 UNL     1     -12.763  -7.215   7.966  1.00  0.00     0.004 C 
HETATM    2  C12 UNL     1     -13.073  -8.014   6.770  1.00  0.00     0.046 C 
HETATM    3  C13 UNL     1     -13.418  -9.458   7.067  1.00  0.00    -0.020 C 
HETATM    4  C14 UNL     1     -14.555  -9.625   7.716  1.00  0.00     0.001 C 
HETATM    5  C15 UNL     1     -15.312  -8.373   8.049  1.00  0.00     0.146 C 
HETATM    6  C16 UNL     1     -14.710  -7.880   9.349  1.00  0.00     0.045 C 
HETATM    7  C17 UNL     1     -13.217  -7.779   9.296  1.00  0.00    -0.041 C 
HETATM    8  C18 UNL     1     -12.881  -6.670  10.312  1.00  0.00     0.015 C 
HETATM    9  C19 UNL     1     -12.480  -8.999   9.734  1.00  0.00     0.015 C 
HETATM   10  O2  UNL     1     -15.316  -7.426   7.069  1.00  0.00    -0.371 OA
HETATM   11  C20 UNL     1     -14.365  -7.524   6.095  1.00  0.00     0.062 C 
HETATM   12  C21 UNL     1     -14.059  -6.240   5.396  1.00  0.00     0.046 C 
HETATM   13  C22 UNL     1     -14.760  -8.543   5.018  1.00  0.00     0.046 C 
ENDROOT
BRANCH   1  14
HETATM   14  C10 UNL     1     -11.320  -6.829   7.993  1.00  0.00     0.009 C 
BRANCH  14  15
HETATM   15  C9  UNL     1     -10.392  -7.769   7.269  1.00  0.00     0.039 C 
BRANCH  15  16
HETATM   16  C7  UNL     1      -8.951  -7.355   7.484  1.00  0.00     0.065 C 
HETATM   17  C8  UNL     1      -8.874  -6.685   8.835  1.00  0.00     0.047 C 
BRANCH  16  18
HETATM   18  C4  UNL     1      -8.082  -8.571   7.495  1.00  0.00     0.005 C 
HETATM   19  C5  UNL     1      -8.850  -9.811   7.042  1.00  0.00     0.023 C 
HETATM   20  C6  UNL     1      -7.582  -8.856   8.878  1.00  0.00     0.023 C 
BRANCH  18  21
HETATM   21  C2  UNL     1      -6.910  -8.397   6.570  1.00  0.00    -0.082 C 
HETATM   22  C1  UNL     1      -6.925  -8.772   5.299  1.00  0.00     0.015 C 
HETATM   23  C3  UNL     1      -5.656  -7.772   7.097  1.00  0.00     0.043 C 
ENDBRANCH  18  21
ENDBRANCH  16  18
BRANCH  16  24
HETATM   24  O1  UNL     1      -8.563  -6.437   6.500  1.00  0.00    -0.389 OA
ATOM     25  H1  UNL     1      -8.429  -5.566   6.856  1.00  0.00     0.210 HD
ENDBRANCH  16  24
ENDBRANCH  15  16
ENDBRANCH  14  15
ENDBRANCH   1  14
TORSDOF 6
ENDMDL
