MODEL 1
REMARK VINA RESULT: -6.666046398      0.000      0.000
REMARK  6 active torsions:
REMARK  status: ('A' for Active; 'I' for Inactive)
REMARK    1  A    between atoms: C2_2  and  C3_3 
REMARK    2  A    between atoms: C2_2  and  C8_8 
REMARK    3  A    between atoms: C3_3  and  C4_4 
REMARK    4  A    between atoms: C4_4  and  C5_5 
REMARK    5  A    between atoms: C10_10  and  O1_11 
REMARK    6  A    between atoms: C18_20  and  C19_21 
ROOT
HETATM    1  C8  UNL     1     -13.307  -7.523   8.790  1.00  0.00     0.021 C 
HETATM    2  C9  UNL     1     -12.815  -8.847   9.387  1.00  0.00     0.042 C 
HETATM    3  C10 UNL     1     -12.714  -9.804   8.207  1.00  0.00     0.127 C 
HETATM    4  C11 UNL     1     -13.915  -9.322   7.415  1.00  0.00    -0.013 C 
HETATM    5  C12 UNL     1     -15.140  -9.610   8.237  1.00  0.00     0.018 C 
HETATM    6  C13 UNL     1     -13.995  -9.875   6.046  1.00  0.00     0.013 C 
HETATM    7  C14 UNL     1     -14.067  -8.773   5.028  1.00  0.00     0.010 C 
HETATM    8  C15 UNL     1     -15.019  -7.673   5.394  1.00  0.00    -0.039 C 
HETATM    9  C16 UNL     1     -16.470  -8.060   5.212  1.00  0.00     0.015 C 
HETATM   10  C17 UNL     1     -14.750  -6.522   4.425  1.00  0.00     0.021 C 
HETATM   11  C18 UNL     1     -15.155  -5.334   5.278  1.00  0.00     0.048 C 
HETATM   12  C20 UNL     1     -14.413  -5.640   6.573  1.00  0.00     0.017 C 
HETATM   13  C21 UNL     1     -14.748  -7.104   6.772  1.00  0.00    -0.000 C 
HETATM   14  C22 UNL     1     -13.605  -7.830   7.366  1.00  0.00     0.009 C 
ENDROOT
BRANCH   1  15
HETATM   15  C2  UNL     1     -12.244  -6.469   8.940  1.00  0.00    -0.085 C 
HETATM   16  C1  UNL     1     -12.395  -5.513   9.834  1.00  0.00     0.014 C 
BRANCH  15  17
HETATM   17  C3  UNL     1     -11.053  -6.523   8.086  1.00  0.00     0.034 C 
BRANCH  17  18
HETATM   18  C4  UNL     1      -9.823  -7.102   8.664  1.00  0.00     0.008 C 
BRANCH  18  19
HETATM   19  C5  UNL     1      -8.891  -7.791   7.736  1.00  0.00    -0.023 C 
HETATM   20  C6  UNL     1      -9.377  -9.212   7.415  1.00  0.00     0.009 C 
HETATM   21  C7  UNL     1      -7.513  -8.010   8.357  1.00  0.00     0.009 C 
ENDBRANCH  18  19
ENDBRANCH  17  18
ENDBRANCH  15  17
ENDBRANCH   1  15
BRANCH   3  22
HETATM   22  O1  UNL     1     -12.967 -11.116   8.599  1.00  0.00    -0.395 OA
ATOM     23  H1  UNL     1     -13.878 -11.348   8.459  1.00  0.00     0.210 HD
ENDBRANCH   3  22
BRANCH  11  24
HETATM   24  C19 UNL     1     -14.768  -4.046   4.693  1.00  0.00     0.235 C 
HETATM   25  O2  UNL     1     -15.248  -3.715   3.626  1.00  0.00    -0.306 OA
ENDBRANCH  11  24
TORSDOF 6
ENDMDL
MODEL 2
REMARK VINA RESULT: -6.552225341      2.323      4.409
REMARK  6 active torsions:
REMARK  status: ('A' for Active; 'I' for Inactive)
REMARK    1  A    between atoms: C2_2  and  C3_3 
REMARK    2  A    between atoms: C2_2  and  C8_8 
REMARK    3  A    between atoms: C3_3  and  C4_4 
REMARK    4  A    between atoms: C4_4  and  C5_5 
REMARK    5  A    between atoms: C10_10  and  O1_11 
REMARK    6  A    between atoms: C18_20  and  C19_21 
ROOT
HETATM    1  C8  UNL     1     -11.285  -9.212   7.656  1.00  0.00     0.021 C 
HETATM    2  C9  UNL     1     -11.695  -9.889   6.343  1.00  0.00     0.042 C 
HETATM    3  C10 UNL     1     -12.908  -9.108   5.854  1.00  0.00     0.127 C 
HETATM    4  C11 UNL     1     -13.549  -8.810   7.196  1.00  0.00    -0.013 C 
HETATM    5  C12 UNL     1     -13.963 -10.124   7.797  1.00  0.00     0.018 C 
HETATM    6  C13 UNL     1     -14.654  -7.830   7.133  1.00  0.00     0.013 C 
HETATM    7  C14 UNL     1     -14.399  -6.676   8.059  1.00  0.00     0.010 C 
HETATM    8  C15 UNL     1     -13.906  -7.086   9.415  1.00  0.00    -0.039 C 
HETATM    9  C16 UNL     1     -14.996  -7.666  10.290  1.00  0.00     0.015 C 
HETATM   10  C17 UNL     1     -13.423  -5.812  10.107  1.00  0.00     0.021 C 
HETATM   11  C18 UNL     1     -12.356  -6.378  11.027  1.00  0.00     0.048 C 
HETATM   12  C20 UNL     1     -11.572  -7.254  10.057  1.00  0.00     0.017 C 
HETATM   13  C21 UNL     1     -12.690  -7.987   9.344  1.00  0.00    -0.000 C 
HETATM   14  C22 UNL     1     -12.350  -8.209   7.922  1.00  0.00     0.009 C 
ENDROOT
BRANCH   1  15
HETATM   15  C2  UNL     1      -9.927  -8.581   7.503  1.00  0.00    -0.085 C 
HETATM   16  C1  UNL     1      -9.821  -7.269   7.452  1.00  0.00     0.014 C 
BRANCH  15  17
HETATM   17  C3  UNL     1      -8.742  -9.440   7.413  1.00  0.00     0.034 C 
BRANCH  17  18
HETATM   18  C4  UNL     1      -7.526  -9.003   8.128  1.00  0.00     0.008 C 
BRANCH  18  19
HETATM   19  C5  UNL     1      -6.368  -8.572   7.304  1.00  0.00    -0.023 C 
HETATM   20  C6  UNL     1      -5.983  -7.117   7.605  1.00  0.00     0.009 C 
HETATM   21  C7  UNL     1      -6.694  -8.560   5.812  1.00  0.00     0.009 C 
ENDBRANCH  18  19
ENDBRANCH  17  18
ENDBRANCH  15  17
ENDBRANCH   1  15
BRANCH   3  22
HETATM   22  O1  UNL     1     -13.781  -9.926   5.142  1.00  0.00    -0.395 OA
ATOM     23  H1  UNL     1     -14.570 -10.104   5.641  1.00  0.00     0.210 HD
ENDBRANCH   3  22
BRANCH  11  24
HETATM   24  C19 UNL     1     -11.528  -5.344  11.654  1.00  0.00     0.235 C 
HETATM   25  O2  UNL     1     -11.206  -5.472  12.820  1.00  0.00    -0.306 OA
ENDBRANCH  11  24
TORSDOF 6
ENDMDL
MODEL 3
REMARK VINA RESULT: -5.846572488      2.111      3.209
REMARK  6 active torsions:
REMARK  status: ('A' for Active; 'I' for Inactive)
REMARK    1  A    between atoms: C2_2  and  C3_3 
REMARK    2  A    between atoms: C2_2  and  C8_8 
REMARK    3  A    between atoms: C3_3  and  C4_4 
REMARK    4  A    between atoms: C4_4  and  C5_5 
REMARK    5  A    between atoms: C10_10  and  O1_11 
REMARK    6  A    between atoms: C18_20  and  C19_21 
ROOT
HETATM    1  C8  UNL     1     -11.908  -7.700   7.859  1.00  0.00     0.021 C 
HETATM    2  C9  UNL     1     -11.647  -7.616   9.367  1.00  0.00     0.042 C 
HETATM    3  C10 UNL     1     -12.959  -8.027  10.022  1.00  0.00     0.127 C 
HETATM    4  C11 UNL     1     -13.921  -7.407   9.026  1.00  0.00    -0.013 C 
HETATM    5  C12 UNL     1     -13.733  -5.917   9.090  1.00  0.00     0.018 C 
HETATM    6  C13 UNL     1     -15.328  -7.820   9.209  1.00  0.00     0.013 C 
HETATM    7  C14 UNL     1     -15.880  -8.411   7.944  1.00  0.00     0.010 C 
HETATM    8  C15 UNL     1     -15.536  -7.630   6.710  1.00  0.00    -0.039 C 
HETATM    9  C16 UNL     1     -16.340  -6.356   6.574  1.00  0.00     0.015 C 
HETATM   10  C17 UNL     1     -15.908  -8.511   5.518  1.00  0.00     0.021 C 
HETATM   11  C18 UNL     1     -14.915  -8.018   4.482  1.00  0.00     0.048 C 
HETATM   12  C20 UNL     1     -13.619  -8.052   5.284  1.00  0.00     0.017 C 
HETATM   13  C21 UNL     1     -14.047  -7.384   6.574  1.00  0.00    -0.000 C 
HETATM   14  C22 UNL     1     -13.361  -7.993   7.734  1.00  0.00     0.009 C 
ENDROOT
BRANCH   1  15
HETATM   15  C2  UNL     1     -11.051  -8.777   7.251  1.00  0.00    -0.085 C 
HETATM   16  C1  UNL     1     -11.596  -9.926   6.905  1.00  0.00     0.014 C 
BRANCH  15  17
HETATM   17  C3  UNL     1      -9.619  -8.530   7.054  1.00  0.00     0.034 C 
BRANCH  17  18
HETATM   18  C4  UNL     1      -8.674  -9.540   7.573  1.00  0.00     0.008 C 
BRANCH  18  19
HETATM   19  C5  UNL     1      -7.243  -9.154   7.658  1.00  0.00    -0.023 C 
HETATM   20  C6  UNL     1      -7.038  -7.989   8.637  1.00  0.00     0.009 C 
HETATM   21  C7  UNL     1      -6.712  -8.611   6.332  1.00  0.00     0.009 C 
ENDBRANCH  18  19
ENDBRANCH  17  18
ENDBRANCH  15  17
ENDBRANCH   1  15
BRANCH   3  22
HETATM   22  O1  UNL     1     -13.139  -7.380  11.241  1.00  0.00    -0.395 OA
ATOM     23  H1  UNL     1     -13.592  -7.937  11.864  1.00  0.00     0.210 HD
ENDBRANCH   3  22
BRANCH  11  24
HETATM   24  C19 UNL     1     -14.863  -8.863   3.285  1.00  0.00     0.235 C 
HETATM   25  O2  UNL     1     -15.751  -9.673   3.096  1.00  0.00    -0.306 OA
ENDBRANCH  11  24
TORSDOF 6
ENDMDL
MODEL 4
REMARK VINA RESULT: -5.839519454      2.284      3.615
REMARK  6 active torsions:
REMARK  status: ('A' for Active; 'I' for Inactive)
REMARK    1  A    between atoms: C2_2  and  C3_3 
REMARK    2  A    between atoms: C2_2  and  C8_8 
REMARK    3  A    between atoms: C3_3  and  C4_4 
REMARK    4  A    between atoms: C4_4  and  C5_5 
REMARK    5  A    between atoms: C10_10  and  O1_11 
REMARK    6  A    between atoms: C18_20  and  C19_21 
ROOT
HETATM    1  C8  UNL     1     -11.246  -6.681   8.255  1.00  0.00     0.021 C 
HETATM    2  C9  UNL     1     -10.862  -6.302   9.690  1.00  0.00     0.042 C 
HETATM    3  C10 UNL     1     -11.949  -6.910  10.567  1.00  0.00     0.127 C 
HETATM    4  C11 UNL     1     -13.135  -6.702   9.644  1.00  0.00    -0.013 C 
HETATM    5  C12 UNL     1     -13.332  -5.220   9.494  1.00  0.00     0.018 C 
HETATM    6  C13 UNL     1     -14.362  -7.408  10.071  1.00  0.00     0.013 C 
HETATM    7  C14 UNL     1     -14.870  -8.305   8.978  1.00  0.00     0.010 C 
HETATM    8  C15 UNL     1     -14.867  -7.666   7.621  1.00  0.00    -0.039 C 
HETATM    9  C16 UNL     1     -15.982  -6.660   7.438  1.00  0.00     0.015 C 
HETATM   10  C17 UNL     1     -15.120  -8.786   6.612  1.00  0.00     0.021 C 
HETATM   11  C18 UNL     1     -14.398  -8.236   5.394  1.00  0.00     0.048 C 
HETATM   12  C20 UNL     1     -13.063  -7.833   6.007  1.00  0.00     0.017 C 
HETATM   13  C21 UNL     1     -13.514  -7.094   7.250  1.00  0.00    -0.000 C 
HETATM   14  C22 UNL     1     -12.578  -7.331   8.371  1.00  0.00     0.009 C 
ENDROOT
BRANCH   1  15
HETATM   15  C2  UNL     1     -10.207  -7.602   7.675  1.00  0.00    -0.085 C 
HETATM   16  C1  UNL     1     -10.451  -8.895   7.600  1.00  0.00     0.014 C 
BRANCH  15  17
HETATM   17  C3  UNL     1      -8.937  -7.044   7.200  1.00  0.00     0.034 C 
BRANCH  17  18
HETATM   18  C4  UNL     1      -7.731  -7.888   7.324  1.00  0.00     0.008 C 
BRANCH  18  19
HETATM   19  C5  UNL     1      -6.854  -8.003   6.131  1.00  0.00    -0.023 C 
HETATM   20  C6  UNL     1      -5.381  -8.158   6.535  1.00  0.00     0.009 C 
HETATM   21  C7  UNL     1      -6.866  -6.734   5.280  1.00  0.00     0.009 C 
ENDBRANCH  18  19
ENDBRANCH  17  18
ENDBRANCH  15  17
ENDBRANCH   1  15
BRANCH   3  22
HETATM   22  O1  UNL     1     -12.164  -6.142  11.709  1.00  0.00    -0.395 OA
ATOM     23  H1  UNL     1     -13.089  -6.094  11.923  1.00  0.00     0.210 HD
ENDBRANCH   3  22
BRANCH  11  24
HETATM   24  C19 UNL     1     -14.254  -9.220   4.318  1.00  0.00     0.235 C 
HETATM   25  O2  UNL     1     -14.681  -8.951   3.210  1.00  0.00    -0.306 OA
ENDBRANCH  11  24
TORSDOF 6
ENDMDL
MODEL 5
REMARK VINA RESULT: -5.761429367      2.437      5.903
REMARK  6 active torsions:
REMARK  status: ('A' for Active; 'I' for Inactive)
REMARK    1  A    between atoms: C2_2  and  C3_3 
REMARK    2  A    between atoms: C2_2  and  C8_8 
REMARK    3  A    between atoms: C3_3  and  C4_4 
REMARK    4  A    between atoms: C4_4  and  C5_5 
REMARK    5  A    between atoms: C10_10  and  O1_11 
REMARK    6  A    between atoms: C18_20  and  C19_21 
ROOT
HETATM    1  C8  UNL     1     -14.426  -6.812   5.175  1.00  0.00     0.021 C 
HETATM    2  C9  UNL     1     -14.937  -7.733   4.060  1.00  0.00     0.042 C 
HETATM    3  C10 UNL     1     -15.345  -9.021   4.762  1.00  0.00     0.127 C 
HETATM    4  C11 UNL     1     -14.262  -9.060   5.824  1.00  0.00    -0.013 C 
HETATM    5  C12 UNL     1     -12.946  -9.227   5.118  1.00  0.00     0.018 C 
HETATM    6  C13 UNL     1     -14.486 -10.074   6.877  1.00  0.00     0.013 C 
HETATM    7  C14 UNL     1     -14.484  -9.440   8.238  1.00  0.00     0.010 C 
HETATM    8  C15 UNL     1     -13.373  -8.453   8.444  1.00  0.00    -0.039 C 
HETATM    9  C16 UNL     1     -12.026  -9.110   8.648  1.00  0.00     0.015 C 
HETATM   10  C17 UNL     1     -13.692  -7.702   9.737  1.00  0.00     0.021 C 
HETATM   11  C18 UNL     1     -13.021  -6.368   9.461  1.00  0.00     0.048 C 
HETATM   12  C20 UNL     1     -13.547  -6.063   8.064  1.00  0.00     0.017 C 
HETATM   13  C21 UNL     1     -13.334  -7.389   7.366  1.00  0.00    -0.000 C 
HETATM   14  C22 UNL     1     -14.421  -7.656   6.399  1.00  0.00     0.009 C 
ENDROOT
BRANCH   1  15
HETATM   15  C2  UNL     1     -15.331  -5.617   5.306  1.00  0.00    -0.085 C 
HETATM   16  C1  UNL     1     -14.879  -4.420   4.992  1.00  0.00     0.014 C 
BRANCH  15  17
HETATM   17  C3  UNL     1     -16.705  -5.806   5.781  1.00  0.00     0.034 C 
BRANCH  17  18
HETATM   18  C4  UNL     1     -17.798  -5.264   4.946  1.00  0.00     0.008 C 
BRANCH  18  19
HETATM   19  C5  UNL     1     -18.485  -6.207   4.028  1.00  0.00    -0.023 C 
HETATM   20  C6  UNL     1     -18.536  -7.623   4.620  1.00  0.00     0.009 C 
HETATM   21  C7  UNL     1     -17.727  -6.390   2.714  1.00  0.00     0.009 C 
ENDBRANCH  18  19
ENDBRANCH  17  18
ENDBRANCH  15  17
ENDBRANCH   1  15
BRANCH   3  22
HETATM   22  O1  UNL     1     -15.163 -10.126   3.934  1.00  0.00    -0.395 OA
ATOM     23  H1  UNL     1     -15.799 -10.806   4.123  1.00  0.00     0.210 HD
ENDBRANCH   3  22
BRANCH  11  24
HETATM   24  C19 UNL     1     -13.371  -5.334  10.439  1.00  0.00     0.235 C 
HETATM   25  O2  UNL     1     -12.705  -4.317  10.488  1.00  0.00    -0.306 OA
ENDBRANCH  11  24
TORSDOF 6
ENDMDL
