MODEL 1
REMARK VINA RESULT: -5.944067624      0.000      0.000
REMARK  5 active torsions:
REMARK  status: ('A' for Active; 'I' for Inactive)
REMARK    1  A    between atoms: C2_2  and  C3_3 
REMARK    2  A    between atoms: C6_6  and  C7_7 
REMARK    3  A    between atoms: C12_13  and  C13_14 
REMARK    4  A    between atoms: C13_14  and  C14_15 
REMARK    5  A    between atoms: C19_20  and  O2_21 
ROOT
HETATM    1  C3  UNL     1      -9.903  -7.849   7.283  1.00  0.00    -0.018 C 
HETATM    2  C4  UNL     1     -11.320  -8.044   7.259  1.00  0.00    -0.037 C 
HETATM    3  C5  UNL     1     -12.238  -7.314   8.189  1.00  0.00     0.021 C 
HETATM    4  C6  UNL     1     -11.987  -7.183   9.436  1.00  0.00     0.016 C 
HETATM    5  C11 UNL     1     -13.529  -6.771   7.657  1.00  0.00     0.189 C 
HETATM    6  O1  UNL     1     -13.945  -5.701   8.146  1.00  0.00    -0.287 OA
HETATM    7  C12 UNL     1     -14.343  -7.397   6.605  1.00  0.00    -0.005 C 
HETATM    8  C18 UNL     1     -14.014  -8.561   6.024  1.00  0.00     0.017 C 
HETATM    9  C19 UNL     1     -12.975  -9.554   6.091  1.00  0.00     0.154 C 
HETATM   10  C20 UNL     1     -11.900  -9.440   7.136  1.00  0.00     0.009 C 
HETATM   11  C21 UNL     1     -10.845 -10.476   6.770  1.00  0.00     0.023 C 
HETATM   12  C22 UNL     1     -12.517  -9.922   8.430  1.00  0.00     0.023 C 
ENDROOT
BRANCH   4  13
HETATM   13  C7  UNL     1     -12.763  -6.520  10.441  1.00  0.00     0.003 C 
HETATM   14  C8  UNL     1     -12.516  -5.271  10.833  1.00  0.00    -0.088 C 
HETATM   15  C9  UNL     1     -13.330  -4.622  11.864  1.00  0.00     0.043 C 
HETATM   16  C10 UNL     1     -11.400  -4.545  10.204  1.00  0.00     0.043 C 
ENDBRANCH   4  13
BRANCH   1  17
HETATM   17  C2  UNL     1      -8.970  -8.083   8.372  1.00  0.00     0.023 C 
HETATM   18  C1  UNL     1      -7.734  -8.838   7.767  1.00  0.00     0.009 C 
ENDBRANCH   1  17
BRANCH   7  19
HETATM   19  C13 UNL     1     -15.600  -6.744   6.173  1.00  0.00     0.070 C 
BRANCH  19  20
HETATM   20  C14 UNL     1     -16.627  -7.821   5.997  1.00  0.00    -0.020 C 
HETATM   21  C15 UNL     1     -17.518  -7.770   5.020  1.00  0.00    -0.091 C 
HETATM   22  C16 UNL     1     -18.506  -8.861   4.896  1.00  0.00     0.042 C 
HETATM   23  C17 UNL     1     -17.554  -6.651   4.049  1.00  0.00     0.042 C 
ENDBRANCH  19  20
ENDBRANCH   7  19
BRANCH   9  24
HETATM   24  O2  UNL     1     -13.616 -10.791   6.374  1.00  0.00    -0.391 OA
ATOM     25  H2  UNL     1     -13.351 -11.394   5.689  1.00  0.00     0.210 HD
ENDBRANCH   9  24
TORSDOF 5
ENDMDL
MODEL 2
REMARK VINA RESULT: -5.725635555      6.150     10.295
REMARK  5 active torsions:
REMARK  status: ('A' for Active; 'I' for Inactive)
REMARK    1  A    between atoms: C2_2  and  C3_3 
REMARK    2  A    between atoms: C6_6  and  C7_7 
REMARK    3  A    between atoms: C12_13  and  C13_14 
REMARK    4  A    between atoms: C13_14  and  C14_15 
REMARK    5  A    between atoms: C19_20  and  O2_21 
ROOT
HETATM    1  C3  UNL     1      -2.240  -5.131   9.076  1.00  0.00    -0.018 C 
HETATM    2  C4  UNL     1      -2.914  -5.544   7.883  1.00  0.00    -0.037 C 
HETATM    3  C5  UNL     1      -3.055  -6.987   7.509  1.00  0.00     0.021 C 
HETATM    4  C6  UNL     1      -2.082  -7.813   7.590  1.00  0.00     0.016 C 
HETATM    5  C11 UNL     1      -4.362  -7.470   6.959  1.00  0.00     0.189 C 
HETATM    6  O1  UNL     1      -4.710  -8.633   7.250  1.00  0.00    -0.287 OA
HETATM    7  C12 UNL     1      -5.267  -6.685   6.108  1.00  0.00    -0.005 C 
HETATM    8  C18 UNL     1      -4.988  -5.434   5.706  1.00  0.00     0.017 C 
HETATM    9  C19 UNL     1      -3.946  -4.453   5.852  1.00  0.00     0.154 C 
HETATM   10  C20 UNL     1      -2.679  -4.811   6.576  1.00  0.00     0.009 C 
HETATM   11  C21 UNL     1      -1.921  -3.504   6.772  1.00  0.00     0.023 C 
HETATM   12  C22 UNL     1      -1.852  -5.623   5.604  1.00  0.00     0.023 C 
ENDROOT
BRANCH   4  13
HETATM   13  C7  UNL     1      -2.063  -9.208   7.270  1.00  0.00     0.003 C 
HETATM   14  C8  UNL     1      -1.423 -10.109   8.014  1.00  0.00    -0.088 C 
HETATM   15  C9  UNL     1      -1.425 -11.531   7.657  1.00  0.00     0.043 C 
HETATM   16  C10 UNL     1      -0.707  -9.647   9.214  1.00  0.00     0.043 C 
ENDBRANCH   4  13
BRANCH   1  17
HETATM   17  C2  UNL     1      -0.859  -5.356   9.464  1.00  0.00     0.023 C 
HETATM   18  C1  UNL     1      -0.884  -6.229  10.769  1.00  0.00     0.009 C 
ENDBRANCH   1  17
BRANCH   7  19
HETATM   19  C13 UNL     1      -6.532  -7.292   5.639  1.00  0.00     0.070 C 
BRANCH  19  20
HETATM   20  C14 UNL     1      -7.633  -6.755   6.503  1.00  0.00    -0.020 C 
HETATM   21  C15 UNL     1      -8.397  -7.561   7.224  1.00  0.00    -0.091 C 
HETATM   22  C16 UNL     1      -9.466  -6.974   8.058  1.00  0.00     0.042 C 
HETATM   23  C17 UNL     1      -8.211  -9.031   7.220  1.00  0.00     0.042 C 
ENDBRANCH  19  20
ENDBRANCH   7  19
BRANCH   9  24
HETATM   24  O2  UNL     1      -3.521  -4.118   4.537  1.00  0.00    -0.391 OA
ATOM     25  H2  UNL     1      -3.570  -3.171   4.471  1.00  0.00     0.210 HD
ENDBRANCH   9  24
TORSDOF 5
ENDMDL
MODEL 3
REMARK VINA RESULT: -5.546029362      6.200     10.463
REMARK  5 active torsions:
REMARK  status: ('A' for Active; 'I' for Inactive)
REMARK    1  A    between atoms: C2_2  and  C3_3 
REMARK    2  A    between atoms: C6_6  and  C7_7 
REMARK    3  A    between atoms: C12_13  and  C13_14 
REMARK    4  A    between atoms: C13_14  and  C14_15 
REMARK    5  A    between atoms: C19_20  and  O2_21 
ROOT
HETATM    1  C3  UNL     1      -2.136  -5.574   9.116  1.00  0.00    -0.018 C 
HETATM    2  C4  UNL     1      -2.849  -5.821   7.900  1.00  0.00    -0.037 C 
HETATM    3  C5  UNL     1      -3.009  -7.199   7.338  1.00  0.00     0.021 C 
HETATM    4  C6  UNL     1      -2.038  -8.029   7.275  1.00  0.00     0.016 C 
HETATM    5  C11 UNL     1      -4.335  -7.602   6.770  1.00  0.00     0.189 C 
HETATM    6  O1  UNL     1      -4.680  -8.794   6.910  1.00  0.00    -0.287 OA
HETATM    7  C12 UNL     1      -5.261  -6.707   6.062  1.00  0.00    -0.005 C 
HETATM    8  C18 UNL     1      -4.990  -5.414   5.826  1.00  0.00     0.017 C 
HETATM    9  C19 UNL     1      -3.938  -4.463   6.071  1.00  0.00     0.154 C 
HETATM   10  C20 UNL     1      -2.651  -4.917   6.699  1.00  0.00     0.009 C 
HETATM   11  C21 UNL     1      -1.881  -3.650   7.047  1.00  0.00     0.023 C 
HETATM   12  C22 UNL     1      -1.859  -5.590   5.599  1.00  0.00     0.023 C 
ENDROOT
BRANCH   4  13
HETATM   13  C7  UNL     1      -2.037  -9.368   6.768  1.00  0.00     0.003 C 
HETATM   14  C8  UNL     1      -1.154  -9.796   5.866  1.00  0.00    -0.088 C 
HETATM   15  C9  UNL     1      -1.181 -11.174   5.368  1.00  0.00     0.043 C 
HETATM   16  C10 UNL     1      -0.139  -8.850   5.375  1.00  0.00     0.043 C 
ENDBRANCH   4  13
BRANCH   1  17
HETATM   17  C2  UNL     1      -0.744  -5.852   9.427  1.00  0.00     0.023 C 
HETATM   18  C1  UNL     1      -0.733  -6.903  10.593  1.00  0.00     0.009 C 
ENDBRANCH   1  17
BRANCH   7  19
HETATM   19  C13 UNL     1      -6.545  -7.244   5.555  1.00  0.00     0.070 C 
BRANCH  19  20
HETATM   20  C14 UNL     1      -7.633  -6.708   6.436  1.00  0.00    -0.020 C 
HETATM   21  C15 UNL     1      -8.351  -7.510   7.207  1.00  0.00    -0.091 C 
HETATM   22  C16 UNL     1      -9.410  -6.925   8.055  1.00  0.00     0.042 C 
HETATM   23  C17 UNL     1      -8.123  -8.973   7.245  1.00  0.00     0.042 C 
ENDBRANCH  19  20
ENDBRANCH   7  19
BRANCH   9  24
HETATM   24  O2  UNL     1      -3.553  -3.952   4.800  1.00  0.00    -0.391 OA
ATOM     25  H2  UNL     1      -2.619  -3.784   4.850  1.00  0.00     0.210 HD
ENDBRANCH   9  24
TORSDOF 5
ENDMDL
MODEL 4
REMARK VINA RESULT: -5.438482711      6.343     10.631
REMARK  5 active torsions:
REMARK  status: ('A' for Active; 'I' for Inactive)
REMARK    1  A    between atoms: C2_2  and  C3_3 
REMARK    2  A    between atoms: C6_6  and  C7_7 
REMARK    3  A    between atoms: C12_13  and  C13_14 
REMARK    4  A    between atoms: C13_14  and  C14_15 
REMARK    5  A    between atoms: C19_20  and  O2_21 
ROOT
HETATM    1  C3  UNL     1      -1.461  -5.659   8.280  1.00  0.00    -0.018 C 
HETATM    2  C4  UNL     1      -2.501  -5.990   7.355  1.00  0.00    -0.037 C 
HETATM    3  C5  UNL     1      -2.596  -7.340   6.716  1.00  0.00     0.021 C 
HETATM    4  C6  UNL     1      -1.577  -7.941   6.230  1.00  0.00     0.016 C 
HETATM    5  C11 UNL     1      -3.941  -7.987   6.583  1.00  0.00     0.189 C 
HETATM    6  O1  UNL     1      -3.991  -9.230   6.685  1.00  0.00    -0.287 OA
HETATM    7  C12 UNL     1      -5.204  -7.275   6.343  1.00  0.00    -0.005 C 
HETATM    8  C18 UNL     1      -5.273  -5.944   6.187  1.00  0.00     0.017 C 
HETATM    9  C19 UNL     1      -4.395  -4.804   6.178  1.00  0.00     0.154 C 
HETATM   10  C20 UNL     1      -2.909  -5.005   6.276  1.00  0.00     0.009 C 
HETATM   11  C21 UNL     1      -2.309  -3.622   6.496  1.00  0.00     0.023 C 
HETATM   12  C22 UNL     1      -2.450  -5.438   4.901  1.00  0.00     0.023 C 
ENDROOT
BRANCH   4  13
HETATM   13  C7  UNL     1      -1.513  -9.222   5.593  1.00  0.00     0.003 C 
HETATM   14  C8  UNL     1      -1.000  -9.396   4.376  1.00  0.00    -0.088 C 
HETATM   15  C9  UNL     1      -0.949 -10.721   3.753  1.00  0.00     0.043 C 
HETATM   16  C10 UNL     1      -0.479  -8.220   3.660  1.00  0.00     0.043 C 
ENDBRANCH   4  13
BRANCH   1  17
HETATM   17  C2  UNL     1      -0.024  -5.649   8.068  1.00  0.00     0.023 C 
HETATM   18  C1  UNL     1       0.595  -6.701   9.056  1.00  0.00     0.009 C 
ENDBRANCH   1  17
BRANCH   7  19
HETATM   19  C13 UNL     1      -6.463  -8.046   6.236  1.00  0.00     0.070 C 
BRANCH  19  20
HETATM   20  C14 UNL     1      -7.537  -7.245   6.908  1.00  0.00    -0.020 C 
HETATM   21  C15 UNL     1      -8.595  -7.829   7.449  1.00  0.00    -0.091 C 
HETATM   22  C16 UNL     1      -9.621  -6.987   8.099  1.00  0.00     0.042 C 
HETATM   23  C17 UNL     1      -8.780  -9.298   7.422  1.00  0.00     0.042 C 
ENDBRANCH  19  20
ENDBRANCH   7  19
BRANCH   9  24
HETATM   24  O2  UNL     1      -4.584  -4.160   4.924  1.00  0.00    -0.391 OA
ATOM     25  H2  UNL     1      -4.495  -3.228   5.084  1.00  0.00     0.210 HD
ENDBRANCH   9  24
TORSDOF 5
ENDMDL
MODEL 5
REMARK VINA RESULT: -5.327131484      6.876     10.495
REMARK  5 active torsions:
REMARK  status: ('A' for Active; 'I' for Inactive)
REMARK    1  A    between atoms: C2_2  and  C3_3 
REMARK    2  A    between atoms: C6_6  and  C7_7 
REMARK    3  A    between atoms: C12_13  and  C13_14 
REMARK    4  A    between atoms: C13_14  and  C14_15 
REMARK    5  A    between atoms: C19_20  and  O2_21 
ROOT
HETATM    1  C3  UNL     1      -1.215  -6.973   4.384  1.00  0.00    -0.018 C 
HETATM    2  C4  UNL     1      -2.083  -6.587   5.454  1.00  0.00    -0.037 C 
HETATM    3  C5  UNL     1      -3.151  -5.554   5.277  1.00  0.00     0.021 C 
HETATM    4  C6  UNL     1      -2.941  -4.450   4.666  1.00  0.00     0.016 C 
HETATM    5  C11 UNL     1      -4.497  -5.788   5.892  1.00  0.00     0.189 C 
HETATM    6  O1  UNL     1      -5.492  -5.356   5.274  1.00  0.00    -0.287 OA
HETATM    7  C12 UNL     1      -4.739  -6.486   7.163  1.00  0.00    -0.005 C 
HETATM    8  C18 UNL     1      -3.749  -6.969   7.930  1.00  0.00     0.017 C 
HETATM    9  C19 UNL     1      -2.312  -7.049   7.927  1.00  0.00     0.154 C 
HETATM   10  C20 UNL     1      -1.528  -6.358   6.847  1.00  0.00     0.009 C 
HETATM   11  C21 UNL     1      -0.093  -6.849   6.987  1.00  0.00     0.023 C 
HETATM   12  C22 UNL     1      -1.499  -4.892   7.219  1.00  0.00     0.023 C 
ENDROOT
BRANCH   4  13
HETATM   13  C7  UNL     1      -3.854  -3.375   4.421  1.00  0.00     0.003 C 
HETATM   14  C8  UNL     1      -3.663  -2.145   4.898  1.00  0.00    -0.088 C 
HETATM   15  C9  UNL     1      -4.618  -1.067   4.629  1.00  0.00     0.043 C 
HETATM   16  C10 UNL     1      -2.462  -1.886   5.709  1.00  0.00     0.043 C 
ENDBRANCH   4  13
BRANCH   1  17
HETATM   17  C2  UNL     1      -0.283  -6.154   3.628  1.00  0.00     0.023 C 
HETATM   18  C1  UNL     1      -0.801  -6.114   2.147  1.00  0.00     0.009 C 
ENDBRANCH   1  17
BRANCH   7  19
HETATM   19  C13 UNL     1      -6.127  -6.649   7.649  1.00  0.00     0.070 C 
BRANCH  19  20
HETATM   20  C14 UNL     1      -6.405  -8.119   7.727  1.00  0.00    -0.020 C 
HETATM   21  C15 UNL     1      -7.635  -8.579   7.899  1.00  0.00    -0.091 C 
HETATM   22  C16 UNL     1      -7.848 -10.040   7.966  1.00  0.00     0.042 C 
HETATM   23  C17 UNL     1      -8.801  -7.674   8.025  1.00  0.00     0.042 C 
ENDBRANCH  19  20
ENDBRANCH   7  19
BRANCH   9  24
HETATM   24  O2  UNL     1      -1.872  -6.437   9.132  1.00  0.00    -0.391 OA
ATOM     25  H2  UNL     1      -0.923  -6.481   9.126  1.00  0.00     0.210 HD
ENDBRANCH   9  24
TORSDOF 5
ENDMDL
