MODEL 1
REMARK VINA RESULT: -7.225564579      0.000      0.000
REMARK  1 active torsions:
REMARK  status: ('A' for Active; 'I' for Inactive)
REMARK    1  A    between atoms: C8_8  and  C9_9 
ROOT
HETATM    1  C9  UNL     1      12.978  50.829  59.402  1.00  0.00     0.209 A 
HETATM    2  N1  UNL     1      11.743  50.046  59.445  1.00  0.00    -0.365 N 
ATOM      3  H1  UNL     1      11.807  49.039  59.299  1.00  0.00     0.161 HD
HETATM    4  C10 UNL     1      10.455  50.614  59.680  1.00  0.00     0.098 A 
HETATM    5  S1  UNL     1       8.891  49.936  59.786  1.00  0.00    -0.075 SA
HETATM    6  C11 UNL     1       7.998  51.356  60.081  1.00  0.00    -0.017 A 
HETATM    7  C12 UNL     1       6.511  51.528  60.287  1.00  0.00     0.056 C 
HETATM    8  C13 UNL     1       8.953  52.326  60.088  1.00  0.00     0.046 A 
HETATM    9  C14 UNL     1      10.239  51.934  59.877  1.00  0.00     0.069 A 
HETATM   10  N2  UNL     1      11.439  52.763  59.837  1.00  0.00    -0.323 N 
ATOM     11  H2  UNL     1      11.351  53.769  59.977  1.00  0.00     0.169 HD
HETATM   12  C15 UNL     1      12.713  52.217  59.611  1.00  0.00     0.249 A 
HETATM   13  O1  UNL     1      13.682  53.046  59.601  1.00  0.00    -0.270 OA
ENDROOT
BRANCH   1  14
HETATM   14  C8  UNL     1      13.709  50.365  58.230  1.00  0.00    -0.019 A 
HETATM   15  C6  UNL     1      15.070  50.249  58.153  1.00  0.00    -0.047 A 
HETATM   16  C4  UNL     1      15.598  49.780  56.948  1.00  0.00    -0.055 A 
HETATM   17  C7  UNL     1      15.901  50.615  59.286  1.00  0.00     0.049 C 
HETATM   18  C3  UNL     1      14.829  49.440  55.865  1.00  0.00     0.014 A 
HETATM   19  C5  UNL     1      17.070  49.663  56.888  1.00  0.00     0.049 C 
HETATM   20  C2  UNL     1      13.459  49.556  55.939  1.00  0.00    -0.061 A 
HETATM   21  C1  UNL     1      12.585  49.191  54.771  1.00  0.00     0.048 C 
HETATM   22  C16 UNL     1      12.929  50.015  57.119  1.00  0.00     0.017 A 
ENDBRANCH   1  14
TORSDOF 1
ENDMDL
MODEL 2
REMARK VINA RESULT: -7.069555779      1.312      1.625
REMARK  1 active torsions:
REMARK  status: ('A' for Active; 'I' for Inactive)
REMARK    1  A    between atoms: C8_8  and  C9_9 
ROOT
HETATM    1  C9  UNL     1      12.443  51.235  60.397  1.00  0.00     0.209 A 
HETATM    2  N1  UNL     1      11.143  50.723  59.965  1.00  0.00    -0.365 N 
ATOM      3  H1  UNL     1      11.043  49.719  59.825  1.00  0.00     0.161 HD
HETATM    4  C10 UNL     1      10.005  51.553  59.730  1.00  0.00     0.098 A 
HETATM    5  S1  UNL     1       8.404  51.214  59.239  1.00  0.00    -0.075 SA
HETATM    6  C11 UNL     1       7.782  52.799  59.228  1.00  0.00    -0.017 A 
HETATM    7  C12 UNL     1       6.392  53.281  58.882  1.00  0.00     0.056 C 
HETATM    8  C13 UNL     1       8.849  53.553  59.610  1.00  0.00     0.046 A 
HETATM    9  C14 UNL     1      10.012  52.898  59.872  1.00  0.00     0.069 A 
HETATM   10  N2  UNL     1      11.289  53.461  60.295  1.00  0.00    -0.323 N 
ATOM     11  H2  UNL     1      11.368  54.470  60.421  1.00  0.00     0.169 HD
HETATM   12  C15 UNL     1      12.415  52.656  60.534  1.00  0.00     0.249 A 
HETATM   13  O1  UNL     1      13.471  53.270  60.901  1.00  0.00    -0.270 OA
ENDROOT
BRANCH   1  14
HETATM   14  C8  UNL     1      13.434  50.573  59.560  1.00  0.00    -0.019 A 
HETATM   15  C6  UNL     1      14.632  50.084  60.005  1.00  0.00    -0.047 A 
HETATM   16  C4  UNL     1      15.458  49.473  59.059  1.00  0.00    -0.055 A 
HETATM   17  C7  UNL     1      15.003  50.218  61.403  1.00  0.00     0.049 C 
HETATM   18  C3  UNL     1      15.128  49.347  57.735  1.00  0.00     0.014 A 
HETATM   19  C5  UNL     1      16.745  48.951  59.563  1.00  0.00     0.049 C 
HETATM   20  C2  UNL     1      13.924  49.839  57.282  1.00  0.00    -0.061 A 
HETATM   21  C1  UNL     1      13.529  49.717  55.837  1.00  0.00     0.048 C 
HETATM   22  C16 UNL     1      13.104  50.440  58.205  1.00  0.00     0.017 A 
ENDBRANCH   1  14
TORSDOF 1
ENDMDL
MODEL 3
REMARK VINA RESULT: -6.800059677      2.950      4.141
REMARK  1 active torsions:
REMARK  status: ('A' for Active; 'I' for Inactive)
REMARK    1  A    between atoms: C8_8  and  C9_9 
ROOT
HETATM    1  C9  UNL     1      14.718  51.311  59.666  1.00  0.00     0.209 A 
HETATM    2  N1  UNL     1      14.283  50.880  60.993  1.00  0.00    -0.365 N 
ATOM      3  H1  UNL     1      14.153  49.882  61.156  1.00  0.00     0.161 HD
HETATM    4  C10 UNL     1      14.029  51.779  62.073  1.00  0.00     0.098 A 
HETATM    5  S1  UNL     1      13.530  51.538  63.689  1.00  0.00    -0.075 SA
HETATM    6  C11 UNL     1      13.495  53.160  64.207  1.00  0.00    -0.017 A 
HETATM    7  C12 UNL     1      13.134  53.726  65.560  1.00  0.00     0.056 C 
HETATM    8  C13 UNL     1      13.877  53.848  63.095  1.00  0.00     0.046 A 
HETATM    9  C14 UNL     1      14.155  53.122  61.980  1.00  0.00     0.069 A 
HETATM   10  N2  UNL     1      14.582  53.606  60.671  1.00  0.00    -0.323 N 
ATOM     11  H2  UNL     1      14.697  54.610  60.529  1.00  0.00     0.169 HD
HETATM   12  C15 UNL     1      14.839  52.733  59.602  1.00  0.00     0.249 A 
HETATM   13  O1  UNL     1      15.207  53.281  58.510  1.00  0.00    -0.270 OA
ENDROOT
BRANCH   1  14
HETATM   14  C8  UNL     1      13.897  50.576  58.713  1.00  0.00    -0.019 A 
HETATM   15  C6  UNL     1      14.333  50.104  57.505  1.00  0.00    -0.047 A 
HETATM   16  C4  UNL     1      13.405  49.414  56.722  1.00  0.00    -0.055 A 
HETATM   17  C7  UNL     1      15.704  50.333  57.082  1.00  0.00     0.049 C 
HETATM   18  C3  UNL     1      12.106  49.198  57.102  1.00  0.00     0.014 A 
HETATM   19  C5  UNL     1      13.899  48.912  55.423  1.00  0.00     0.049 C 
HETATM   20  C2  UNL     1      11.662  49.673  58.316  1.00  0.00    -0.061 A 
HETATM   21  C1  UNL     1      10.244  49.453  58.765  1.00  0.00     0.048 C 
HETATM   22  C16 UNL     1      12.567  50.351  59.094  1.00  0.00     0.017 A 
ENDBRANCH   1  14
TORSDOF 1
ENDMDL
MODEL 4
REMARK VINA RESULT: -6.681065675      2.286      6.280
REMARK  1 active torsions:
REMARK  status: ('A' for Active; 'I' for Inactive)
REMARK    1  A    between atoms: C8_8  and  C9_9 
ROOT
HETATM    1  C9  UNL     1      11.971  52.498  59.259  1.00  0.00     0.209 A 
HETATM    2  N1  UNL     1      12.521  52.083  57.969  1.00  0.00    -0.365 N 
ATOM      3  H1  UNL     1      11.982  52.289  57.128  1.00  0.00     0.161 HD
HETATM    4  C10 UNL     1      13.770  51.408  57.822  1.00  0.00     0.098 A 
HETATM    5  S1  UNL     1      14.624  50.835  56.458  1.00  0.00    -0.075 SA
HETATM    6  C11 UNL     1      15.985  50.180  57.245  1.00  0.00    -0.017 A 
HETATM    7  C12 UNL     1      17.191  49.486  56.657  1.00  0.00     0.056 C 
HETATM    8  C13 UNL     1      15.732  50.429  58.560  1.00  0.00     0.046 A 
HETATM    9  C14 UNL     1      14.571  51.072  58.858  1.00  0.00     0.069 A 
HETATM   10  N2  UNL     1      14.064  51.457  60.171  1.00  0.00    -0.323 N 
ATOM     11  H2  UNL     1      14.617  51.234  60.999  1.00  0.00     0.169 HD
HETATM   12  C15 UNL     1      12.840  52.125  60.330  1.00  0.00     0.249 A 
HETATM   13  O1  UNL     1      12.510  52.408  61.529  1.00  0.00    -0.270 OA
ENDROOT
BRANCH   1  14
HETATM   14  C8  UNL     1      10.570  52.101  59.246  1.00  0.00    -0.019 A 
HETATM   15  C6  UNL     1       9.511  52.967  59.268  1.00  0.00    -0.047 A 
HETATM   16  C4  UNL     1       8.232  52.406  59.246  1.00  0.00    -0.055 A 
HETATM   17  C7  UNL     1       9.740  54.401  59.322  1.00  0.00     0.049 C 
HETATM   18  C3  UNL     1       7.999  51.056  59.205  1.00  0.00     0.014 A 
HETATM   19  C5  UNL     1       7.105  53.361  59.269  1.00  0.00     0.049 C 
HETATM   20  C2  UNL     1       9.061  50.180  59.184  1.00  0.00    -0.061 A 
HETATM   21  C1  UNL     1       8.841  48.694  59.139  1.00  0.00     0.048 C 
HETATM   22  C16 UNL     1      10.323  50.722  59.205  1.00  0.00     0.017 A 
ENDBRANCH   1  14
TORSDOF 1
ENDMDL
MODEL 5
REMARK VINA RESULT: -6.560062418      2.764      6.347
REMARK  1 active torsions:
REMARK  status: ('A' for Active; 'I' for Inactive)
REMARK    1  A    between atoms: C8_8  and  C9_9 
ROOT
HETATM    1  C9  UNL     1      10.845  50.129  59.938  1.00  0.00     0.209 A 
HETATM    2  N1  UNL     1      11.826  50.691  60.865  1.00  0.00    -0.365 N 
ATOM      3  H1  UNL     1      11.482  51.177  61.693  1.00  0.00     0.161 HD
HETATM    4  C10 UNL     1      13.238  50.598  60.675  1.00  0.00     0.098 A 
HETATM    5  S1  UNL     1      14.570  51.149  61.591  1.00  0.00    -0.075 SA
HETATM    6  C11 UNL     1      15.834  50.587  60.598  1.00  0.00    -0.017 A 
HETATM    7  C12 UNL     1      17.328  50.716  60.784  1.00  0.00     0.056 C 
HETATM    8  C13 UNL     1      15.176  49.981  59.572  1.00  0.00     0.046 A 
HETATM    9  C14 UNL     1      13.816  49.988  59.615  1.00  0.00     0.069 A 
HETATM   10  N2  UNL     1      12.880  49.415  58.655  1.00  0.00    -0.323 N 
ATOM     11  H2  UNL     1      13.246  48.940  57.829  1.00  0.00     0.169 HD
HETATM   12  C15 UNL     1      11.489  49.496  58.831  1.00  0.00     0.249 A 
HETATM   13  O1  UNL     1      10.779  48.953  57.921  1.00  0.00    -0.270 OA
ENDROOT
BRANCH   1  14
HETATM   14  C8  UNL     1       9.838  51.162  59.740  1.00  0.00    -0.019 A 
HETATM   15  C6  UNL     1      10.099  52.439  59.325  1.00  0.00    -0.047 A 
HETATM   16  C4  UNL     1       9.005  53.296  59.184  1.00  0.00    -0.055 A 
HETATM   17  C7  UNL     1      11.464  52.858  59.061  1.00  0.00     0.049 C 
HETATM   18  C3  UNL     1       7.712  52.920  59.439  1.00  0.00     0.014 A 
HETATM   19  C5  UNL     1       9.311  54.670  58.734  1.00  0.00     0.049 C 
HETATM   20  C2  UNL     1       7.444  51.636  59.858  1.00  0.00    -0.061 A 
HETATM   21  C1  UNL     1       6.038  51.190  60.146  1.00  0.00     0.048 C 
HETATM   22  C16 UNL     1       8.513  50.785  59.999  1.00  0.00     0.017 A 
ENDBRANCH   1  14
TORSDOF 1
ENDMDL
