MODEL 1
REMARK VINA RESULT: -8.950311005      0.000      0.000
REMARK  2 active torsions:
REMARK  status: ('A' for Active; 'I' for Inactive)
REMARK    1  A    between atoms: C3_3  and  C5_5 
REMARK    2  A    between atoms: C11_13  and  C12_14 
ROOT
HETATM    1  C5  UNL     1      12.801  52.474  61.352  1.00  0.00     0.046 C 
HETATM    2  N1  UNL     1      11.575  53.259  61.008  1.00  0.00    -0.384 N 
ATOM      3  H1  UNL     1      11.400  54.195  61.374  1.00  0.00     0.160 HD
HETATM    4  C6  UNL     1      10.648  52.576  60.104  1.00  0.00     0.082 C 
HETATM    5  C7  UNL     1       9.319  53.229  60.044  1.00  0.00     0.032 C 
HETATM    6  C8  UNL     1      11.394  52.677  58.766  1.00  0.00     0.064 C 
HETATM    7  C9  UNL     1      12.583  51.798  58.992  1.00  0.00    -0.042 A 
HETATM    8  C10 UNL     1      12.973  51.037  57.929  1.00  0.00     0.017 A 
HETATM    9  C11 UNL     1      14.015  50.154  58.026  1.00  0.00    -0.028 A 
HETATM   10  C15 UNL     1      14.655  50.050  59.234  1.00  0.00     0.074 A 
HETATM   11  N2  UNL     1      15.734  49.166  59.366  1.00  0.00    -0.100 NA
HETATM   12  C16 UNL     1      14.258  50.823  60.334  1.00  0.00     0.082 A 
HETATM   13  C17 UNL     1      14.678  50.260  61.615  1.00  0.00     0.102 C 
HETATM   14  N3  UNL     1      15.004  49.672  62.589  1.00  0.00    -0.191 NA
HETATM   15  C18 UNL     1      13.254  51.695  60.231  1.00  0.00     0.020 A 
ENDROOT
BRANCH   9  16
HETATM   16  C12 UNL     1      14.415  49.352  56.843  1.00  0.00     0.012 C 
HETATM   17  C13 UNL     1      13.380  49.407  55.750  1.00  0.00     0.015 C 
HETATM   18  C14 UNL     1      15.755  49.866  56.312  1.00  0.00     0.015 C 
ENDBRANCH   9  16
BRANCH   1  19
HETATM   19  C3  UNL     1      13.391  52.745  62.440  1.00  0.00    -0.039 C 
HETATM   20  C2  UNL     1      13.565  52.737  63.847  1.00  0.00    -0.022 C 
HETATM   21  C1  UNL     1      13.585  54.096  64.548  1.00  0.00     0.036 C 
HETATM   22  C4  UNL     1      14.575  53.789  62.018  1.00  0.00     0.050 C 
ENDBRANCH   1  19
TORSDOF 2
ENDMDL
MODEL 2
REMARK VINA RESULT: -7.934349596      1.985      5.097
REMARK  2 active torsions:
REMARK  status: ('A' for Active; 'I' for Inactive)
REMARK    1  A    between atoms: C3_3  and  C5_5 
REMARK    2  A    between atoms: C11_13  and  C12_14 
ROOT
HETATM    1  C5  UNL     1      13.756  50.607  59.351  1.00  0.00     0.046 C 
HETATM    2  N1  UNL     1      13.988  49.690  58.193  1.00  0.00    -0.384 N 
ATOM      3  H1  UNL     1      14.699  48.959  58.203  1.00  0.00     0.160 HD
HETATM    4  C6  UNL     1      13.112  49.926  57.043  1.00  0.00     0.082 C 
HETATM    5  C7  UNL     1      13.575  49.235  55.817  1.00  0.00     0.032 C 
HETATM    6  C8  UNL     1      11.780  49.356  57.550  1.00  0.00     0.064 C 
HETATM    7  C9  UNL     1      11.413  50.313  58.641  1.00  0.00    -0.042 A 
HETATM    8  C10 UNL     1      10.090  50.626  58.741  1.00  0.00     0.017 A 
HETATM    9  C11 UNL     1       9.636  51.529  59.665  1.00  0.00    -0.028 A 
HETATM   10  C15 UNL     1      10.559  52.120  60.488  1.00  0.00     0.074 A 
HETATM   11  N2  UNL     1      10.129  53.040  61.453  1.00  0.00    -0.100 NA
HETATM   12  C16 UNL     1      11.923  51.811  60.389  1.00  0.00     0.082 A 
HETATM   13  C17 UNL     1      12.789  52.842  60.952  1.00  0.00     0.102 C 
HETATM   14  N3  UNL     1      13.389  53.775  61.368  1.00  0.00    -0.191 NA
HETATM   15  C18 UNL     1      12.358  50.917  59.500  1.00  0.00     0.020 A 
ENDROOT
BRANCH   9  16
HETATM   16  C12 UNL     1       8.186  51.834  59.748  1.00  0.00     0.012 C 
HETATM   17  C13 UNL     1       7.827  53.075  58.974  1.00  0.00     0.015 C 
HETATM   18  C14 UNL     1       7.386  50.643  59.214  1.00  0.00     0.015 C 
ENDBRANCH   9  16
BRANCH   1  19
HETATM   19  C3  UNL     1      14.717  50.804  60.151  1.00  0.00    -0.039 C 
HETATM   20  C2  UNL     1      15.877  51.462  60.634  1.00  0.00    -0.022 C 
HETATM   21  C1  UNL     1      17.154  50.626  60.732  1.00  0.00     0.036 C 
HETATM   22  C4  UNL     1      14.693  49.513  61.153  1.00  0.00     0.050 C 
ENDBRANCH   1  19
TORSDOF 2
ENDMDL
MODEL 3
REMARK VINA RESULT: -7.735753368      0.907      1.186
REMARK  2 active torsions:
REMARK  status: ('A' for Active; 'I' for Inactive)
REMARK    1  A    between atoms: C3_3  and  C5_5 
REMARK    2  A    between atoms: C11_13  and  C12_14 
ROOT
HETATM    1  C5  UNL     1      12.657  51.964  61.323  1.00  0.00     0.046 C 
HETATM    2  N1  UNL     1      11.191  52.245  61.236  1.00  0.00    -0.384 N 
ATOM      3  H1  UNL     1      10.739  52.985  61.773  1.00  0.00     0.160 HD
HETATM    4  C6  UNL     1      10.456  51.371  60.320  1.00  0.00     0.082 C 
HETATM    5  C7  UNL     1       8.987  51.456  60.499  1.00  0.00     0.032 C 
HETATM    6  C8  UNL     1      10.896  51.918  58.955  1.00  0.00     0.064 C 
HETATM    7  C9  UNL     1      12.347  51.551  58.913  1.00  0.00    -0.042 A 
HETATM    8  C10 UNL     1      12.823  51.139  57.703  1.00  0.00     0.017 A 
HETATM    9  C11 UNL     1      14.120  50.728  57.547  1.00  0.00    -0.028 A 
HETATM   10  C15 UNL     1      14.930  50.734  58.654  1.00  0.00     0.074 A 
HETATM   11  N2  UNL     1      16.266  50.331  58.530  1.00  0.00    -0.100 NA
HETATM   12  C16 UNL     1      14.448  51.149  59.903  1.00  0.00     0.082 A 
HETATM   13  C17 UNL     1      15.237  50.642  61.022  1.00  0.00     0.102 C 
HETATM   14  N3  UNL     1      15.903  50.113  61.846  1.00  0.00    -0.191 NA
HETATM   15  C18 UNL     1      13.189  51.566  60.046  1.00  0.00     0.020 A 
ENDROOT
BRANCH   9  16
HETATM   16  C12 UNL     1      14.602  50.297  56.212  1.00  0.00     0.012 C 
HETATM   17  C13 UNL     1      15.926  49.585  56.295  1.00  0.00     0.015 C 
HETATM   18  C14 UNL     1      13.561  49.377  55.570  1.00  0.00     0.015 C 
ENDBRANCH   9  16
BRANCH   1  19
HETATM   19  C3  UNL     1      13.264  52.307  62.380  1.00  0.00    -0.039 C 
HETATM   20  C2  UNL     1      13.646  52.192  63.741  1.00  0.00    -0.022 C 
HETATM   21  C1  UNL     1      13.262  53.349  64.666  1.00  0.00     0.036 C 
HETATM   22  C4  UNL     1      13.887  53.779  62.039  1.00  0.00     0.050 C 
ENDBRANCH   1  19
TORSDOF 2
ENDMDL
MODEL 4
REMARK VINA RESULT: -7.064904492      2.044      4.819
REMARK  2 active torsions:
REMARK  status: ('A' for Active; 'I' for Inactive)
REMARK    1  A    between atoms: C3_3  and  C5_5 
REMARK    2  A    between atoms: C11_13  and  C12_14 
ROOT
HETATM    1  C5  UNL     1      14.454  51.853  59.963  1.00  0.00     0.046 C 
HETATM    2  N1  UNL     1      14.666  52.804  61.098  1.00  0.00    -0.384 N 
ATOM      3  H1  UNL     1      15.443  53.464  61.125  1.00  0.00     0.160 HD
HETATM    4  C6  UNL     1      13.669  52.710  62.166  1.00  0.00     0.082 C 
HETATM    5  C7  UNL     1      14.082  53.418  63.401  1.00  0.00     0.032 C 
HETATM    6  C8  UNL     1      12.452  53.374  61.508  1.00  0.00     0.064 C 
HETATM    7  C9  UNL     1      12.096  52.401  60.429  1.00  0.00    -0.042 A 
HETATM    8  C10 UNL     1      10.763  52.207  60.216  1.00  0.00     0.017 A 
HETATM    9  C11 UNL     1      10.310  51.304  59.292  1.00  0.00    -0.028 A 
HETATM   10  C15 UNL     1      11.243  50.587  58.588  1.00  0.00     0.074 A 
HETATM   11  N2  UNL     1      10.817  49.661  57.626  1.00  0.00    -0.100 NA
HETATM   12  C16 UNL     1      12.616  50.772  58.805  1.00  0.00     0.082 A 
HETATM   13  C17 UNL     1      13.426  49.637  58.374  1.00  0.00     0.102 C 
HETATM   14  N3  UNL     1      13.968  48.632  58.059  1.00  0.00    -0.191 NA
HETATM   15  C18 UNL     1      13.052  51.667  59.693  1.00  0.00     0.020 A 
ENDROOT
BRANCH   9  16
HETATM   16  C12 UNL     1       8.851  51.131  59.082  1.00  0.00     0.012 C 
HETATM   17  C13 UNL     1       8.358  49.814  59.620  1.00  0.00     0.015 C 
HETATM   18  C14 UNL     1       8.102  52.279  59.761  1.00  0.00     0.015 C 
ENDBRANCH   9  16
BRANCH   1  19
HETATM   19  C3  UNL     1      15.461  51.526  59.269  1.00  0.00    -0.039 C 
HETATM   20  C2  UNL     1      16.262  51.488  58.100  1.00  0.00    -0.022 C 
HETATM   21  C1  UNL     1      16.527  50.110  57.489  1.00  0.00     0.036 C 
HETATM   22  C4  UNL     1      16.261  50.438  60.190  1.00  0.00     0.050 C 
ENDBRANCH   1  19
TORSDOF 2
ENDMDL
MODEL 5
REMARK VINA RESULT: -6.960175715      1.947      4.947
REMARK  2 active torsions:
REMARK  status: ('A' for Active; 'I' for Inactive)
REMARK    1  A    between atoms: C3_3  and  C5_5 
REMARK    2  A    between atoms: C11_13  and  C12_14 
ROOT
HETATM    1  C5  UNL     1      13.567  49.877  59.598  1.00  0.00     0.046 C 
HETATM    2  N1  UNL     1      13.832  49.251  58.266  1.00  0.00    -0.384 N 
ATOM      3  H1  UNL     1      14.432  48.434  58.151  1.00  0.00     0.160 HD
HETATM    4  C6  UNL     1      13.161  49.905  57.140  1.00  0.00     0.082 C 
HETATM    5  C7  UNL     1      13.692  49.473  55.826  1.00  0.00     0.032 C 
HETATM    6  C8  UNL     1      11.708  49.453  57.345  1.00  0.00     0.064 C 
HETATM    7  C9  UNL     1      11.326  50.155  58.609  1.00  0.00    -0.042 A 
HETATM    8  C10 UNL     1      10.054  50.646  58.658  1.00  0.00     0.017 A 
HETATM    9  C11 UNL     1       9.601  51.353  59.739  1.00  0.00    -0.028 A 
HETATM   10  C15 UNL     1      10.473  51.563  60.776  1.00  0.00     0.074 A 
HETATM   11  N2  UNL     1      10.040  52.273  61.904  1.00  0.00    -0.100 NA
HETATM   12  C16 UNL     1      11.784  51.070  60.733  1.00  0.00     0.082 A 
HETATM   13  C17 UNL     1      12.694  51.773  61.633  1.00  0.00     0.102 C 
HETATM   14  N3  UNL     1      13.350  52.463  62.337  1.00  0.00    -0.191 NA
HETATM   15  C18 UNL     1      12.216  50.365  59.685  1.00  0.00     0.020 A 
ENDROOT
BRANCH   9  16
HETATM   16  C12 UNL     1       8.207  51.861  59.757  1.00  0.00     0.012 C 
HETATM   17  C13 UNL     1       8.107  53.251  59.187  1.00  0.00     0.015 C 
HETATM   18  C14 UNL     1       7.311  50.910  58.960  1.00  0.00     0.015 C 
ENDBRANCH   9  16
BRANCH   1  19
HETATM   19  C3  UNL     1      14.427  49.711  60.512  1.00  0.00    -0.039 C 
HETATM   20  C2  UNL     1      14.936  49.163  61.717  1.00  0.00    -0.022 C 
HETATM   21  C1  UNL     1      15.261  50.150  62.840  1.00  0.00     0.036 C 
HETATM   22  C4  UNL     1      15.572  50.838  60.212  1.00  0.00     0.050 C 
ENDBRANCH   1  19
TORSDOF 2
ENDMDL
