MODEL 1
REMARK VINA RESULT: -7.631124790      0.000      0.000
REMARK  0 active torsions:
REMARK  status: ('A' for Active; 'I' for Inactive)
ROOT
HETATM    1  O1  UNL     1      13.430  52.989  63.195  1.00  0.00    -0.273 OA
HETATM    2  C1  UNL     1      12.850  51.967  62.679  1.00  0.00     0.224 C 
HETATM    3  C2  UNL     1      13.795  50.930  62.189  1.00  0.00     0.103 C 
HETATM    4  C3  UNL     1      14.717  51.578  61.144  1.00  0.00     0.009 C 
HETATM    5  C4  UNL     1      15.785  50.592  60.831  1.00  0.00     0.000 C 
HETATM    6  C5  UNL     1      16.815  51.034  59.861  1.00  0.00     0.000 C 
HETATM    7  C6  UNL     1      16.340  51.692  58.618  1.00  0.00     0.000 C 
HETATM    8  C7  UNL     1      16.386  50.718  57.455  1.00  0.00     0.000 C 
HETATM    9  C8  UNL     1      15.298  49.693  57.691  1.00  0.00     0.000 C 
HETATM   10  C9  UNL     1      14.720  49.167  56.411  1.00  0.00     0.000 C 
HETATM   11  C10 UNL     1      13.419  49.702  56.011  1.00  0.00     0.000 C 
HETATM   12  C11 UNL     1      12.519  50.229  57.075  1.00  0.00     0.004 C 
HETATM   13  C12 UNL     1      11.919  49.186  57.966  1.00  0.00     0.031 C 
HETATM   14  C13 UNL     1      10.578  49.648  58.409  1.00  0.00     0.031 C 
HETATM   15  C14 UNL     1      10.374  50.313  59.534  1.00  0.00     0.162 A 
HETATM   16  N1  UNL     1       9.156  50.812  60.079  1.00  0.00    -0.277 N 
ATOM     17  H1  UNL     1       8.231  50.721  59.656  1.00  0.00     0.189 HD
HETATM   18  N2  UNL     1       9.443  51.444  61.285  1.00  0.00    -0.263 N 
ATOM     19  H2  UNL     1       8.770  51.897  61.904  1.00  0.00     0.190 HD
HETATM   20  C15 UNL     1      10.715  51.351  61.477  1.00  0.00     0.247 A 
HETATM   21  N3  UNL     1      11.438  51.866  62.597  1.00  0.00    -0.291 N 
ATOM     22  H3  UNL     1      10.895  52.184  63.401  1.00  0.00     0.172 HD
HETATM   23  O2  UNL     1      11.336  50.671  60.443  1.00  0.00    -0.260 OA
ENDROOT
TORSDOF 0
ENDMDL
MODEL 2
REMARK VINA RESULT: -7.177638318      3.169      5.215
REMARK  0 active torsions:
REMARK  status: ('A' for Active; 'I' for Inactive)
ROOT
HETATM    1  O1  UNL     1      17.221  51.621  59.991  1.00  0.00    -0.273 OA
HETATM    2  C1  UNL     1      16.279  51.672  59.120  1.00  0.00     0.224 C 
HETATM    3  C2  UNL     1      15.161  52.573  59.503  1.00  0.00     0.103 C 
HETATM    4  C3  UNL     1      14.592  52.084  60.844  1.00  0.00     0.009 C 
HETATM    5  C4  UNL     1      13.629  53.115  61.313  1.00  0.00     0.000 C 
HETATM    6  C5  UNL     1      12.984  52.857  62.623  1.00  0.00     0.000 C 
HETATM    7  C6  UNL     1      12.437  51.497  62.854  1.00  0.00     0.000 C 
HETATM    8  C7  UNL     1      10.929  51.500  62.683  1.00  0.00     0.000 C 
HETATM    9  C8  UNL     1      10.651  51.692  61.207  1.00  0.00     0.000 C 
HETATM   10  C9  UNL     1       9.390  51.008  60.769  1.00  0.00     0.000 C 
HETATM   11  C10 UNL     1       9.547  49.744  60.051  1.00  0.00     0.000 C 
HETATM   12  C11 UNL     1      10.819  49.508  59.312  1.00  0.00     0.004 C 
HETATM   13  C12 UNL     1      10.993  50.338  58.078  1.00  0.00     0.031 C 
HETATM   14  C13 UNL     1      11.787  49.562  57.088  1.00  0.00     0.031 C 
HETATM   15  C14 UNL     1      13.102  49.650  56.983  1.00  0.00     0.162 A 
HETATM   16  N1  UNL     1      13.982  48.974  56.089  1.00  0.00    -0.277 N 
ATOM     17  H1  UNL     1      13.706  48.298  55.376  1.00  0.00     0.189 HD
HETATM   18  N2  UNL     1      15.282  49.393  56.357  1.00  0.00    -0.263 N 
ATOM     19  H2  UNL     1      16.127  49.082  55.877  1.00  0.00     0.190 HD
HETATM   20  C15 UNL     1      15.223  50.246  57.323  1.00  0.00     0.247 A 
HETATM   21  N3  UNL     1      16.330  50.928  57.914  1.00  0.00    -0.291 N 
ATOM     22  H3  UNL     1      17.228  50.875  57.431  1.00  0.00     0.172 HD
HETATM   23  O2  UNL     1      13.919  50.444  57.745  1.00  0.00    -0.260 OA
ENDROOT
TORSDOF 0
ENDMDL
MODEL 3
REMARK VINA RESULT: -6.781001194      3.191      6.511
REMARK  0 active torsions:
REMARK  status: ('A' for Active; 'I' for Inactive)
ROOT
HETATM    1  O1  UNL     1      13.152  49.750  55.717  1.00  0.00    -0.273 OA
HETATM    2  C1  UNL     1      13.532  49.280  56.850  1.00  0.00     0.224 C 
HETATM    3  C2  UNL     1      12.413  49.027  57.795  1.00  0.00     0.103 C 
HETATM    4  C3  UNL     1      11.665  50.352  58.015  1.00  0.00     0.009 C 
HETATM    5  C4  UNL     1      10.432  50.036  58.783  1.00  0.00     0.000 C 
HETATM    6  C5  UNL     1       9.535  51.179  59.075  1.00  0.00     0.000 C 
HETATM    7  C6  UNL     1      10.163  52.419  59.595  1.00  0.00     0.000 C 
HETATM    8  C7  UNL     1       9.956  52.527  61.095  1.00  0.00     0.000 C 
HETATM    9  C8  UNL     1      10.814  51.458  61.739  1.00  0.00     0.000 C 
HETATM   10  C9  UNL     1      11.309  51.864  63.095  1.00  0.00     0.000 C 
HETATM   11  C10 UNL     1      12.700  52.307  63.179  1.00  0.00     0.000 C 
HETATM   12  C11 UNL     1      13.659  51.811  62.152  1.00  0.00     0.004 C 
HETATM   13  C12 UNL     1      14.017  50.362  62.272  1.00  0.00     0.031 C 
HETATM   14  C13 UNL     1      15.411  50.172  61.793  1.00  0.00     0.031 C 
HETATM   15  C14 UNL     1      15.713  49.845  60.548  1.00  0.00     0.162 A 
HETATM   16  N1  UNL     1      16.991  49.632  59.956  1.00  0.00    -0.277 N 
ATOM     17  H1  UNL     1      17.891  49.706  60.433  1.00  0.00     0.189 HD
HETATM   18  N2  UNL     1      16.804  49.306  58.616  1.00  0.00    -0.263 N 
ATOM     19  H2  UNL     1      17.536  49.098  57.937  1.00  0.00     0.190 HD
HETATM   20  C15 UNL     1      15.533  49.315  58.390  1.00  0.00     0.247 A 
HETATM   21  N3  UNL     1      14.898  49.034  57.142  1.00  0.00    -0.291 N 
ATOM     22  H3  UNL     1      15.471  48.625  56.403  1.00  0.00     0.172 HD
HETATM   23  O2  UNL     1      14.817  49.636  59.531  1.00  0.00    -0.260 OA
ENDROOT
TORSDOF 0
ENDMDL
MODEL 4
REMARK VINA RESULT: -6.480176546      3.286      6.593
REMARK  0 active torsions:
REMARK  status: ('A' for Active; 'I' for Inactive)
ROOT
HETATM    1  O1  UNL     1      12.544  49.446  55.213  1.00  0.00    -0.273 OA
HETATM    2  C1  UNL     1      13.323  49.355  56.229  1.00  0.00     0.224 C 
HETATM    3  C2  UNL     1      12.647  48.862  57.457  1.00  0.00     0.103 C 
HETATM    4  C3  UNL     1      11.492  49.821  57.784  1.00  0.00     0.009 C 
HETATM    5  C4  UNL     1      10.700  49.197  58.877  1.00  0.00     0.000 C 
HETATM    6  C5  UNL     1       9.503  49.947  59.325  1.00  0.00     0.000 C 
HETATM    7  C6  UNL     1       9.666  51.401  59.572  1.00  0.00     0.000 C 
HETATM    8  C7  UNL     1       9.771  51.675  61.062  1.00  0.00     0.000 C 
HETATM    9  C8  UNL     1      11.111  51.137  61.517  1.00  0.00     0.000 C 
HETATM   10  C9  UNL     1      11.684  51.924  62.658  1.00  0.00     0.000 C 
HETATM   11  C10 UNL     1      12.752  52.868  62.331  1.00  0.00     0.000 C 
HETATM   12  C11 UNL     1      13.576  52.606  61.118  1.00  0.00     0.004 C 
HETATM   13  C12 UNL     1      14.513  51.444  61.232  1.00  0.00     0.031 C 
HETATM   14  C13 UNL     1      15.718  51.717  60.406  1.00  0.00     0.031 C 
HETATM   15  C14 UNL     1      15.843  51.323  59.150  1.00  0.00     0.162 A 
HETATM   16  N1  UNL     1      16.930  51.513  58.249  1.00  0.00    -0.277 N 
ATOM     17  H1  UNL     1      17.801  52.001  58.458  1.00  0.00     0.189 HD
HETATM   18  N2  UNL     1      16.600  50.918  57.035  1.00  0.00    -0.263 N 
ATOM     19  H2  UNL     1      17.183  50.891  56.198  1.00  0.00     0.190 HD
HETATM   20  C15 UNL     1      15.422  50.406  57.162  1.00  0.00     0.247 A 
HETATM   21  N3  UNL     1      14.698  49.698  56.155  1.00  0.00    -0.291 N 
ATOM     22  H3  UNL     1      15.209  49.418  55.317  1.00  0.00     0.172 HD
HETATM   23  O2  UNL     1      14.910  50.621  58.431  1.00  0.00    -0.260 OA
ENDROOT
TORSDOF 0
ENDMDL
MODEL 5
REMARK VINA RESULT: -5.948745950      2.800      4.989
REMARK  0 active torsions:
REMARK  status: ('A' for Active; 'I' for Inactive)
ROOT
HETATM    1  O1  UNL     1      13.907  53.557  63.088  1.00  0.00    -0.273 OA
HETATM    2  C1  UNL     1      14.277  53.094  61.949  1.00  0.00     0.224 C 
HETATM    3  C2  UNL     1      13.310  53.367  60.853  1.00  0.00     0.103 C 
HETATM    4  C3  UNL     1      11.959  52.748  61.243  1.00  0.00     0.009 C 
HETATM    5  C4  UNL     1      10.960  53.215  60.246  1.00  0.00     0.000 C 
HETATM    6  C5  UNL     1       9.565  52.761  60.458  1.00  0.00     0.000 C 
HETATM    7  C6  UNL     1       9.358  51.322  60.761  1.00  0.00     0.000 C 
HETATM    8  C7  UNL     1       8.873  50.588  59.524  1.00  0.00     0.000 C 
HETATM    9  C8  UNL     1      10.037  50.531  58.558  1.00  0.00     0.000 C 
HETATM   10  C9  UNL     1      10.011  49.298  57.704  1.00  0.00     0.000 C 
HETATM   11  C10 UNL     1      10.931  48.224  58.075  1.00  0.00     0.000 C 
HETATM   12  C11 UNL     1      12.166  48.585  58.826  1.00  0.00     0.004 C 
HETATM   13  C12 UNL     1      13.198  49.318  58.026  1.00  0.00     0.031 C 
HETATM   14  C13 UNL     1      14.546  48.961  58.542  1.00  0.00     0.031 C 
HETATM   15  C14 UNL     1      15.181  49.664  59.465  1.00  0.00     0.162 A 
HETATM   16  N1  UNL     1      16.462  49.442  60.045  1.00  0.00    -0.277 N 
ATOM     17  H1  UNL     1      17.096  48.674  59.819  1.00  0.00     0.189 HD
HETATM   18  N2  UNL     1      16.702  50.450  60.973  1.00  0.00    -0.263 N 
ATOM     19  H2  UNL     1      17.539  50.555  61.547  1.00  0.00     0.190 HD
HETATM   20  C15 UNL     1      15.672  51.228  60.976  1.00  0.00     0.247 A 
HETATM   21  N3  UNL     1      15.498  52.393  61.783  1.00  0.00    -0.291 N 
ATOM     22  H3  UNL     1      16.317  52.749  62.278  1.00  0.00     0.172 HD
HETATM   23  O2  UNL     1      14.712  50.799  60.074  1.00  0.00    -0.260 OA
ENDROOT
TORSDOF 0
ENDMDL
