MODEL 1
REMARK VINA RESULT: -5.589563544      0.000      0.000
REMARK  3 active torsions:
REMARK  status: ('A' for Active; 'I' for Inactive)
REMARK    1  A    between atoms: O1_1  and  C1_3 
REMARK    2  A    between atoms: C1_3  and  C2_4 
REMARK    3  A    between atoms: C2_4  and  C3_5 
ROOT
HETATM    1  C2  UNL     1      -5.007   2.458  15.358  1.00  0.00     0.108 C 
HETATM    2  O2  UNL     1      -4.005   3.401  15.324  1.00  0.00    -0.371 OA
HETATM    3  C4  UNL     1      -3.221   3.397  14.227  1.00  0.00     0.237 C 
HETATM    4  C5  UNL     1      -3.858   3.169  12.914  1.00  0.00     0.249 C 
HETATM    5  C6  UNL     1      -5.144   2.430  12.928  1.00  0.00     0.094 C 
HETATM    6  C7  UNL     1      -5.930   2.748  14.199  1.00  0.00     0.124 C 
HETATM    7 CL1  UNL     1      -6.206   4.525  14.154  1.00  0.00    -0.122 Cl
HETATM    8  N1  UNL     1      -2.859   2.513  12.056  1.00  0.00    -0.039 N 
ATOM      9  H11 UNL     1      -2.939   1.496  12.052  1.00  0.00     0.281 HD
ATOM     10  H12 UNL     1      -1.911   2.566  12.430  1.00  0.00     0.281 HD
HETATM   11  C8  UNL     1      -2.981   3.089  10.760  1.00  0.00     0.262 C 
HETATM   12  C9  UNL     1      -4.045   4.121  10.902  1.00  0.00     0.198 C 
HETATM   13  O3  UNL     1      -4.074   4.393  12.246  1.00  0.00    -0.351 OA
ENDROOT
BRANCH   1  14
HETATM   14  C1  UNL     1      -4.510   1.040  15.264  1.00  0.00     0.204 C 
BRANCH  14  15
HETATM   15  O1  UNL     1      -3.621   0.855  16.339  1.00  0.00    -0.398 OA
ATOM     16  H1  UNL     1      -3.680  -0.060  16.585  1.00  0.00     0.209 HD
ENDBRANCH  14  15
ENDBRANCH   1  14
BRANCH   1  17
HETATM   17  C3  UNL     1      -5.757   2.567  16.672  1.00  0.00     0.127 C 
HETATM   18 BR1  UNL     1      -7.132   1.258  16.860  1.00  0.00    -0.093 Br
ENDBRANCH   1  17
TORSDOF 3
ENDMDL
MODEL 2
REMARK VINA RESULT: -5.227657549      2.760      4.664
REMARK  3 active torsions:
REMARK  status: ('A' for Active; 'I' for Inactive)
REMARK    1  A    between atoms: O1_1  and  C1_3 
REMARK    2  A    between atoms: C1_3  and  C2_4 
REMARK    3  A    between atoms: C2_4  and  C3_5 
ROOT
HETATM    1  C2  UNL     1      -3.906   4.037  11.933  1.00  0.00     0.108 C 
HETATM    2  O2  UNL     1      -4.990   3.194  11.848  1.00  0.00    -0.371 OA
HETATM    3  C4  UNL     1      -5.057   2.215  12.772  1.00  0.00     0.237 C 
HETATM    4  C5  UNL     1      -4.671   2.538  14.161  1.00  0.00     0.249 C 
HETATM    5  C6  UNL     1      -3.742   3.682  14.335  1.00  0.00     0.094 C 
HETATM    6  C7  UNL     1      -3.994   4.743  13.265  1.00  0.00     0.124 C 
HETATM    7 CL1  UNL     1      -5.703   5.255  13.498  1.00  0.00    -0.122 Cl
HETATM    8  N1  UNL     1      -4.138   1.304  14.760  1.00  0.00    -0.039 N 
ATOM      9  H11 UNL     1      -3.122   1.235  14.702  1.00  0.00     0.281 HD
ATOM     10  H12 UNL     1      -4.355   0.468  14.218  1.00  0.00     0.281 HD
HETATM   11  C8  UNL     1      -4.626   1.246  16.096  1.00  0.00     0.262 C 
HETATM   12  C9  UNL     1      -5.486   2.453  16.238  1.00  0.00     0.198 C 
HETATM   13  O3  UNL     1      -5.813   2.789  14.950  1.00  0.00    -0.351 OA
ENDROOT
BRANCH   1  14
HETATM   14  C1  UNL     1      -2.579   3.335  11.821  1.00  0.00     0.204 C 
BRANCH  14  15
HETATM   15  O1  UNL     1      -2.504   2.827  10.511  1.00  0.00    -0.398 OA
ATOM     16  H1  UNL     1      -1.582   2.799  10.285  1.00  0.00     0.209 HD
ENDBRANCH  14  15
ENDBRANCH   1  14
BRANCH   1  17
HETATM   17  C3  UNL     1      -3.960   5.042  10.797  1.00  0.00     0.127 C 
HETATM   18 BR1  UNL     1      -3.070   6.680  11.206  1.00  0.00    -0.093 Br
ENDBRANCH   1  17
TORSDOF 3
ENDMDL
MODEL 3
REMARK VINA RESULT: -5.174573883      3.003      4.852
REMARK  3 active torsions:
REMARK  status: ('A' for Active; 'I' for Inactive)
REMARK    1  A    between atoms: O1_1  and  C1_3 
REMARK    2  A    between atoms: C1_3  and  C2_4 
REMARK    3  A    between atoms: C2_4  and  C3_5 
ROOT
HETATM    1  C2  UNL     1      -3.785   3.422  12.268  1.00  0.00     0.108 C 
HETATM    2  O2  UNL     1      -2.995   3.473  13.394  1.00  0.00    -0.371 OA
HETATM    3  C4  UNL     1      -3.572   3.979  14.503  1.00  0.00     0.237 C 
HETATM    4  C5  UNL     1      -4.977   3.618  14.785  1.00  0.00     0.249 C 
HETATM    5  C6  UNL     1      -5.800   3.221  13.617  1.00  0.00     0.094 C 
HETATM    6  C7  UNL     1      -4.941   2.502  12.577  1.00  0.00     0.124 C 
HETATM    7 CL1  UNL     1      -4.280   1.060  13.424  1.00  0.00    -0.122 Cl
HETATM    8  N1  UNL     1      -5.574   4.746  15.518  1.00  0.00    -0.039 N 
ATOM      9  H11 UNL     1      -6.069   5.401  14.913  1.00  0.00     0.281 HD
ATOM     10  H12 UNL     1      -4.881   5.402  15.879  1.00  0.00     0.281 HD
HETATM   11  C8  UNL     1      -6.400   4.190  16.535  1.00  0.00     0.262 C 
HETATM   12  C9  UNL     1      -6.232   2.717  16.398  1.00  0.00     0.198 C 
HETATM   13  O3  UNL     1      -5.042   2.573  15.732  1.00  0.00    -0.351 OA
ENDROOT
BRANCH   1  14
HETATM   14  C1  UNL     1      -4.309   4.764  11.832  1.00  0.00     0.204 C 
BRANCH  14  15
HETATM   15  O1  UNL     1      -4.773   4.602  10.513  1.00  0.00    -0.398 OA
ATOM     16  H1  UNL     1      -5.395   5.303  10.358  1.00  0.00     0.209 HD
ENDBRANCH  14  15
ENDBRANCH   1  14
BRANCH   1  17
HETATM   17  C3  UNL     1      -2.971   2.877  11.108  1.00  0.00     0.127 C 
HETATM   18 BR1  UNL     1      -1.108   3.259  11.258  1.00  0.00    -0.093 Br
ENDBRANCH   1  17
TORSDOF 3
ENDMDL
MODEL 4
REMARK VINA RESULT: -5.125861121      2.946      4.740
REMARK  3 active torsions:
REMARK  status: ('A' for Active; 'I' for Inactive)
REMARK    1  A    between atoms: O1_1  and  C1_3 
REMARK    2  A    between atoms: C1_3  and  C2_4 
REMARK    3  A    between atoms: C2_4  and  C3_5 
ROOT
HETATM    1  C2  UNL     1      -4.699   3.284  13.014  1.00  0.00     0.108 C 
HETATM    2  O2  UNL     1      -5.969   3.765  13.237  1.00  0.00    -0.371 OA
HETATM    3  C4  UNL     1      -6.658   3.185  14.241  1.00  0.00     0.237 C 
HETATM    4  C5  UNL     1      -5.931   2.847  15.481  1.00  0.00     0.249 C 
HETATM    5  C6  UNL     1      -4.468   2.644  15.351  1.00  0.00     0.094 C 
HETATM    6  C7  UNL     1      -3.896   3.553  14.264  1.00  0.00     0.124 C 
HETATM    7 CL1  UNL     1      -4.271   5.228  14.803  1.00  0.00    -0.122 Cl
HETATM    8  N1  UNL     1      -6.597   1.672  16.067  1.00  0.00    -0.039 N 
ATOM      9  H11 UNL     1      -6.160   0.790  15.803  1.00  0.00     0.281 HD
ATOM     10  H12 UNL     1      -7.515   1.488  15.662  1.00  0.00     0.281 HD
HETATM   11  C8  UNL     1      -6.639   1.877  17.475  1.00  0.00     0.262 C 
HETATM   12  C9  UNL     1      -6.020   3.215  17.683  1.00  0.00     0.198 C 
HETATM   13  O3  UNL     1      -6.140   3.836  16.466  1.00  0.00    -0.351 OA
ENDROOT
BRANCH   1  14
HETATM   14  C1  UNL     1      -4.653   1.814  12.692  1.00  0.00     0.204 C 
BRANCH  14  15
HETATM   15  O1  UNL     1      -5.402   1.639  11.514  1.00  0.00    -0.398 OA
ATOM     16  H1  UNL     1      -5.994   0.914  11.675  1.00  0.00     0.209 HD
ENDBRANCH  14  15
ENDBRANCH   1  14
BRANCH   1  17
HETATM   17  C3  UNL     1      -4.088   4.006  11.827  1.00  0.00     0.127 C 
HETATM   18 BR1  UNL     1      -2.266   3.532  11.521  1.00  0.00    -0.093 Br
ENDBRANCH   1  17
TORSDOF 3
ENDMDL
MODEL 5
REMARK VINA RESULT: -4.897572618      2.965      4.697
REMARK  3 active torsions:
REMARK  status: ('A' for Active; 'I' for Inactive)
REMARK    1  A    between atoms: O1_1  and  C1_3 
REMARK    2  A    between atoms: C1_3  and  C2_4 
REMARK    3  A    between atoms: C2_4  and  C3_5 
ROOT
HETATM    1  C2  UNL     1      -3.332   3.920  11.859  1.00  0.00     0.108 C 
HETATM    2  O2  UNL     1      -4.486   3.226  11.575  1.00  0.00    -0.371 OA
HETATM    3  C4  UNL     1      -4.838   2.270  12.458  1.00  0.00     0.237 C 
HETATM    4  C5  UNL     1      -4.657   2.548  13.897  1.00  0.00     0.249 C 
HETATM    5  C6  UNL     1      -3.632   3.561  14.247  1.00  0.00     0.094 C 
HETATM    6  C7  UNL     1      -3.555   4.639  13.168  1.00  0.00     0.124 C 
HETATM    7 CL1  UNL     1      -5.197   5.373  13.113  1.00  0.00    -0.122 Cl
HETATM    8  N1  UNL     1      -4.402   1.258  14.559  1.00  0.00    -0.039 N 
ATOM      9  H11 UNL     1      -3.409   1.056  14.674  1.00  0.00     0.281 HD
ATOM     10  H12 UNL     1      -4.630   0.455  13.973  1.00  0.00     0.281 HD
HETATM   11  C8  UNL     1      -5.116   1.273  15.790  1.00  0.00     0.262 C 
HETATM   12  C9  UNL     1      -5.823   2.583  15.802  1.00  0.00     0.198 C 
HETATM   13  O3  UNL     1      -5.876   2.951  14.483  1.00  0.00    -0.351 OA
ENDROOT
BRANCH   1  14
HETATM   14  C1  UNL     1      -2.109   3.049  11.965  1.00  0.00     0.204 C 
BRANCH  14  15
HETATM   15  O1  UNL     1      -1.072   3.870  12.446  1.00  0.00    -0.398 OA
ATOM     16  H1  UNL     1      -0.671   4.272  11.685  1.00  0.00     0.209 HD
ENDBRANCH  14  15
ENDBRANCH   1  14
BRANCH   1  17
HETATM   17  C3  UNL     1      -3.058   4.917  10.748  1.00  0.00     0.127 C 
HETATM   18 BR1  UNL     1      -2.471   4.091   9.131  1.00  0.00    -0.093 Br
ENDBRANCH   1  17
TORSDOF 3
ENDMDL
