MODEL 1
REMARK VINA RESULT: -6.991379595      0.000      0.000
REMARK  5 active torsions:
REMARK  status: ('A' for Active; 'I' for Inactive)
REMARK    1  A    between atoms: N1_1  and  C1_5 
REMARK    2  A    between atoms: N3_14  and  C7_15 
REMARK    3  A    between atoms: C7_15  and  C8_16 
REMARK    4  A    between atoms: C9_17  and  C10_18 
REMARK    5  A    between atoms: C10_18  and  N4_19 
ROOT
HETATM    1  C1  UNL     1      -2.763   5.616  11.617  1.00  0.00     0.179 C 
HETATM    2  C2  UNL     1      -2.887   6.020  13.085  1.00  0.00     0.070 C 
HETATM    3  C3  UNL     1      -1.481   6.329  13.503  1.00  0.00     0.235 C 
HETATM    4  N2  UNL     1      -0.635   5.510  12.691  1.00  0.00    -0.068 N 
ATOM      5  H21 UNL     1      -0.312   4.673  13.176  1.00  0.00     0.277 HD
ATOM      6  H22 UNL     1       0.279   5.931  12.524  1.00  0.00     0.277 HD
HETATM    7  C4  UNL     1      -1.336   5.213  11.484  1.00  0.00     0.225 C 
HETATM    8  C5  UNL     1      -1.175   3.730  11.219  1.00  0.00     0.066 C 
HETATM    9  C6  UNL     1      -2.097   3.414  10.102  1.00  0.00     0.275 C 
HETATM   10  N3  UNL     1      -3.499   3.544  10.415  1.00  0.00     0.101 N 
HETATM   11  C16 UNL     1      -3.798   4.628  11.301  1.00  0.00     0.314 C 
ENDROOT
BRANCH  10  12
HETATM   12  C7  UNL     1      -4.049   2.272  10.841  1.00  0.00     0.365 C 
BRANCH  12  13
HETATM   13  C8  UNL     1      -4.096   2.154  12.276  1.00  0.00    -0.074 C 
HETATM   14  C9  UNL     1      -4.091   2.074  13.500  1.00  0.00    -0.074 C 
BRANCH  14  15
HETATM   15  C10 UNL     1      -4.047   1.999  14.977  1.00  0.00     0.366 C 
BRANCH  15  16
HETATM   16  N4  UNL     1      -5.354   1.764  15.550  1.00  0.00     0.105 N 
HETATM   17  C11 UNL     1      -6.219   2.849  15.129  1.00  0.00     0.274 C 
HETATM   18  C12 UNL     1      -6.031   4.079  15.958  1.00  0.00     0.036 C 
HETATM   19  C13 UNL     1      -6.519   3.791  17.355  1.00  0.00     0.082 C 
HETATM   20  C14 UNL     1      -6.408   2.339  17.713  1.00  0.00     0.269 C 
HETATM   21  F1  UNL     1      -6.142   2.272  19.067  1.00  0.00    -0.204 F 
HETATM   22  F2  UNL     1      -7.622   1.749  17.507  1.00  0.00    -0.204 F 
HETATM   23  C15 UNL     1      -5.288   1.636  16.978  1.00  0.00     0.352 C 
ENDBRANCH  15  16
ENDBRANCH  14  15
ENDBRANCH  12  13
ENDBRANCH  10  12
BRANCH   1  24
HETATM   24  N1  UNL     1      -2.920   6.868  10.866  1.00  0.00    -0.067 N 
ATOM     25  H13 UNL     1      -2.551   6.829   9.916  1.00  0.00     0.275 HD
ATOM     26  H12 UNL     1      -3.884   7.078  10.608  1.00  0.00     0.275 HD
ATOM     27  H11 UNL     1      -2.483   7.581  11.449  1.00  0.00     0.275 HD
ENDBRANCH   1  24
TORSDOF 5
ENDMDL
MODEL 2
REMARK VINA RESULT: -6.837430778      1.841      2.531
REMARK  5 active torsions:
REMARK  status: ('A' for Active; 'I' for Inactive)
REMARK    1  A    between atoms: N1_1  and  C1_5 
REMARK    2  A    between atoms: N3_14  and  C7_15 
REMARK    3  A    between atoms: C7_15  and  C8_16 
REMARK    4  A    between atoms: C9_17  and  C10_18 
REMARK    5  A    between atoms: C10_18  and  N4_19 
ROOT
HETATM    1  C1  UNL     1      -0.174   4.768  10.177  1.00  0.00     0.179 C 
HETATM    2  C2  UNL     1       1.023   3.918  10.599  1.00  0.00     0.070 C 
HETATM    3  C3  UNL     1       1.863   3.822   9.360  1.00  0.00     0.235 C 
HETATM    4  N2  UNL     1       0.958   3.912   8.257  1.00  0.00    -0.068 N 
ATOM      5  H21 UNL     1       0.733   3.002   7.855  1.00  0.00     0.277 HD
ATOM      6  H22 UNL     1       1.385   4.325   7.429  1.00  0.00     0.277 HD
HETATM    7  C4  UNL     1      -0.200   4.624   8.695  1.00  0.00     0.225 C 
HETATM    8  C5  UNL     1      -1.413   3.858   8.209  1.00  0.00     0.066 C 
HETATM    9  C6  UNL     1      -2.582   4.486   8.870  1.00  0.00     0.275 C 
HETATM   10  N3  UNL     1      -2.636   4.316  10.302  1.00  0.00     0.101 N 
HETATM   11  C16 UNL     1      -1.354   4.349  10.938  1.00  0.00     0.314 C 
ENDROOT
BRANCH  10  12
HETATM   12  C7  UNL     1      -3.432   3.156  10.651  1.00  0.00     0.365 C 
BRANCH  12  13
HETATM   13  C8  UNL     1      -3.639   3.048  12.072  1.00  0.00    -0.074 C 
HETATM   14  C9  UNL     1      -3.768   2.970  13.290  1.00  0.00    -0.074 C 
BRANCH  14  15
HETATM   15  C10 UNL     1      -3.883   2.892  14.763  1.00  0.00     0.366 C 
BRANCH  15  16
HETATM   16  N4  UNL     1      -5.196   2.453  15.184  1.00  0.00     0.105 N 
HETATM   17  C11 UNL     1      -6.127   3.531  14.909  1.00  0.00     0.274 C 
HETATM   18  C12 UNL     1      -6.097   4.590  15.964  1.00  0.00     0.036 C 
HETATM   19  C13 UNL     1      -6.637   4.004  17.243  1.00  0.00     0.082 C 
HETATM   20  C14 UNL     1      -6.419   2.524  17.333  1.00  0.00     0.269 C 
HETATM   21  F1  UNL     1      -6.227   2.220  18.667  1.00  0.00    -0.204 F 
HETATM   22  F2  UNL     1      -7.562   1.894  16.932  1.00  0.00    -0.204 F 
HETATM   23  C15 UNL     1      -5.201   2.060  16.565  1.00  0.00     0.352 C 
ENDBRANCH  15  16
ENDBRANCH  14  15
ENDBRANCH  12  13
ENDBRANCH  10  12
BRANCH   1  24
HETATM   24  N1  UNL     1       0.227   6.152  10.458  1.00  0.00    -0.067 N 
ATOM     25  H13 UNL     1       0.773   6.259  11.313  1.00  0.00     0.275 HD
ATOM     26  H12 UNL     1       0.935   6.516   9.821  1.00  0.00     0.275 HD
ATOM     27  H11 UNL     1      -0.643   6.683  10.455  1.00  0.00     0.275 HD
ENDBRANCH   1  24
TORSDOF 5
ENDMDL
MODEL 3
REMARK VINA RESULT: -6.806462437      1.592      2.560
REMARK  5 active torsions:
REMARK  status: ('A' for Active; 'I' for Inactive)
REMARK    1  A    between atoms: N1_1  and  C1_5 
REMARK    2  A    between atoms: N3_14  and  C7_15 
REMARK    3  A    between atoms: C7_15  and  C8_16 
REMARK    4  A    between atoms: C9_17  and  C10_18 
REMARK    5  A    between atoms: C10_18  and  N4_19 
ROOT
HETATM    1  C1  UNL     1      -1.127   4.257  11.541  1.00  0.00     0.179 C 
HETATM    2  C2  UNL     1       0.014   3.301  11.194  1.00  0.00     0.070 C 
HETATM    3  C3  UNL     1       0.600   3.868   9.935  1.00  0.00     0.235 C 
HETATM    4  N2  UNL     1      -0.470   4.536   9.263  1.00  0.00    -0.068 N 
ATOM      5  H21 UNL     1      -0.872   3.979   8.509  1.00  0.00     0.277 HD
ATOM      6  H22 UNL     1      -0.150   5.321   8.696  1.00  0.00     0.277 HD
HETATM    7  C4  UNL     1      -1.435   4.920  10.243  1.00  0.00     0.225 C 
HETATM    8  C5  UNL     1      -2.800   4.538   9.708  1.00  0.00     0.066 C 
HETATM    9  C6  UNL     1      -3.746   4.731  10.833  1.00  0.00     0.275 C 
HETATM   10  N3  UNL     1      -3.563   3.830  11.944  1.00  0.00     0.101 N 
HETATM   11  C16 UNL     1      -2.194   3.510  12.212  1.00  0.00     0.314 C 
ENDROOT
BRANCH  10  12
HETATM   12  C7  UNL     1      -4.420   2.669  11.808  1.00  0.00     0.365 C 
BRANCH  12  13
HETATM   13  C8  UNL     1      -4.507   1.914  13.032  1.00  0.00    -0.074 C 
HETATM   14  C9  UNL     1      -4.536   1.252  14.065  1.00  0.00    -0.074 C 
BRANCH  14  15
HETATM   15  C10 UNL     1      -4.528   0.443  15.304  1.00  0.00     0.366 C 
BRANCH  15  16
HETATM   16  N4  UNL     1      -4.751   1.252  16.483  1.00  0.00     0.105 N 
HETATM   17  C11 UNL     1      -5.706   0.552  17.321  1.00  0.00     0.274 C 
HETATM   18  C12 UNL     1      -7.116   0.753  16.865  1.00  0.00     0.036 C 
HETATM   19  C13 UNL     1      -7.484   2.199  17.081  1.00  0.00     0.082 C 
HETATM   20  C14 UNL     1      -6.294   3.108  17.022  1.00  0.00     0.269 C 
HETATM   21  F1  UNL     1      -6.725   4.310  16.493  1.00  0.00    -0.204 F 
HETATM   22  F2  UNL     1      -5.874   3.353  18.298  1.00  0.00    -0.204 F 
HETATM   23  C15 UNL     1      -5.188   2.575  16.139  1.00  0.00     0.352 C 
ENDBRANCH  15  16
ENDBRANCH  14  15
ENDBRANCH  12  13
ENDBRANCH  10  12
BRANCH   1  24
HETATM   24  N1  UNL     1      -0.516   5.279  12.400  1.00  0.00    -0.067 N 
ATOM     25  H13 UNL     1      -0.941   5.349  13.324  1.00  0.00     0.275 HD
ATOM     26  H12 UNL     1       0.423   5.043  12.721  1.00  0.00     0.275 HD
ATOM     27  H11 UNL     1      -0.563   6.141  11.858  1.00  0.00     0.275 HD
ENDBRANCH   1  24
TORSDOF 5
ENDMDL
MODEL 4
REMARK VINA RESULT: -6.786078002      1.971      3.090
REMARK  5 active torsions:
REMARK  status: ('A' for Active; 'I' for Inactive)
REMARK    1  A    between atoms: N1_1  and  C1_5 
REMARK    2  A    between atoms: N3_14  and  C7_15 
REMARK    3  A    between atoms: C7_15  and  C8_16 
REMARK    4  A    between atoms: C9_17  and  C10_18 
REMARK    5  A    between atoms: C10_18  and  N4_19 
ROOT
HETATM    1  C1  UNL     1      -4.474   6.088  10.870  1.00  0.00     0.179 C 
HETATM    2  C2  UNL     1      -5.439   6.434   9.736  1.00  0.00     0.070 C 
HETATM    3  C3  UNL     1      -6.327   7.494  10.318  1.00  0.00     0.235 C 
HETATM    4  N2  UNL     1      -6.384   7.239  11.723  1.00  0.00    -0.068 N 
ATOM      5  H21 UNL     1      -7.234   6.749  12.002  1.00  0.00     0.277 HD
ATOM      6  H22 UNL     1      -6.529   8.086  12.273  1.00  0.00     0.277 HD
HETATM    7  C4  UNL     1      -5.196   6.538  12.092  1.00  0.00     0.225 C 
HETATM    8  C5  UNL     1      -5.609   5.381  12.979  1.00  0.00     0.066 C 
HETATM    9  C6  UNL     1      -4.396   4.547  13.151  1.00  0.00     0.275 C 
HETATM   10  N3  UNL     1      -3.931   3.894  11.952  1.00  0.00     0.101 N 
HETATM   11  C16 UNL     1      -4.095   4.677  10.764  1.00  0.00     0.314 C 
ENDROOT
BRANCH  10  12
HETATM   12  C7  UNL     1      -4.479   2.556  11.851  1.00  0.00     0.365 C 
BRANCH  12  13
HETATM   13  C8  UNL     1      -4.471   1.871  13.118  1.00  0.00    -0.074 C 
HETATM   14  C9  UNL     1      -4.476   1.244  14.174  1.00  0.00    -0.074 C 
BRANCH  14  15
HETATM   15  C10 UNL     1      -4.488   0.452  15.423  1.00  0.00     0.366 C 
BRANCH  15  16
HETATM   16  N4  UNL     1      -4.759   1.271  16.584  1.00  0.00     0.105 N 
HETATM   17  C11 UNL     1      -5.757   0.585  17.382  1.00  0.00     0.274 C 
HETATM   18  C12 UNL     1      -7.142   0.793  16.859  1.00  0.00     0.036 C 
HETATM   19  C13 UNL     1      -7.510   2.243  17.047  1.00  0.00     0.082 C 
HETATM   20  C14 UNL     1      -6.312   3.143  17.037  1.00  0.00     0.269 C 
HETATM   21  F1  UNL     1      -6.708   4.344  16.480  1.00  0.00    -0.204 F 
HETATM   22  F2  UNL     1      -5.950   3.394  18.329  1.00  0.00    -0.204 F 
HETATM   23  C15 UNL     1      -5.170   2.595  16.211  1.00  0.00     0.352 C 
ENDBRANCH  15  16
ENDBRANCH  14  15
ENDBRANCH  12  13
ENDBRANCH  10  12
BRANCH   1  24
HETATM   24  N1  UNL     1      -3.338   7.001  10.691  1.00  0.00    -0.067 N 
ATOM     25  H13 UNL     1      -2.469   6.534  10.435  1.00  0.00     0.275 HD
ATOM     26  H12 UNL     1      -3.405   7.588   9.860  1.00  0.00     0.275 HD
ATOM     27  H11 UNL     1      -3.283   7.526  11.564  1.00  0.00     0.275 HD
ENDBRANCH   1  24
TORSDOF 5
ENDMDL
MODEL 5
REMARK VINA RESULT: -6.769358382      1.172      1.337
REMARK  5 active torsions:
REMARK  status: ('A' for Active; 'I' for Inactive)
REMARK    1  A    between atoms: N1_1  and  C1_5 
REMARK    2  A    between atoms: N3_14  and  C7_15 
REMARK    3  A    between atoms: C7_15  and  C8_16 
REMARK    4  A    between atoms: C9_17  and  C10_18 
REMARK    5  A    between atoms: C10_18  and  N4_19 
ROOT
HETATM    1  C1  UNL     1      -2.795   5.984  11.123  1.00  0.00     0.179 C 
HETATM    2  C2  UNL     1      -3.498   6.790  12.215  1.00  0.00     0.070 C 
HETATM    3  C3  UNL     1      -2.380   7.470  12.948  1.00  0.00     0.235 C 
HETATM    4  N2  UNL     1      -1.242   6.615  12.823  1.00  0.00    -0.068 N 
ATOM      5  H21 UNL     1      -1.083   6.043  13.653  1.00  0.00     0.277 HD
ATOM      6  H22 UNL     1      -0.360   7.126  12.839  1.00  0.00     0.277 HD
HETATM    7  C4  UNL     1      -1.406   5.834  11.639  1.00  0.00     0.225 C 
HETATM    8  C5  UNL     1      -1.071   4.399  11.991  1.00  0.00     0.066 C 
HETATM    9  C6  UNL     1      -1.472   3.588  10.817  1.00  0.00     0.275 C 
HETATM   10  N3  UNL     1      -2.892   3.543  10.565  1.00  0.00     0.101 N 
HETATM   11  C16 UNL     1      -3.570   4.772  10.847  1.00  0.00     0.314 C 
ENDROOT
BRANCH  10  12
HETATM   12  C7  UNL     1      -3.489   2.385  11.200  1.00  0.00     0.365 C 
BRANCH  12  13
HETATM   13  C8  UNL     1      -3.985   2.686  12.518  1.00  0.00    -0.074 C 
HETATM   14  C9  UNL     1      -4.377   2.982  13.643  1.00  0.00    -0.074 C 
BRANCH  14  15
HETATM   15  C10 UNL     1      -4.827   3.376  14.996  1.00  0.00     0.366 C 
BRANCH  15  16
HETATM   16  N4  UNL     1      -5.997   2.636  15.418  1.00  0.00     0.105 N 
HETATM   17  C11 UNL     1      -6.697   3.444  16.398  1.00  0.00     0.274 C 
HETATM   18  C12 UNL     1      -6.088   3.338  17.759  1.00  0.00     0.036 C 
HETATM   19  C13 UNL     1      -6.304   1.937  18.271  1.00  0.00     0.082 C 
HETATM   20  C14 UNL     1      -6.412   0.934  17.163  1.00  0.00     0.269 C 
HETATM   21  F1  UNL     1      -5.874  -0.251  17.631  1.00  0.00    -0.204 F 
HETATM   22  F2  UNL     1      -7.734   0.708  16.911  1.00  0.00    -0.204 F 
HETATM   23  C15 UNL     1      -5.646   1.340  15.924  1.00  0.00     0.352 C 
ENDBRANCH  15  16
ENDBRANCH  14  15
ENDBRANCH  12  13
ENDBRANCH  10  12
BRANCH   1  24
HETATM   24  N1  UNL     1      -2.721   6.891   9.971  1.00  0.00    -0.067 N 
ATOM     25  H13 UNL     1      -2.598   7.871  10.224  1.00  0.00     0.275 HD
ATOM     26  H12 UNL     1      -1.862   6.801   9.428  1.00  0.00     0.275 HD
ATOM     27  H11 UNL     1      -3.569   6.706   9.436  1.00  0.00     0.275 HD
ENDBRANCH   1  24
TORSDOF 5
ENDMDL
