MODEL 1
REMARK VINA RESULT: -6.098373458      0.000      0.000
REMARK  4 active torsions:
REMARK  status: ('A' for Active; 'I' for Inactive)
REMARK    1  A    between atoms: O1_1  and  C1_3 
REMARK    2  A    between atoms: C2_7  and  C3_8 
REMARK    3  A    between atoms: C4_10  and  N2_11 
REMARK    4  A    between atoms: C9_17  and  O3_18 
ROOT
HETATM    1  C1  UNL     1      -4.674   2.270  11.260  1.00  0.00     0.350 C 
HETATM    2  N1  UNL     1      -4.320   3.684  11.219  1.00  0.00    -0.039 N 
ATOM      3  H11 UNL     1      -4.844   4.240  10.544  1.00  0.00     0.280 HD
ATOM      4  H12 UNL     1      -3.403   3.887  10.822  1.00  0.00     0.280 HD
HETATM    5  C2  UNL     1      -4.491   4.089  12.618  1.00  0.00     0.234 C 
HETATM    6  C4  UNL     1      -3.956   2.951  13.409  1.00  0.00     0.287 C 
HETATM    7  C9  UNL     1      -3.887   1.800  12.466  1.00  0.00     0.209 C 
ENDROOT
BRANCH   6   8
HETATM    8  N2  UNL     1      -4.610   2.716  14.644  1.00  0.00     0.102 N 
HETATM    9  C5  UNL     1      -5.923   3.241  14.801  1.00  0.00     0.299 C 
HETATM   10  C6  UNL     1      -6.077   3.473  16.313  1.00  0.00     0.198 C 
HETATM   11  O2  UNL     1      -5.481   2.429  16.982  1.00  0.00    -0.388 OA
HETATM   12  C7  UNL     1      -5.464   1.238  16.281  1.00  0.00     0.198 C 
HETATM   13  C8  UNL     1      -4.622   1.331  15.019  1.00  0.00     0.299 C 
ENDBRANCH   6   8
BRANCH   5  14
HETATM   14  C3  UNL     1      -3.723   5.381  12.839  1.00  0.00     0.120 C 
HETATM   15 BR1  UNL     1      -1.883   4.957  13.266  1.00  0.00    -0.094 Br
ENDBRANCH   5  14
BRANCH   7  16
HETATM   16  O3  UNL     1      -2.573   1.572  11.994  1.00  0.00    -0.389 OA
ATOM     17  H3  UNL     1      -2.000   1.988  12.627  1.00  0.00     0.210 HD
ENDBRANCH   7  16
BRANCH   1  18
HETATM   18  O1  UNL     1      -4.301   1.603  10.104  1.00  0.00    -0.368 OA
ATOM     19  H1  UNL     1      -5.016   1.535   9.482  1.00  0.00     0.212 HD
ENDBRANCH   1  18
TORSDOF 4
ENDMDL
MODEL 2
REMARK VINA RESULT: -5.875628651      0.990      1.532
REMARK  4 active torsions:
REMARK  status: ('A' for Active; 'I' for Inactive)
REMARK    1  A    between atoms: O1_1  and  C1_3 
REMARK    2  A    between atoms: C2_7  and  C3_8 
REMARK    3  A    between atoms: C4_10  and  N2_11 
REMARK    4  A    between atoms: C9_17  and  O3_18 
ROOT
HETATM    1  C1  UNL     1      -4.740   2.107  11.357  1.00  0.00     0.350 C 
HETATM    2  N1  UNL     1      -3.912   3.285  11.585  1.00  0.00    -0.039 N 
ATOM      3  H11 UNL     1      -4.117   4.079  10.979  1.00  0.00     0.280 HD
ATOM      4  H12 UNL     1      -2.938   3.190  11.296  1.00  0.00     0.280 HD
HETATM    5  C2  UNL     1      -4.109   3.532  13.016  1.00  0.00     0.234 C 
HETATM    6  C4  UNL     1      -4.113   2.183  13.636  1.00  0.00     0.287 C 
HETATM    7  C9  UNL     1      -4.329   1.223  12.517  1.00  0.00     0.209 C 
ENDROOT
BRANCH   6   8
HETATM    8  N2  UNL     1      -4.961   2.039  14.763  1.00  0.00     0.102 N 
HETATM    9  C5  UNL     1      -4.361   1.625  15.985  1.00  0.00     0.299 C 
HETATM   10  C6  UNL     1      -5.483   0.901  16.748  1.00  0.00     0.198 C 
HETATM   11  O2  UNL     1      -6.661   1.584  16.554  1.00  0.00    -0.388 OA
HETATM   12  C7  UNL     1      -6.504   2.935  16.315  1.00  0.00     0.198 C 
HETATM   13  C8  UNL     1      -5.762   3.203  15.015  1.00  0.00     0.299 C 
ENDBRANCH   6   8
BRANCH   5  14
HETATM   14  C3  UNL     1      -2.974   4.412  13.511  1.00  0.00     0.120 C 
HETATM   15 BR1  UNL     1      -3.511   6.268  13.385  1.00  0.00    -0.094 Br
ENDBRANCH   5  14
BRANCH   7  16
HETATM   16  O3  UNL     1      -3.129   0.597  12.108  1.00  0.00    -0.389 OA
ATOM     17  H3  UNL     1      -2.474   0.864  12.743  1.00  0.00     0.210 HD
ENDBRANCH   7  16
BRANCH   1  18
HETATM   18  O1  UNL     1      -4.477   1.512  10.133  1.00  0.00    -0.368 OA
ATOM     19  H1  UNL     1      -5.152   1.698   9.491  1.00  0.00     0.212 HD
ENDBRANCH   1  18
TORSDOF 4
ENDMDL
MODEL 3
REMARK VINA RESULT: -5.763999682      1.083      1.572
REMARK  4 active torsions:
REMARK  status: ('A' for Active; 'I' for Inactive)
REMARK    1  A    between atoms: O1_1  and  C1_3 
REMARK    2  A    between atoms: C2_7  and  C3_8 
REMARK    3  A    between atoms: C4_10  and  N2_11 
REMARK    4  A    between atoms: C9_17  and  O3_18 
ROOT
HETATM    1  C1  UNL     1      -4.931   1.691  11.130  1.00  0.00     0.350 C 
HETATM    2  N1  UNL     1      -4.016   2.826  11.113  1.00  0.00    -0.039 N 
ATOM      3  H11 UNL     1      -4.210   3.525  10.396  1.00  0.00     0.280 HD
ATOM      4  H12 UNL     1      -3.072   2.613  10.790  1.00  0.00     0.280 HD
HETATM    5  C2  UNL     1      -4.101   3.316  12.492  1.00  0.00     0.234 C 
HETATM    6  C4  UNL     1      -4.149   2.089  13.327  1.00  0.00     0.287 C 
HETATM    7  C9  UNL     1      -4.501   0.979  12.396  1.00  0.00     0.209 C 
ENDROOT
BRANCH   6   8
HETATM    8  N2  UNL     1      -4.927   2.193  14.507  1.00  0.00     0.102 N 
HETATM    9  C5  UNL     1      -4.261   2.003  15.749  1.00  0.00     0.299 C 
HETATM   10  C6  UNL     1      -5.348   1.476  16.702  1.00  0.00     0.198 C 
HETATM   11  O2  UNL     1      -6.521   2.148  16.448  1.00  0.00    -0.388 OA
HETATM   12  C7  UNL     1      -6.350   3.422  15.941  1.00  0.00     0.198 C 
HETATM   13  C8  UNL     1      -5.686   3.409  14.574  1.00  0.00     0.299 C 
ENDBRANCH   6   8
BRANCH   5  14
HETATM   14  C3  UNL     1      -2.880   4.177  12.769  1.00  0.00     0.120 C 
HETATM   15 BR1  UNL     1      -1.439   3.625  11.600  1.00  0.00    -0.094 Br
ENDBRANCH   5  14
BRANCH   7  16
HETATM   16  O3  UNL     1      -3.373   0.207  12.032  1.00  0.00    -0.389 OA
ATOM     17  H3  UNL     1      -2.717   0.387  12.695  1.00  0.00     0.210 HD
ENDBRANCH   7  16
BRANCH   1  18
HETATM   18  O1  UNL     1      -4.790   0.887  10.010  1.00  0.00    -0.368 OA
ATOM     19  H1  UNL     1      -5.043  -0.013  10.179  1.00  0.00     0.212 HD
ENDBRANCH   1  18
TORSDOF 4
ENDMDL
MODEL 4
REMARK VINA RESULT: -5.553130907      2.380      3.268
REMARK  4 active torsions:
REMARK  status: ('A' for Active; 'I' for Inactive)
REMARK    1  A    between atoms: O1_1  and  C1_3 
REMARK    2  A    between atoms: C2_7  and  C3_8 
REMARK    3  A    between atoms: C4_10  and  N2_11 
REMARK    4  A    between atoms: C9_17  and  O3_18 
ROOT
HETATM    1  C1  UNL     1      -3.516   4.360  13.843  1.00  0.00     0.350 C 
HETATM    2  N1  UNL     1      -3.380   3.173  13.007  1.00  0.00    -0.039 N 
ATOM      3  H11 UNL     1      -2.421   2.925  12.766  1.00  0.00     0.280 HD
ATOM      4  H12 UNL     1      -3.697   3.286  12.044  1.00  0.00     0.280 HD
HETATM    5  C2  UNL     1      -4.104   2.161  13.782  1.00  0.00     0.234 C 
HETATM    6  C4  UNL     1      -5.294   2.872  14.314  1.00  0.00     0.287 C 
HETATM    7  C9  UNL     1      -4.995   4.324  14.172  1.00  0.00     0.209 C 
ENDROOT
BRANCH   6   8
HETATM    8  N2  UNL     1      -5.734   2.440  15.590  1.00  0.00     0.102 N 
HETATM    9  C5  UNL     1      -4.885   1.553  16.309  1.00  0.00     0.299 C 
HETATM   10  C6  UNL     1      -5.834   0.742  17.208  1.00  0.00     0.198 C 
HETATM   11  O2  UNL     1      -6.809   1.583  17.692  1.00  0.00    -0.388 OA
HETATM   12  C7  UNL     1      -6.418   2.904  17.805  1.00  0.00     0.198 C 
HETATM   13  C8  UNL     1      -6.103   3.524  16.454  1.00  0.00     0.299 C 
ENDBRANCH   6   8
BRANCH   5  14
HETATM   14  C3  UNL     1      -4.461   1.013  12.852  1.00  0.00     0.120 C 
HETATM   15 BR1  UNL     1      -4.602   1.687  11.042  1.00  0.00    -0.094 Br
ENDBRANCH   5  14
BRANCH   7  16
HETATM   16  O3  UNL     1      -5.645   4.900  13.056  1.00  0.00    -0.389 OA
ATOM     17  H3  UNL     1      -6.574   4.771  13.208  1.00  0.00     0.210 HD
ENDBRANCH   7  16
BRANCH   1  18
HETATM   18  O1  UNL     1      -3.162   5.518  13.170  1.00  0.00    -0.368 OA
ATOM     19  H1  UNL     1      -3.921   6.002  12.865  1.00  0.00     0.212 HD
ENDBRANCH   1  18
TORSDOF 4
ENDMDL
MODEL 5
REMARK VINA RESULT: -5.455911265      2.476      4.205
REMARK  4 active torsions:
REMARK  status: ('A' for Active; 'I' for Inactive)
REMARK    1  A    between atoms: O1_1  and  C1_3 
REMARK    2  A    between atoms: C2_7  and  C3_8 
REMARK    3  A    between atoms: C4_10  and  N2_11 
REMARK    4  A    between atoms: C9_17  and  O3_18 
ROOT
HETATM    1  C1  UNL     1      -3.789   1.360  12.400  1.00  0.00     0.350 C 
HETATM    2  N1  UNL     1      -4.385   1.327  13.730  1.00  0.00    -0.039 N 
ATOM      3  H11 UNL     1      -3.914   0.716  14.397  1.00  0.00     0.280 HD
ATOM      4  H12 UNL     1      -5.288   0.855  13.785  1.00  0.00     0.280 HD
HETATM    5  C2  UNL     1      -4.406   2.745  14.098  1.00  0.00     0.234 C 
HETATM    6  C4  UNL     1      -4.793   3.454  12.851  1.00  0.00     0.287 C 
HETATM    7  C9  UNL     1      -4.577   2.477  11.747  1.00  0.00     0.209 C 
ENDROOT
BRANCH   6   8
HETATM    8  N2  UNL     1      -4.212   4.735  12.681  1.00  0.00     0.102 N 
HETATM    9  C5  UNL     1      -2.960   4.977  13.313  1.00  0.00     0.299 C 
HETATM   10  C6  UNL     1      -2.935   6.493  13.570  1.00  0.00     0.198 C 
HETATM   11  O2  UNL     1      -3.491   7.133  12.488  1.00  0.00    -0.388 OA
HETATM   12  C7  UNL     1      -3.361   6.450  11.293  1.00  0.00     0.198 C 
HETATM   13  C8  UNL     1      -4.116   5.131  11.305  1.00  0.00     0.299 C 
ENDBRANCH   6   8
BRANCH   5  14
HETATM   14  C3  UNL     1      -5.408   2.932  15.225  1.00  0.00     0.120 C 
HETATM   15 BR1  UNL     1      -5.212   1.480  16.491  1.00  0.00    -0.094 Br
ENDBRANCH   5  14
BRANCH   7  16
HETATM   16  O3  UNL     1      -5.785   1.884  11.313  1.00  0.00    -0.389 OA
ATOM     17  H3  UNL     1      -6.368   1.915  12.063  1.00  0.00     0.210 HD
ENDBRANCH   7  16
BRANCH   1  18
HETATM   18  O1  UNL     1      -3.940   0.157  11.728  1.00  0.00    -0.368 OA
ATOM     19  H1  UNL     1      -3.105  -0.230  11.492  1.00  0.00     0.212 HD
ENDBRANCH   1  18
TORSDOF 4
ENDMDL
