MODEL 1
REMARK VINA RESULT: -7.009693101      0.000      0.000
REMARK  4 active torsions:
REMARK  status: ('A' for Active; 'I' for Inactive)
REMARK    1  A    between atoms: C1_2  and  C2_4 
REMARK    2  A    between atoms: C2_4  and  O3_5 
REMARK    3  A    between atoms: C2_4  and  C3_7 
REMARK    4  A    between atoms: C5_11  and  O5_12 
ROOT
HETATM    1  C3  UNL     1      -4.925   2.868  15.485  1.00  0.00     0.249 C 
HETATM    2  F1  UNL     1      -4.303   3.854  16.175  1.00  0.00    -0.208 F 
HETATM    3  O4  UNL     1      -6.328   3.015  15.519  1.00  0.00    -0.340 OA
HETATM    4  C4  UNL     1      -6.354   3.573  14.257  1.00  0.00     0.166 C 
HETATM    5  C5  UNL     1      -6.158   5.059  14.295  1.00  0.00     0.163 C 
HETATM    6  C6  UNL     1      -4.778   5.363  13.800  1.00  0.00     0.108 C 
HETATM    7 BR1  UNL     1      -4.875   6.611  12.297  1.00  0.00    -0.087 Br
HETATM    8  C7  UNL     1      -4.205   4.041  13.333  1.00  0.00     0.111 C 
HETATM    9 CL1  UNL     1      -2.468   3.922  13.548  1.00  0.00    -0.123 Cl
HETATM   10  C8  UNL     1      -4.992   2.968  14.008  1.00  0.00     0.108 C 
ENDROOT
BRANCH   1  11
HETATM   11  C2  UNL     1      -4.600   1.447  15.914  1.00  0.00     0.286 C 
BRANCH  11  12
HETATM   12  C1  UNL     1      -5.575   1.058  16.952  1.00  0.00     0.208 C 
HETATM   13  O1  UNL     1      -5.400   1.481  18.120  1.00  0.00    -0.646 OA
HETATM   14  O2  UNL     1      -6.671   0.253  16.705  1.00  0.00    -0.646 OA
ENDBRANCH  11  12
BRANCH  11  15
HETATM   15  O3  UNL     1      -3.295   1.361  16.334  1.00  0.00    -0.380 OA
ATOM     16  H3  UNL     1      -3.196   1.458  17.274  1.00  0.00     0.210 HD
ENDBRANCH  11  15
ENDBRANCH   1  11
BRANCH   5  17
HETATM   17  O5  UNL     1      -7.158   5.635  13.493  1.00  0.00    -0.392 OA
ATOM     18  H5  UNL     1      -7.653   6.232  14.041  1.00  0.00     0.210 HD
ENDBRANCH   5  17
TORSDOF 4
ENDMDL
MODEL 2
REMARK VINA RESULT: -7.004710315      2.261      2.658
REMARK  4 active torsions:
REMARK  status: ('A' for Active; 'I' for Inactive)
REMARK    1  A    between atoms: C1_2  and  C2_4 
REMARK    2  A    between atoms: C2_4  and  O3_5 
REMARK    3  A    between atoms: C2_4  and  C3_7 
REMARK    4  A    between atoms: C5_11  and  O5_12 
ROOT
HETATM    1  C3  UNL     1      -5.430   2.291  15.617  1.00  0.00     0.249 C 
HETATM    2  F1  UNL     1      -6.467   2.913  15.007  1.00  0.00    -0.208 F 
HETATM    3  O4  UNL     1      -5.096   1.082  14.970  1.00  0.00    -0.340 OA
HETATM    4  C4  UNL     1      -4.034   1.664  14.311  1.00  0.00     0.166 C 
HETATM    5  C5  UNL     1      -4.451   2.289  13.013  1.00  0.00     0.163 C 
HETATM    6  C6  UNL     1      -4.447   3.777  13.185  1.00  0.00     0.108 C 
HETATM    7 BR1  UNL     1      -3.291   4.595  11.837  1.00  0.00    -0.087 Br
HETATM    8  C7  UNL     1      -3.883   4.032  14.569  1.00  0.00     0.111 C 
HETATM    9 CL1  UNL     1      -4.551   5.460  15.338  1.00  0.00    -0.123 Cl
HETATM   10  C8  UNL     1      -4.054   2.768  15.343  1.00  0.00     0.108 C 
ENDROOT
BRANCH   1  11
HETATM   11  C2  UNL     1      -5.611   1.988  17.095  1.00  0.00     0.286 C 
BRANCH  11  12
HETATM   12  C1  UNL     1      -6.396   0.743  17.205  1.00  0.00     0.208 C 
HETATM   13  O1  UNL     1      -7.641   0.810  17.058  1.00  0.00    -0.646 OA
HETATM   14  O2  UNL     1      -5.833  -0.493  17.461  1.00  0.00    -0.646 OA
ENDBRANCH  11  12
BRANCH  11  15
HETATM   15  O3  UNL     1      -6.192   3.056  17.734  1.00  0.00    -0.380 OA
ATOM     16  H3  UNL     1      -7.138   2.990  17.791  1.00  0.00     0.210 HD
ENDBRANCH  11  15
ENDBRANCH   1  11
BRANCH   5  17
HETATM   17  O5  UNL     1      -3.545   1.858  12.029  1.00  0.00    -0.392 OA
ATOM     18  H5  UNL     1      -3.252   2.627  11.556  1.00  0.00     0.210 HD
ENDBRANCH   5  17
TORSDOF 4
ENDMDL
MODEL 3
REMARK VINA RESULT: -6.949764293      3.130      4.972
REMARK  4 active torsions:
REMARK  status: ('A' for Active; 'I' for Inactive)
REMARK    1  A    between atoms: C1_2  and  C2_4 
REMARK    2  A    between atoms: C2_4  and  O3_5 
REMARK    3  A    between atoms: C2_4  and  C3_7 
REMARK    4  A    between atoms: C5_11  and  O5_12 
ROOT
HETATM    1  C3  UNL     1      -3.781   3.465  14.084  1.00  0.00     0.249 C 
HETATM    2  F1  UNL     1      -3.187   3.700  15.278  1.00  0.00    -0.208 F 
HETATM    3  O4  UNL     1      -3.375   2.231  13.534  1.00  0.00    -0.340 OA
HETATM    4  C4  UNL     1      -4.531   1.604  13.949  1.00  0.00     0.166 C 
HETATM    5  C5  UNL     1      -4.410   1.067  15.345  1.00  0.00     0.163 C 
HETATM    6  C6  UNL     1      -5.214   1.943  16.256  1.00  0.00     0.108 C 
HETATM    7 BR1  UNL     1      -6.521   0.863  17.229  1.00  0.00    -0.087 Br
HETATM    8  C7  UNL     1      -5.930   2.930  15.356  1.00  0.00     0.111 C 
HETATM    9 CL1  UNL     1      -6.179   4.497  16.103  1.00  0.00    -0.123 Cl
HETATM   10  C8  UNL     1      -5.176   2.965  14.069  1.00  0.00     0.108 C 
ENDROOT
BRANCH   1  11
HETATM   11  C2  UNL     1      -3.581   4.532  13.020  1.00  0.00     0.286 C 
BRANCH  11  12
HETATM   12  C1  UNL     1      -2.913   5.683  13.659  1.00  0.00     0.208 C 
HETATM   13  O1  UNL     1      -3.627   6.618  14.094  1.00  0.00    -0.646 OA
HETATM   14  O2  UNL     1      -1.542   5.784  13.804  1.00  0.00    -0.646 OA
ENDBRANCH  11  12
BRANCH  11  15
HETATM   15  O3  UNL     1      -4.781   4.855  12.436  1.00  0.00    -0.380 OA
ATOM     16  H3  UNL     1      -5.456   5.082  13.064  1.00  0.00     0.210 HD
ENDBRANCH  11  15
ENDBRANCH   1  11
BRANCH   5  17
HETATM   17  O5  UNL     1      -4.873  -0.259  15.327  1.00  0.00    -0.392 OA
ATOM     18  H5  UNL     1      -4.921  -0.556  16.228  1.00  0.00     0.210 HD
ENDBRANCH   5  17
TORSDOF 4
ENDMDL
MODEL 4
REMARK VINA RESULT: -6.933715386      2.257      2.569
REMARK  4 active torsions:
REMARK  status: ('A' for Active; 'I' for Inactive)
REMARK    1  A    between atoms: C1_2  and  C2_4 
REMARK    2  A    between atoms: C2_4  and  O3_5 
REMARK    3  A    between atoms: C2_4  and  C3_7 
REMARK    4  A    between atoms: C5_11  and  O5_12 
ROOT
HETATM    1  C3  UNL     1      -4.666   1.633  14.442  1.00  0.00     0.249 C 
HETATM    2  F1  UNL     1      -5.784   2.396  14.421  1.00  0.00    -0.208 F 
HETATM    3  O4  UNL     1      -4.725   0.596  13.486  1.00  0.00    -0.340 OA
HETATM    4  C4  UNL     1      -3.930   1.294  12.600  1.00  0.00     0.166 C 
HETATM    5  C5  UNL     1      -4.734   2.204  11.720  1.00  0.00     0.163 C 
HETATM    6  C6  UNL     1      -4.511   3.614  12.175  1.00  0.00     0.108 C 
HETATM    7 BR1  UNL     1      -3.863   4.696  10.680  1.00  0.00    -0.087 Br
HETATM    8  C7  UNL     1      -3.449   3.538  13.253  1.00  0.00     0.111 C 
HETATM    9 CL1  UNL     1      -3.628   4.766  14.492  1.00  0.00    -0.123 Cl
HETATM   10  C8  UNL     1      -3.449   2.135  13.760  1.00  0.00     0.108 C 
ENDROOT
BRANCH   1  11
HETATM   11  C2  UNL     1      -4.312   1.006  15.780  1.00  0.00     0.286 C 
BRANCH  11  12
HETATM   12  C1  UNL     1      -5.487   1.142  16.663  1.00  0.00     0.208 C 
HETATM   13  O1  UNL     1      -5.540   2.131  17.434  1.00  0.00    -0.646 OA
HETATM   14  O2  UNL     1      -6.532   0.238  16.686  1.00  0.00    -0.646 OA
ENDBRANCH  11  12
BRANCH  11  15
HETATM   15  O3  UNL     1      -3.177   1.584  16.294  1.00  0.00    -0.380 OA
ATOM     16  H3  UNL     1      -2.543   0.952  16.610  1.00  0.00     0.210 HD
ENDBRANCH  11  15
ENDBRANCH   1  11
BRANCH   5  17
HETATM   17  O5  UNL     1      -4.312   1.991  10.397  1.00  0.00    -0.392 OA
ATOM     18  H5  UNL     1      -3.667   1.294  10.414  1.00  0.00     0.210 HD
ENDBRANCH   5  17
TORSDOF 4
ENDMDL
MODEL 5
REMARK VINA RESULT: -6.903182349      2.875      4.847
REMARK  4 active torsions:
REMARK  status: ('A' for Active; 'I' for Inactive)
REMARK    1  A    between atoms: C1_2  and  C2_4 
REMARK    2  A    between atoms: C2_4  and  O3_5 
REMARK    3  A    between atoms: C2_4  and  C3_7 
REMARK    4  A    between atoms: C5_11  and  O5_12 
ROOT
HETATM    1  C3  UNL     1      -3.923   3.392  13.889  1.00  0.00     0.249 C 
HETATM    2  F1  UNL     1      -3.205   3.720  14.989  1.00  0.00    -0.208 F 
HETATM    3  O4  UNL     1      -3.553   2.127  13.383  1.00  0.00    -0.340 OA
HETATM    4  C4  UNL     1      -4.640   1.514  13.970  1.00  0.00     0.166 C 
HETATM    5  C5  UNL     1      -4.352   1.081  15.377  1.00  0.00     0.163 C 
HETATM    6  C6  UNL     1      -5.068   2.008  16.310  1.00  0.00     0.108 C 
HETATM    7 BR1  UNL     1      -6.233   0.981  17.497  1.00  0.00    -0.087 Br
HETATM    8  C7  UNL     1      -5.904   2.917  15.430  1.00  0.00     0.111 C 
HETATM    9 CL1  UNL     1      -6.103   4.529  16.090  1.00  0.00    -0.123 Cl
HETATM   10  C8  UNL     1      -5.299   2.871  14.066  1.00  0.00     0.108 C 
ENDROOT
BRANCH   1  11
HETATM   11  C2  UNL     1      -3.868   4.382  12.737  1.00  0.00     0.286 C 
BRANCH  11  12
HETATM   12  C1  UNL     1      -4.537   5.622  13.180  1.00  0.00     0.208 C 
HETATM   13  O1  UNL     1      -3.900   6.408  13.922  1.00  0.00    -0.646 OA
HETATM   14  O2  UNL     1      -5.827   5.962  12.820  1.00  0.00    -0.646 OA
ENDBRANCH  11  12
BRANCH  11  15
HETATM   15  O3  UNL     1      -4.428   3.835  11.609  1.00  0.00    -0.380 OA
ATOM     16  H3  UNL     1      -3.894   3.156  11.215  1.00  0.00     0.210 HD
ENDBRANCH  11  15
ENDBRANCH   1  11
BRANCH   5  17
HETATM   17  O5  UNL     1      -4.783  -0.250  15.503  1.00  0.00    -0.392 OA
ATOM     18  H5  UNL     1      -4.292  -0.642  16.216  1.00  0.00     0.210 HD
ENDBRANCH   5  17
TORSDOF 4
ENDMDL
