MODEL 1
REMARK VINA RESULT: -7.410272480      0.000      0.000
REMARK  5 active torsions:
REMARK  status: ('A' for Active; 'I' for Inactive)
REMARK    1  A    between atoms: O1_1  and  C1_3 
REMARK    2  A    between atoms: C1_3  and  C2_4 
REMARK    3  A    between atoms: C3_6  and  N1_7 
REMARK    4  A    between atoms: C6_10  and  O3_11 
REMARK    5  A    between atoms: C10_19  and  O4_20 
ROOT
HETATM    1  C2  UNL     1      -4.100   0.975  12.067  1.00  0.00     0.178 C 
HETATM    2  O2  UNL     1      -4.850   1.098  13.249  1.00  0.00    -0.351 OA
HETATM    3  C3  UNL     1      -4.184   2.126  13.968  1.00  0.00     0.294 C 
HETATM    4  C8  UNL     1      -4.265   3.446  13.313  1.00  0.00     0.301 C 
HETATM    5  F1  UNL     1      -5.514   4.030  13.356  1.00  0.00    -0.200 F 
HETATM    6  F2  UNL     1      -3.379   4.317  13.908  1.00  0.00    -0.200 F 
HETATM    7  C9  UNL     1      -3.888   3.369  11.841  1.00  0.00     0.166 C 
HETATM    8 BR1  UNL     1      -1.957   3.142  11.775  1.00  0.00    -0.082 Br
HETATM    9  C10 UNL     1      -4.546   2.159  11.226  1.00  0.00     0.169 C 
ENDROOT
BRANCH   3  10
HETATM   10  N1  UNL     1      -4.546   1.980  15.302  1.00  0.00    -0.380 N 
HETATM   11  C4  UNL     1      -5.439   2.834  15.946  1.00  0.00     0.122 C 
HETATM   12  C5  UNL     1      -6.458   1.862  16.560  1.00  0.00     0.053 C 
HETATM   13  C6  UNL     1      -5.448   0.827  17.085  1.00  0.00     0.137 C 
HETATM   14  C7  UNL     1      -4.581   0.674  15.854  1.00  0.00     0.151 C 
BRANCH  13  15
HETATM   15  O3  UNL     1      -6.085  -0.339  17.454  1.00  0.00    -0.394 OA
ATOM     16  H3  UNL     1      -5.513  -1.090  17.339  1.00  0.00     0.210 HD
ENDBRANCH  13  15
ENDBRANCH   3  10
BRANCH   1  17
HETATM   17  C1  UNL     1      -4.391  -0.346  11.447  1.00  0.00     0.198 C 
BRANCH  17  18
HETATM   18  O1  UNL     1      -4.855  -0.126  10.144  1.00  0.00    -0.398 OA
ATOM     19  H1  UNL     1      -5.292  -0.916   9.847  1.00  0.00     0.209 HD
ENDBRANCH  17  18
ENDBRANCH   1  17
BRANCH   9  20
HETATM   20  O4  UNL     1      -5.940   2.290  11.419  1.00  0.00    -0.392 OA
ATOM     21  H4  UNL     1      -6.062   2.991  12.049  1.00  0.00     0.210 HD
ENDBRANCH   9  20
TORSDOF 5
ENDMDL
MODEL 2
REMARK VINA RESULT: -7.283198709      2.507      3.219
REMARK  5 active torsions:
REMARK  status: ('A' for Active; 'I' for Inactive)
REMARK    1  A    between atoms: O1_1  and  C1_3 
REMARK    2  A    between atoms: C1_3  and  C2_4 
REMARK    3  A    between atoms: C3_6  and  N1_7 
REMARK    4  A    between atoms: C6_10  and  O3_11 
REMARK    5  A    between atoms: C10_19  and  O4_20 
ROOT
HETATM    1  C2  UNL     1      -2.894   4.523  14.148  1.00  0.00     0.178 C 
HETATM    2  O2  UNL     1      -3.220   3.441  14.985  1.00  0.00    -0.351 OA
HETATM    3  C3  UNL     1      -4.635   3.503  15.083  1.00  0.00     0.294 C 
HETATM    4  C8  UNL     1      -5.325   3.232  13.807  1.00  0.00     0.301 C 
HETATM    5  F1  UNL     1      -5.268   1.918  13.394  1.00  0.00    -0.200 F 
HETATM    6  F2  UNL     1      -6.654   3.579  13.911  1.00  0.00    -0.200 F 
HETATM    7  C9  UNL     1      -4.742   4.055  12.667  1.00  0.00     0.166 C 
HETATM    8 BR1  UNL     1      -5.355   5.882  12.934  1.00  0.00    -0.082 Br
HETATM    9  C10 UNL     1      -3.236   4.023  12.755  1.00  0.00     0.169 C 
ENDROOT
BRANCH   3  10
HETATM   10  N1  UNL     1      -4.986   2.805  16.233  1.00  0.00    -0.380 N 
HETATM   11  C4  UNL     1      -6.103   3.123  17.006  1.00  0.00     0.122 C 
HETATM   12  C5  UNL     1      -6.832   1.776  17.122  1.00  0.00     0.053 C 
HETATM   13  C6  UNL     1      -5.593   0.907  17.395  1.00  0.00     0.137 C 
HETATM   14  C7  UNL     1      -4.677   1.423  16.307  1.00  0.00     0.151 C 
BRANCH  13  15
HETATM   15  O3  UNL     1      -5.893  -0.433  17.268  1.00  0.00    -0.394 OA
ATOM     16  H3  UNL     1      -6.148  -0.642  16.377  1.00  0.00     0.210 HD
ENDBRANCH  13  15
ENDBRANCH   3  10
BRANCH   1  17
HETATM   17  C1  UNL     1      -1.456   4.858  14.332  1.00  0.00     0.198 C 
BRANCH  17  18
HETATM   18  O1  UNL     1      -0.740   4.312  13.259  1.00  0.00    -0.398 OA
ATOM     19  H1  UNL     1      -0.077   4.939  12.995  1.00  0.00     0.209 HD
ENDBRANCH  17  18
ENDBRANCH   1  17
BRANCH   9  20
HETATM   20  O4  UNL     1      -2.836   2.669  12.701  1.00  0.00    -0.392 OA
ATOM     21  H4  UNL     1      -3.523   2.201  12.242  1.00  0.00     0.210 HD
ENDBRANCH   9  20
TORSDOF 5
ENDMDL
MODEL 3
REMARK VINA RESULT: -7.068073183      2.241      2.393
REMARK  5 active torsions:
REMARK  status: ('A' for Active; 'I' for Inactive)
REMARK    1  A    between atoms: O1_1  and  C1_3 
REMARK    2  A    between atoms: C1_3  and  C2_4 
REMARK    3  A    between atoms: C3_6  and  N1_7 
REMARK    4  A    between atoms: C6_10  and  O3_11 
REMARK    5  A    between atoms: C10_19  and  O4_20 
ROOT
HETATM    1  C2  UNL     1      -3.163   3.609  13.407  1.00  0.00     0.178 C 
HETATM    2  O2  UNL     1      -3.950   2.781  14.226  1.00  0.00    -0.351 OA
HETATM    3  C3  UNL     1      -4.426   3.657  15.236  1.00  0.00     0.294 C 
HETATM    4  C8  UNL     1      -5.345   4.694  14.728  1.00  0.00     0.301 C 
HETATM    5  F1  UNL     1      -6.586   4.224  14.352  1.00  0.00    -0.200 F 
HETATM    6  F2  UNL     1      -5.541   5.658  15.692  1.00  0.00    -0.200 F 
HETATM    7  C9  UNL     1      -4.777   5.401  13.506  1.00  0.00     0.166 C 
HETATM    8 BR1  UNL     1      -3.364   6.571  14.152  1.00  0.00    -0.082 Br
HETATM    9  C10 UNL     1      -4.179   4.375  12.576  1.00  0.00     0.169 C 
ENDROOT
BRANCH   3  10
HETATM   10  N1  UNL     1      -4.793   2.861  16.315  1.00  0.00    -0.380 N 
HETATM   11  C4  UNL     1      -5.882   3.148  17.137  1.00  0.00     0.122 C 
HETATM   12  C5  UNL     1      -6.671   1.830  17.129  1.00  0.00     0.053 C 
HETATM   13  C6  UNL     1      -5.470   0.882  17.289  1.00  0.00     0.137 C 
HETATM   14  C7  UNL     1      -4.547   1.466  16.241  1.00  0.00     0.151 C 
BRANCH  13  15
HETATM   15  O3  UNL     1      -5.833  -0.423  17.031  1.00  0.00    -0.394 OA
ATOM     16  H3  UNL     1      -5.266  -0.811  16.374  1.00  0.00     0.210 HD
ENDBRANCH  13  15
ENDBRANCH   3  10
BRANCH   1  17
HETATM   17  C1  UNL     1      -2.246   2.758  12.601  1.00  0.00     0.198 C 
BRANCH  17  18
HETATM   18  O1  UNL     1      -2.917   1.570  12.284  1.00  0.00    -0.398 OA
ATOM     19  H1  UNL     1      -2.708   1.341  11.386  1.00  0.00     0.209 HD
ENDBRANCH  17  18
ENDBRANCH   1  17
BRANCH   9  20
HETATM   20  O4  UNL     1      -5.201   3.458  12.242  1.00  0.00    -0.392 OA
ATOM     21  H4  UNL     1      -4.877   2.946  11.510  1.00  0.00     0.210 HD
ENDBRANCH   9  20
TORSDOF 5
ENDMDL
MODEL 4
REMARK VINA RESULT: -6.834706669      1.276      1.465
REMARK  5 active torsions:
REMARK  status: ('A' for Active; 'I' for Inactive)
REMARK    1  A    between atoms: O1_1  and  C1_3 
REMARK    2  A    between atoms: C1_3  and  C2_4 
REMARK    3  A    between atoms: C3_6  and  N1_7 
REMARK    4  A    between atoms: C6_10  and  O3_11 
REMARK    5  A    between atoms: C10_19  and  O4_20 
ROOT
HETATM    1  C2  UNL     1      -4.232   2.509  12.196  1.00  0.00     0.178 C 
HETATM    2  O2  UNL     1      -4.901   2.560  13.432  1.00  0.00    -0.351 OA
HETATM    3  C3  UNL     1      -3.871   2.863  14.362  1.00  0.00     0.294 C 
HETATM    4  C8  UNL     1      -3.289   4.206  14.176  1.00  0.00     0.301 C 
HETATM    5  F1  UNL     1      -4.120   5.245  14.540  1.00  0.00    -0.200 F 
HETATM    6  F2  UNL     1      -2.133   4.320  14.915  1.00  0.00    -0.200 F 
HETATM    7  C9  UNL     1      -2.912   4.460  12.724  1.00  0.00     0.166 C 
HETATM    8 BR1  UNL     1      -1.312   3.411  12.376  1.00  0.00    -0.082 Br
HETATM    9  C10 UNL     1      -4.025   3.969  11.831  1.00  0.00     0.169 C 
ENDROOT
BRANCH   3  10
HETATM   10  N1  UNL     1      -4.332   2.464  15.611  1.00  0.00    -0.380 N 
HETATM   11  C4  UNL     1      -5.325   3.148  16.310  1.00  0.00     0.122 C 
HETATM   12  C5  UNL     1      -6.331   2.038  16.649  1.00  0.00     0.053 C 
HETATM   13  C6  UNL     1      -5.308   0.971  17.075  1.00  0.00     0.137 C 
HETATM   14  C7  UNL     1      -4.335   1.080  15.920  1.00  0.00     0.151 C 
BRANCH  13  15
HETATM   15  O3  UNL     1      -5.902  -0.270  17.175  1.00  0.00    -0.394 OA
ATOM     16  H3  UNL     1      -5.250  -0.949  17.308  1.00  0.00     0.210 HD
ENDBRANCH  13  15
ENDBRANCH   3  10
BRANCH   1  17
HETATM   17  C1  UNL     1      -5.073   1.759  11.224  1.00  0.00     0.198 C 
BRANCH  17  18
HETATM   18  O1  UNL     1      -4.332   1.584  10.048  1.00  0.00    -0.398 OA
ATOM     19  H1  UNL     1      -4.761   2.068   9.352  1.00  0.00     0.209 HD
ENDBRANCH  17  18
ENDBRANCH   1  17
BRANCH   9  20
HETATM   20  O4  UNL     1      -5.204   4.651  12.210  1.00  0.00    -0.392 OA
ATOM     21  H4  UNL     1      -5.805   3.992  12.537  1.00  0.00     0.210 HD
ENDBRANCH   9  20
TORSDOF 5
ENDMDL
MODEL 5
REMARK VINA RESULT: -6.773280591      1.469      1.843
REMARK  5 active torsions:
REMARK  status: ('A' for Active; 'I' for Inactive)
REMARK    1  A    between atoms: O1_1  and  C1_3 
REMARK    2  A    between atoms: C1_3  and  C2_4 
REMARK    3  A    between atoms: C3_6  and  N1_7 
REMARK    4  A    between atoms: C6_10  and  O3_11 
REMARK    5  A    between atoms: C10_19  and  O4_20 
ROOT
HETATM    1  C2  UNL     1      -3.979   2.964  12.658  1.00  0.00     0.178 C 
HETATM    2  O2  UNL     1      -4.859   2.749  13.733  1.00  0.00    -0.351 OA
HETATM    3  C3  UNL     1      -4.210   3.370  14.832  1.00  0.00     0.294 C 
HETATM    4  C8  UNL     1      -4.104   4.836  14.699  1.00  0.00     0.301 C 
HETATM    5  F1  UNL     1      -5.299   5.510  14.841  1.00  0.00    -0.200 F 
HETATM    6  F2  UNL     1      -3.234   5.330  15.646  1.00  0.00    -0.200 F 
HETATM    7  C9  UNL     1      -3.553   5.240  13.340  1.00  0.00     0.166 C 
HETATM    8 BR1  UNL     1      -1.653   4.824  13.367  1.00  0.00    -0.082 Br
HETATM    9  C10 UNL     1      -4.222   4.413  12.270  1.00  0.00     0.169 C 
ENDROOT
BRANCH   3  10
HETATM   10  N1  UNL     1      -4.746   2.806  15.984  1.00  0.00    -0.380 N 
HETATM   11  C4  UNL     1      -5.939   3.241  16.560  1.00  0.00     0.122 C 
HETATM   12  C5  UNL     1      -6.743   1.939  16.703  1.00  0.00     0.053 C 
HETATM   13  C6  UNL     1      -5.596   1.059  17.228  1.00  0.00     0.137 C 
HETATM   14  C7  UNL     1      -4.517   1.428  16.232  1.00  0.00     0.151 C 
BRANCH  13  15
HETATM   15  O3  UNL     1      -5.941  -0.276  17.189  1.00  0.00    -0.394 OA
ATOM     16  H3  UNL     1      -5.226  -0.822  17.494  1.00  0.00     0.210 HD
ENDBRANCH  13  15
ENDBRANCH   3  10
BRANCH   1  17
HETATM   17  C1  UNL     1      -4.292   1.991  11.577  1.00  0.00     0.198 C 
BRANCH  17  18
HETATM   18  O1  UNL     1      -5.683   1.946  11.419  1.00  0.00    -0.398 OA
ATOM     19  H1  UNL     1      -5.920   1.075  11.120  1.00  0.00     0.209 HD
ENDBRANCH  17  18
ENDBRANCH   1  17
BRANCH   9  20
HETATM   20  O4  UNL     1      -5.615   4.630  12.374  1.00  0.00    -0.392 OA
ATOM     21  H4  UNL     1      -5.751   5.565  12.275  1.00  0.00     0.210 HD
ENDBRANCH   9  20
TORSDOF 5
ENDMDL
