MODEL 1
REMARK VINA RESULT: -4.067951081      0.000      0.000
REMARK  16 active torsions:
REMARK  status: ('A' for Active; 'I' for Inactive)
REMARK    1  A    between atoms: N1_1  and  C1_4 
REMARK    2  A    between atoms: C3_8  and  N3_9 
REMARK    3  A    between atoms: N3_9  and  C4_11 
REMARK    4  A    between atoms: C7_14  and  C8_15 
REMARK    5  A    between atoms: N4_17  and  C9_18 
REMARK    6  A    between atoms: C9_18  and  C10_19 
REMARK    7  A    between atoms: C10_19  and  O1_20 
REMARK    8  A    between atoms: C10_19  and  N5_22 
REMARK    9  A    between atoms: N5_22  and  N6_23 
REMARK   10  A    between atoms: N9_33  and  C13_34 
REMARK   11  A    between atoms: C13_34  and  O2_35 
REMARK   12  A    between atoms: O2_35  and  C14_36 
REMARK   13  A    between atoms: C14_36  and  C15_37 
REMARK   14  A    between atoms: C14_36  and  C16_40 
REMARK   15  A    between atoms: C15_37  and  O3_38 
REMARK   16  A    between atoms: C16_40  and  O4_41 
ROOT
HETATM    1  C1  UNL     1      57.590  11.929  29.023  1.00  0.00     0.682 A 
HETATM    2  N2  UNL     1      57.111  10.854  28.337  1.00  0.00    -0.184 N 
ATOM      3  H2  UNL     1      56.329  10.867  27.682  1.00  0.00     0.184 HD
HETATM    4  C2  UNL     1      57.828   9.790  28.659  1.00  0.00     0.138 A 
HETATM    5  C3  UNL     1      57.776   8.474  28.268  1.00  0.00     0.140 A 
HETATM    6  N7  UNL     1      58.706   7.651  28.835  1.00  0.00    -0.317 N 
ATOM      7  H7  UNL     1      58.714   6.663  28.582  1.00  0.00     0.170 HD
HETATM    8  C11 UNL     1      59.610   8.106  29.716  1.00  0.00     0.182 A 
HETATM    9 CL1  UNL     1      60.800   7.013  30.431  1.00  0.00    -0.045 Cl
HETATM   10  N8  UNL     1      59.667   9.391  30.105  1.00  0.00    -0.316 N 
ATOM     11  H8  UNL     1      60.366   9.706  30.777  1.00  0.00     0.170 HD
HETATM   12  C12 UNL     1      58.776  10.246  29.579  1.00  0.00     0.159 A 
HETATM   13  N9  UNL     1      58.623  11.559  29.797  1.00  0.00    -0.144 N 
ENDROOT
BRANCH   5  14
HETATM   14  N3  UNL     1      56.984   7.966  27.466  1.00  0.00    -0.326 N 
ATOM     15  H3  UNL     1      56.324   8.659  27.113  1.00  0.00     0.169 HD
BRANCH  14  16
HETATM   16  C4  UNL     1      56.744   6.729  26.919  1.00  0.00     0.109 A 
HETATM   17  C5  UNL     1      57.700   5.957  26.291  1.00  0.00     0.051 A 
HETATM   18  C6  UNL     1      57.072   4.805  25.875  1.00  0.00     0.031 A 
HETATM   19  C7  UNL     1      55.718   4.870  26.252  1.00  0.00     0.042 A 
HETATM   20  N4  UNL     1      55.552   6.046  26.878  1.00  0.00    -0.331 N 
BRANCH  19  21
HETATM   21  C8  UNL     1      54.807   3.766  25.956  1.00  0.00     0.279 C 
HETATM   22  F1  UNL     1      54.970   3.237  24.692  1.00  0.00    -0.249 F 
ENDBRANCH  19  21
BRANCH  20  23
HETATM   23  C9  UNL     1      54.326   6.507  27.446  1.00  0.00     0.181 C 
BRANCH  23  24
HETATM   24  C10 UNL     1      54.357   7.887  28.031  1.00  0.00     0.248 C 
BRANCH  24  25
HETATM   25  O1  UNL     1      53.821   7.777  29.332  1.00  0.00    -0.376 OA
ATOM     26  H1  UNL     1      54.047   8.583  29.781  1.00  0.00     0.211 HD
ENDBRANCH  24  25
BRANCH  24  27
HETATM   27  N5  UNL     1      53.692   8.904  27.299  1.00  0.00    -0.115 NA
BRANCH  27  28
HETATM   28  N6  UNL     1      54.077  10.195  27.689  1.00  0.00    -0.346 N 
ATOM     29  H62 UNL     1      54.581  10.382  28.556  1.00  0.00     0.172 HD
ATOM     30  H61 UNL     1      53.801  10.910  27.017  1.00  0.00     0.172 HD
ENDBRANCH  27  28
ENDBRANCH  24  27
ENDBRANCH  23  24
ENDBRANCH  20  23
ENDBRANCH  14  16
ENDBRANCH   5  14
BRANCH   1  31
HETATM   31  N1  UNL     1      57.063  13.120  28.894  1.00  0.00    -0.234 N 
ATOM     32  H12 UNL     1      56.382  13.436  28.204  1.00  0.00     0.174 HD
ATOM     33  H11 UNL     1      57.310  13.888  29.520  1.00  0.00     0.174 HD
ENDBRANCH   1  31
BRANCH  13  34
HETATM   34  C13 UNL     1      59.361  12.451  30.654  1.00  0.00     0.319 C 
BRANCH  34  35
HETATM   35  O2  UNL     1      58.508  13.294  31.360  1.00  0.00    -0.361 OA
BRANCH  35  36
HETATM   36  C14 UNL     1      59.164  14.028  32.321  1.00  0.00     0.170 C 
BRANCH  36  37
HETATM   37  C15 UNL     1      58.377  15.306  32.603  1.00  0.00     0.198 C 
BRANCH  37  38
HETATM   38  O3  UNL     1      59.138  16.165  33.363  1.00  0.00    -0.398 OA
ATOM     39  H3  UNL     1      59.941  16.378  32.901  1.00  0.00     0.209 HD
ENDBRANCH  37  38
ENDBRANCH  36  37
BRANCH  36  40
HETATM   40  C16 UNL     1      60.541  14.483  31.846  1.00  0.00     0.198 C 
BRANCH  40  41
HETATM   41  O4  UNL     1      61.430  14.395  32.915  1.00  0.00    -0.398 OA
ATOM     42  H4  UNL     1      61.160  15.014  33.583  1.00  0.00     0.209 HD
ENDBRANCH  40  41
ENDBRANCH  36  40
ENDBRANCH  35  36
ENDBRANCH  34  35
ENDBRANCH  13  34
TORSDOF 16
ENDMDL
MODEL 2
REMARK VINA RESULT: -3.518400153      1.632      1.941
REMARK  16 active torsions:
REMARK  status: ('A' for Active; 'I' for Inactive)
REMARK    1  A    between atoms: N1_1  and  C1_4 
REMARK    2  A    between atoms: C3_8  and  N3_9 
REMARK    3  A    between atoms: N3_9  and  C4_11 
REMARK    4  A    between atoms: C7_14  and  C8_15 
REMARK    5  A    between atoms: N4_17  and  C9_18 
REMARK    6  A    between atoms: C9_18  and  C10_19 
REMARK    7  A    between atoms: C10_19  and  O1_20 
REMARK    8  A    between atoms: C10_19  and  N5_22 
REMARK    9  A    between atoms: N5_22  and  N6_23 
REMARK   10  A    between atoms: N9_33  and  C13_34 
REMARK   11  A    between atoms: C13_34  and  O2_35 
REMARK   12  A    between atoms: O2_35  and  C14_36 
REMARK   13  A    between atoms: C14_36  and  C15_37 
REMARK   14  A    between atoms: C14_36  and  C16_40 
REMARK   15  A    between atoms: C15_37  and  O3_38 
REMARK   16  A    between atoms: C16_40  and  O4_41 
ROOT
HETATM    1  C1  UNL     1      58.027  12.014  29.404  1.00  0.00     0.682 A 
HETATM    2  N2  UNL     1      57.625  11.000  28.588  1.00  0.00    -0.184 N 
ATOM      3  H2  UNL     1      56.861  11.046  27.914  1.00  0.00     0.184 HD
HETATM    4  C2  UNL     1      58.389   9.944  28.814  1.00  0.00     0.138 A 
HETATM    5  C3  UNL     1      58.419   8.679  28.279  1.00  0.00     0.140 A 
HETATM    6  N7  UNL     1      59.377   7.846  28.782  1.00  0.00    -0.317 N 
ATOM      7  H7  UNL     1      59.446   6.894  28.422  1.00  0.00     0.170 HD
HETATM    8  C11 UNL     1      60.231   8.245  29.737  1.00  0.00     0.182 A 
HETATM    9 CL1  UNL     1      61.459   7.141  30.365  1.00  0.00    -0.045 Cl
HETATM   10  N8  UNL     1      60.209   9.479  30.266  1.00  0.00    -0.316 N 
ATOM     11  H8  UNL     1      60.871   9.752  30.992  1.00  0.00     0.170 HD
HETATM   12  C12 UNL     1      59.287  10.341  29.809  1.00  0.00     0.159 A 
HETATM   13  N9  UNL     1      59.058  11.613  30.165  1.00  0.00    -0.144 N 
ENDROOT
BRANCH   5  14
HETATM   14  N3  UNL     1      57.678   8.225  27.401  1.00  0.00    -0.326 N 
ATOM     15  H3  UNL     1      57.999   8.496  26.472  1.00  0.00     0.169 HD
BRANCH  14  16
HETATM   16  C4  UNL     1      56.541   7.456  27.328  1.00  0.00     0.109 A 
HETATM   17  C5  UNL     1      56.471   6.227  26.705  1.00  0.00     0.051 A 
HETATM   18  C6  UNL     1      55.174   5.786  26.838  1.00  0.00     0.031 A 
HETATM   19  C7  UNL     1      54.441   6.753  27.549  1.00  0.00     0.042 A 
HETATM   20  N4  UNL     1      55.295   7.751  27.829  1.00  0.00    -0.331 N 
BRANCH  19  21
HETATM   21  C8  UNL     1      53.028   6.541  27.859  1.00  0.00     0.279 C 
HETATM   22  F1  UNL     1      52.269   7.692  27.797  1.00  0.00    -0.249 F 
ENDBRANCH  19  21
BRANCH  20  23
HETATM   23  C9  UNL     1      54.968   8.930  28.563  1.00  0.00     0.181 C 
BRANCH  23  24
HETATM   24  C10 UNL     1      54.301  10.022  27.781  1.00  0.00     0.248 C 
BRANCH  24  25
HETATM   25  O1  UNL     1      54.025   9.482  26.506  1.00  0.00    -0.376 OA
ATOM     26  H1  UNL     1      53.273   8.912  26.616  1.00  0.00     0.211 HD
ENDBRANCH  24  25
BRANCH  24  27
HETATM   27  N5  UNL     1      55.009  11.245  27.664  1.00  0.00    -0.115 NA
BRANCH  27  28
HETATM   28  N6  UNL     1      54.487  12.082  26.667  1.00  0.00    -0.346 N 
ATOM     29  H62 UNL     1      54.870  13.006  26.467  1.00  0.00     0.172 HD
ATOM     30  H61 UNL     1      53.696  11.666  26.176  1.00  0.00     0.172 HD
ENDBRANCH  27  28
ENDBRANCH  24  27
ENDBRANCH  23  24
ENDBRANCH  20  23
ENDBRANCH  14  16
ENDBRANCH   5  14
BRANCH   1  31
HETATM   31  N1  UNL     1      57.440  13.184  29.390  1.00  0.00    -0.234 N 
ATOM     32  H12 UNL     1      57.868  14.101  29.265  1.00  0.00     0.174 HD
ATOM     33  H11 UNL     1      56.432  13.282  29.514  1.00  0.00     0.174 HD
ENDBRANCH   1  31
BRANCH  13  34
HETATM   34  C13 UNL     1      59.723  12.439  31.139  1.00  0.00     0.319 C 
BRANCH  34  35
HETATM   35  O2  UNL     1      58.813  13.223  31.843  1.00  0.00    -0.361 OA
BRANCH  35  36
HETATM   36  C14 UNL     1      59.413  14.279  32.490  1.00  0.00     0.170 C 
BRANCH  36  37
HETATM   37  C15 UNL     1      58.434  15.449  32.558  1.00  0.00     0.198 C 
BRANCH  37  38
HETATM   38  O3  UNL     1      58.693  16.210  33.675  1.00  0.00    -0.398 OA
ATOM     39  H3  UNL     1      58.985  17.076  33.414  1.00  0.00     0.209 HD
ENDBRANCH  37  38
ENDBRANCH  36  37
BRANCH  36  40
HETATM   40  C16 UNL     1      60.628  14.796  31.726  1.00  0.00     0.198 C 
BRANCH  40  41
HETATM   41  O4  UNL     1      60.564  16.187  31.680  1.00  0.00    -0.398 OA
ATOM     42  H4  UNL     1      61.380  16.538  32.016  1.00  0.00     0.209 HD
ENDBRANCH  40  41
ENDBRANCH  36  40
ENDBRANCH  35  36
ENDBRANCH  34  35
ENDBRANCH  13  34
TORSDOF 16
ENDMDL
MODEL 3
REMARK VINA RESULT: -3.454899400      2.446      3.787
REMARK  16 active torsions:
REMARK  status: ('A' for Active; 'I' for Inactive)
REMARK    1  A    between atoms: N1_1  and  C1_4 
REMARK    2  A    between atoms: C3_8  and  N3_9 
REMARK    3  A    between atoms: N3_9  and  C4_11 
REMARK    4  A    between atoms: C7_14  and  C8_15 
REMARK    5  A    between atoms: N4_17  and  C9_18 
REMARK    6  A    between atoms: C9_18  and  C10_19 
REMARK    7  A    between atoms: C10_19  and  O1_20 
REMARK    8  A    between atoms: C10_19  and  N5_22 
REMARK    9  A    between atoms: N5_22  and  N6_23 
REMARK   10  A    between atoms: N9_33  and  C13_34 
REMARK   11  A    between atoms: C13_34  and  O2_35 
REMARK   12  A    between atoms: O2_35  and  C14_36 
REMARK   13  A    between atoms: C14_36  and  C15_37 
REMARK   14  A    between atoms: C14_36  and  C16_40 
REMARK   15  A    between atoms: C15_37  and  O3_38 
REMARK   16  A    between atoms: C16_40  and  O4_41 
ROOT
HETATM    1  C1  UNL     1      58.065  10.916  29.843  1.00  0.00     0.682 A 
HETATM    2  N2  UNL     1      57.134   9.973  29.526  1.00  0.00    -0.184 N 
ATOM      3  H2  UNL     1      57.096   9.025  29.903  1.00  0.00     0.184 HD
HETATM    4  C2  UNL     1      56.289  10.487  28.649  1.00  0.00     0.138 A 
HETATM    5  C3  UNL     1      55.183   9.982  28.008  1.00  0.00     0.140 A 
HETATM    6  N7  UNL     1      54.554  10.838  27.151  1.00  0.00    -0.317 N 
ATOM      7  H7  UNL     1      53.728  10.517  26.646  1.00  0.00     0.170 HD
HETATM    8  C11 UNL     1      54.993  12.090  26.952  1.00  0.00     0.182 A 
HETATM    9 CL1  UNL     1      54.154  13.172  25.835  1.00  0.00    -0.045 Cl
HETATM   10  N8  UNL     1      56.073  12.592  27.574  1.00  0.00    -0.316 N 
ATOM     11  H8  UNL     1      56.382  13.549  27.401  1.00  0.00     0.170 HD
HETATM   12  C12 UNL     1      56.731  11.795  28.429  1.00  0.00     0.159 A 
HETATM   13  N9  UNL     1      57.821  12.049  29.166  1.00  0.00    -0.144 N 
ENDROOT
BRANCH   5  14
HETATM   14  N3  UNL     1      54.707   8.848  28.127  1.00  0.00    -0.326 N 
ATOM     15  H3  UNL     1      53.917   8.847  28.771  1.00  0.00     0.169 HD
BRANCH  14  16
HETATM   16  C4  UNL     1      54.946   7.588  27.634  1.00  0.00     0.109 A 
HETATM   17  C5  UNL     1      54.060   6.534  27.727  1.00  0.00     0.051 A 
HETATM   18  C6  UNL     1      54.664   5.452  27.129  1.00  0.00     0.031 A 
HETATM   19  C7  UNL     1      55.933   5.844  26.665  1.00  0.00     0.042 A 
HETATM   20  N4  UNL     1      56.074   7.140  26.987  1.00  0.00    -0.331 N 
BRANCH  19  21
HETATM   21  C8  UNL     1      56.797   4.897  25.963  1.00  0.00     0.279 C 
HETATM   22  F1  UNL     1      56.107   3.889  25.320  1.00  0.00    -0.249 F 
ENDBRANCH  19  21
BRANCH  20  23
HETATM   23  C9  UNL     1      57.212   7.944  26.678  1.00  0.00     0.181 C 
BRANCH  23  24
HETATM   24  C10 UNL     1      58.437   7.684  27.503  1.00  0.00     0.248 C 
BRANCH  24  25
HETATM   25  O1  UNL     1      57.986   7.473  28.823  1.00  0.00    -0.376 OA
ATOM     26  H1  UNL     1      58.212   8.256  29.310  1.00  0.00     0.211 HD
ENDBRANCH  24  25
BRANCH  24  27
HETATM   27  N5  UNL     1      59.448   8.678  27.472  1.00  0.00    -0.115 NA
BRANCH  27  28
HETATM   28  N6  UNL     1      60.459   8.454  28.418  1.00  0.00    -0.346 N 
ATOM     29  H62 UNL     1      60.490   7.621  29.006  1.00  0.00     0.172 HD
ATOM     30  H61 UNL     1      61.145   9.208  28.449  1.00  0.00     0.172 HD
ENDBRANCH  27  28
ENDBRANCH  24  27
ENDBRANCH  23  24
ENDBRANCH  20  23
ENDBRANCH  14  16
ENDBRANCH   5  14
BRANCH   1  31
HETATM   31  N1  UNL     1      59.029  10.675  30.695  1.00  0.00    -0.234 N 
ATOM     32  H12 UNL     1      59.910  11.176  30.807  1.00  0.00     0.174 HD
ATOM     33  H11 UNL     1      58.974   9.908  31.366  1.00  0.00     0.174 HD
ENDBRANCH   1  31
BRANCH  13  34
HETATM   34  C13 UNL     1      58.616  13.247  29.266  1.00  0.00     0.319 C 
BRANCH  34  35
HETATM   35  O2  UNL     1      59.447  13.209  30.382  1.00  0.00    -0.361 OA
BRANCH  35  36
HETATM   36  C14 UNL     1      59.242  14.272  31.231  1.00  0.00     0.170 C 
BRANCH  36  37
HETATM   37  C15 UNL     1      60.593  14.812  31.696  1.00  0.00     0.198 C 
BRANCH  37  38
HETATM   38  O3  UNL     1      60.590  16.187  31.641  1.00  0.00    -0.398 OA
ATOM     39  H3  UNL     1      61.323  16.531  32.138  1.00  0.00     0.209 HD
ENDBRANCH  37  38
ENDBRANCH  36  37
BRANCH  36  40
HETATM   40  C16 UNL     1      58.502  13.852  32.498  1.00  0.00     0.198 C 
BRANCH  40  41
HETATM   41  O4  UNL     1      59.040  12.647  32.946  1.00  0.00    -0.398 OA
ATOM     42  H4  UNL     1      58.680  11.943  32.420  1.00  0.00     0.209 HD
ENDBRANCH  40  41
ENDBRANCH  36  40
ENDBRANCH  35  36
ENDBRANCH  34  35
ENDBRANCH  13  34
TORSDOF 16
ENDMDL
MODEL 4
REMARK VINA RESULT: -3.439270341      4.293      7.109
REMARK  16 active torsions:
REMARK  status: ('A' for Active; 'I' for Inactive)
REMARK    1  A    between atoms: N1_1  and  C1_4 
REMARK    2  A    between atoms: C3_8  and  N3_9 
REMARK    3  A    between atoms: N3_9  and  C4_11 
REMARK    4  A    between atoms: C7_14  and  C8_15 
REMARK    5  A    between atoms: N4_17  and  C9_18 
REMARK    6  A    between atoms: C9_18  and  C10_19 
REMARK    7  A    between atoms: C10_19  and  O1_20 
REMARK    8  A    between atoms: C10_19  and  N5_22 
REMARK    9  A    between atoms: N5_22  and  N6_23 
REMARK   10  A    between atoms: N9_33  and  C13_34 
REMARK   11  A    between atoms: C13_34  and  O2_35 
REMARK   12  A    between atoms: O2_35  and  C14_36 
REMARK   13  A    between atoms: C14_36  and  C15_37 
REMARK   14  A    between atoms: C14_36  and  C16_40 
REMARK   15  A    between atoms: C15_37  and  O3_38 
REMARK   16  A    between atoms: C16_40  and  O4_41 
ROOT
HETATM    1  C1  UNL     1      55.354   9.287  30.127  1.00  0.00     0.682 A 
HETATM    2  N2  UNL     1      56.676   9.527  30.353  1.00  0.00    -0.184 N 
ATOM      3  H2  UNL     1      57.262   9.037  31.028  1.00  0.00     0.184 HD
HETATM    4  C2  UNL     1      57.074  10.502  29.552  1.00  0.00     0.138 A 
HETATM    5  C3  UNL     1      58.285  11.126  29.368  1.00  0.00     0.140 A 
HETATM    6  N7  UNL     1      58.304  12.113  28.425  1.00  0.00    -0.317 N 
ATOM      7  H7  UNL     1      59.176  12.612  28.247  1.00  0.00     0.170 HD
HETATM    8  C11 UNL     1      57.209  12.446  27.727  1.00  0.00     0.182 A 
HETATM    9 CL1  UNL     1      57.269  13.729  26.513  1.00  0.00    -0.045 Cl
HETATM   10  N8  UNL     1      56.021  11.841  27.900  1.00  0.00    -0.316 N 
ATOM     11  H8  UNL     1      55.206  12.118  27.353  1.00  0.00     0.170 HD
HETATM   12  C12 UNL     1      55.943  10.862  28.814  1.00  0.00     0.159 A 
HETATM   13  N9  UNL     1      54.892  10.113  29.174  1.00  0.00    -0.144 N 
ENDROOT
BRANCH   5  14
HETATM   14  N3  UNL     1      59.342  10.888  29.961  1.00  0.00    -0.326 N 
ATOM     15  H3  UNL     1      59.639  11.689  30.518  1.00  0.00     0.169 HD
BRANCH  14  16
HETATM   16  C4  UNL     1      60.229   9.846  30.080  1.00  0.00     0.109 A 
HETATM   17  C5  UNL     1      61.036   9.630  31.179  1.00  0.00     0.051 A 
HETATM   18  C6  UNL     1      61.780   8.504  30.914  1.00  0.00     0.031 A 
HETATM   19  C7  UNL     1      61.427   8.022  29.640  1.00  0.00     0.042 A 
HETATM   20  N4  UNL     1      60.489   8.855  29.162  1.00  0.00    -0.331 N 
BRANCH  19  21
HETATM   21  C8  UNL     1      62.047   6.813  29.100  1.00  0.00     0.279 C 
HETATM   22  F1  UNL     1      61.179   5.745  28.996  1.00  0.00    -0.249 F 
ENDBRANCH  19  21
BRANCH  20  23
HETATM   23  C9  UNL     1      59.836   8.719  27.900  1.00  0.00     0.181 C 
BRANCH  23  24
HETATM   24  C10 UNL     1      60.506   9.395  26.742  1.00  0.00     0.248 C 
BRANCH  24  25
HETATM   25  O1  UNL     1      61.704   8.686  26.511  1.00  0.00    -0.376 OA
ATOM     26  H1  UNL     1      62.176   8.684  27.336  1.00  0.00     0.211 HD
ENDBRANCH  24  25
BRANCH  24  27
HETATM   27  N5  UNL     1      60.764  10.783  26.877  1.00  0.00    -0.115 NA
BRANCH  27  28
HETATM   28  N6  UNL     1      62.007  11.159  26.349  1.00  0.00    -0.346 N 
ATOM     29  H62 UNL     1      62.137  11.414  25.370  1.00  0.00     0.172 HD
ATOM     30  H61 UNL     1      62.752  11.147  27.046  1.00  0.00     0.172 HD
ENDBRANCH  27  28
ENDBRANCH  24  27
ENDBRANCH  23  24
ENDBRANCH  20  23
ENDBRANCH  14  16
ENDBRANCH   5  14
BRANCH   1  31
HETATM   31  N1  UNL     1      54.698   8.367  30.786  1.00  0.00    -0.234 N 
ATOM     32  H12 UNL     1      54.642   7.369  30.587  1.00  0.00     0.174 HD
ATOM     33  H11 UNL     1      54.145   8.590  31.615  1.00  0.00     0.174 HD
ENDBRANCH   1  31
BRANCH  13  34
HETATM   34  C13 UNL     1      53.534  10.126  28.693  1.00  0.00     0.319 C 
BRANCH  34  35
HETATM   35  O2  UNL     1      53.341   9.170  27.700  1.00  0.00    -0.361 OA
BRANCH  35  36
HETATM   36  C14 UNL     1      54.180   8.087  27.836  1.00  0.00     0.170 C 
BRANCH  36  37
HETATM   37  C15 UNL     1      55.133   8.036  26.644  1.00  0.00     0.198 C 
BRANCH  37  38
HETATM   38  O3  UNL     1      56.429   7.900  27.088  1.00  0.00    -0.398 OA
ATOM     39  H3  UNL     1      56.710   6.998  26.991  1.00  0.00     0.209 HD
ENDBRANCH  37  38
ENDBRANCH  36  37
BRANCH  36  40
HETATM   40  C16 UNL     1      53.412   6.768  27.814  1.00  0.00     0.198 C 
BRANCH  40  41
HETATM   41  O4  UNL     1      54.254   5.775  27.319  1.00  0.00    -0.398 OA
ATOM     42  H4  UNL     1      54.369   5.114  27.992  1.00  0.00     0.209 HD
ENDBRANCH  40  41
ENDBRANCH  36  40
ENDBRANCH  35  36
ENDBRANCH  34  35
ENDBRANCH  13  34
TORSDOF 16
ENDMDL
MODEL 5
REMARK VINA RESULT: -3.315948704      1.750      2.185
REMARK  16 active torsions:
REMARK  status: ('A' for Active; 'I' for Inactive)
REMARK    1  A    between atoms: N1_1  and  C1_4 
REMARK    2  A    between atoms: C3_8  and  N3_9 
REMARK    3  A    between atoms: N3_9  and  C4_11 
REMARK    4  A    between atoms: C7_14  and  C8_15 
REMARK    5  A    between atoms: N4_17  and  C9_18 
REMARK    6  A    between atoms: C9_18  and  C10_19 
REMARK    7  A    between atoms: C10_19  and  O1_20 
REMARK    8  A    between atoms: C10_19  and  N5_22 
REMARK    9  A    between atoms: N5_22  and  N6_23 
REMARK   10  A    between atoms: N9_33  and  C13_34 
REMARK   11  A    between atoms: C13_34  and  O2_35 
REMARK   12  A    between atoms: O2_35  and  C14_36 
REMARK   13  A    between atoms: C14_36  and  C15_37 
REMARK   14  A    between atoms: C14_36  and  C16_40 
REMARK   15  A    between atoms: C15_37  and  O3_38 
REMARK   16  A    between atoms: C16_40  and  O4_41 
ROOT
HETATM    1  C1  UNL     1      58.151  12.129  29.349  1.00  0.00     0.682 A 
HETATM    2  N2  UNL     1      57.871  11.074  28.534  1.00  0.00    -0.184 N 
ATOM      3  H2  UNL     1      57.156  11.058  27.807  1.00  0.00     0.184 HD
HETATM    4  C2  UNL     1      58.679  10.072  28.842  1.00  0.00     0.138 A 
HETATM    5  C3  UNL     1      58.823   8.800  28.343  1.00  0.00     0.140 A 
HETATM    6  N7  UNL     1      59.790   8.039  28.935  1.00  0.00    -0.317 N 
ATOM      7  H7  UNL     1      59.941   7.085  28.606  1.00  0.00     0.170 HD
HETATM    8  C11 UNL     1      60.547   8.511  29.937  1.00  0.00     0.182 A 
HETATM    9 CL1  UNL     1      61.790   7.499  30.679  1.00  0.00    -0.045 Cl
HETATM   10  N8  UNL     1      60.413   9.753  30.430  1.00  0.00    -0.316 N 
ATOM     11  H8  UNL     1      61.004  10.082  31.193  1.00  0.00     0.170 HD
HETATM   12  C12 UNL     1      59.477  10.546  29.887  1.00  0.00     0.159 A 
HETATM   13  N9  UNL     1      59.147  11.809  30.192  1.00  0.00    -0.144 N 
ENDROOT
BRANCH   5  14
HETATM   14  N3  UNL     1      58.175   8.281  27.428  1.00  0.00    -0.326 N 
ATOM     15  H3  UNL     1      58.633   8.423  26.528  1.00  0.00     0.169 HD
BRANCH  14  16
HETATM   16  C4  UNL     1      57.010   7.568  27.284  1.00  0.00     0.109 A 
HETATM   17  C5  UNL     1      56.914   6.356  26.630  1.00  0.00     0.051 A 
HETATM   18  C6  UNL     1      55.594   5.972  26.693  1.00  0.00     0.031 A 
HETATM   19  C7  UNL     1      54.872   6.957  27.393  1.00  0.00     0.042 A 
HETATM   20  N4  UNL     1      55.756   7.908  27.735  1.00  0.00    -0.331 N 
BRANCH  19  21
HETATM   21  C8  UNL     1      53.438   6.802  27.633  1.00  0.00     0.279 C 
HETATM   22  F1  UNL     1      52.754   7.999  27.690  1.00  0.00    -0.249 F 
ENDBRANCH  19  21
BRANCH  20  23
HETATM   23  C9  UNL     1      55.447   9.085  28.482  1.00  0.00     0.181 C 
BRANCH  23  24
HETATM   24  C10 UNL     1      55.340   8.906  29.966  1.00  0.00     0.248 C 
BRANCH  24  25
HETATM   25  O1  UNL     1      53.980   9.101  30.290  1.00  0.00    -0.376 OA
ATOM     26  H1  UNL     1      53.947   9.867  30.850  1.00  0.00     0.211 HD
ENDBRANCH  24  25
BRANCH  24  27
HETATM   27  N5  UNL     1      56.169   9.729  30.769  1.00  0.00    -0.115 NA
BRANCH  27  28
HETATM   28  N6  UNL     1      56.060   9.441  32.137  1.00  0.00    -0.346 N 
ATOM     29  H62 UNL     1      56.864   9.199  32.716  1.00  0.00     0.172 HD
ATOM     30  H61 UNL     1      55.101   9.501  32.479  1.00  0.00     0.172 HD
ENDBRANCH  27  28
ENDBRANCH  24  27
ENDBRANCH  23  24
ENDBRANCH  20  23
ENDBRANCH  14  16
ENDBRANCH   5  14
BRANCH   1  31
HETATM   31  N1  UNL     1      57.498  13.260  29.263  1.00  0.00    -0.234 N 
ATOM     32  H12 UNL     1      56.841  13.554  28.540  1.00  0.00     0.174 HD
ATOM     33  H11 UNL     1      57.602  13.995  29.962  1.00  0.00     0.174 HD
ENDBRANCH   1  31
BRANCH  13  34
HETATM   34  C13 UNL     1      59.690  12.696  31.188  1.00  0.00     0.319 C 
BRANCH  34  35
HETATM   35  O2  UNL     1      58.685  13.436  31.806  1.00  0.00    -0.361 OA
BRANCH  35  36
HETATM   36  C14 UNL     1      59.178  14.502  32.523  1.00  0.00     0.170 C 
BRANCH  36  37
HETATM   37  C15 UNL     1      58.139  15.620  32.541  1.00  0.00     0.198 C 
BRANCH  37  38
HETATM   38  O3  UNL     1      58.125  16.225  33.777  1.00  0.00    -0.398 OA
ATOM     39  H3  UNL     1      57.396  16.833  33.830  1.00  0.00     0.209 HD
ENDBRANCH  37  38
ENDBRANCH  36  37
BRANCH  36  40
HETATM   40  C16 UNL     1      60.422  15.099  31.870  1.00  0.00     0.198 C 
BRANCH  40  41
HETATM   41  O4  UNL     1      60.271  16.482  31.813  1.00  0.00    -0.398 OA
ATOM     42  H4  UNL     1      60.667  16.795  31.008  1.00  0.00     0.209 HD
ENDBRANCH  40  41
ENDBRANCH  36  40
ENDBRANCH  35  36
ENDBRANCH  34  35
ENDBRANCH  13  34
TORSDOF 16
ENDMDL
