MODEL 1
REMARK VINA RESULT: -3.675427988      0.000      0.000
REMARK  17 active torsions:
REMARK  status: ('A' for Active; 'I' for Inactive)
REMARK    1  A    between atoms: C4_6  and  O2_7 
REMARK    2  A    between atoms: C4_6  and  C5_9 
REMARK    3  A    between atoms: C6_10  and  C7_11 
REMARK    4  A    between atoms: C8_12  and  O3_13 
REMARK    5  A    between atoms: O3_13  and  C9_14 
REMARK    6  A    between atoms: C9_14  and  C10_15 
REMARK    7  A    between atoms: C10_15  and  C11_16 
REMARK    8  A    between atoms: C11_16  and  N1_17 
REMARK    9  A    between atoms: C12_23  and  N3_24 
REMARK   10  A    between atoms: C13_29  and  N5_30 
REMARK   11  A    between atoms: N5_30  and  C14_32 
REMARK   12  A    between atoms: C14_32  and  C15_33 
REMARK   13  A    between atoms: C14_32  and  C16_36 
REMARK   14  A    between atoms: C15_33  and  O4_34 
REMARK   15  A    between atoms: C16_36  and  N6_37 
REMARK   16  A    between atoms: C16_36  and  C17_41 
REMARK   17  A    between atoms: C17_41  and  O5_42 
ROOT
HETATM    1  C7  UNL     1      57.555   9.454  28.617  1.00  0.00     0.113 A 
HETATM    2  C8  UNL     1      56.754  10.584  28.696  1.00  0.00     0.180 A 
HETATM    3  N2  UNL     1      57.125  11.543  29.547  1.00  0.00    -0.169 N 
ATOM      4  H2  UNL     1      56.558  12.388  29.630  1.00  0.00     0.186 HD
HETATM    5  C12 UNL     1      58.244  11.412  30.305  1.00  0.00     0.679 A 
HETATM    6  N4  UNL     1      59.037  10.329  30.248  1.00  0.00    -0.176 N 
ATOM      7  H4  UNL     1      59.872  10.262  30.830  1.00  0.00     0.186 HD
HETATM    8  C13 UNL     1      58.703   9.338  29.406  1.00  0.00     0.140 A 
ENDROOT
BRANCH   8   9
HETATM    9  N5  UNL     1      59.490   8.173  29.267  1.00  0.00    -0.366 N 
ATOM     10  H5  UNL     1      59.156   7.339  29.748  1.00  0.00     0.161 HD
BRANCH   9  11
HETATM   11  C14 UNL     1      60.700   8.040  28.527  1.00  0.00     0.139 C 
BRANCH  11  12
HETATM   12  C15 UNL     1      61.091   9.246  27.708  1.00  0.00     0.191 C 
BRANCH  12  13
HETATM   13  O4  UNL     1      61.634   8.748  26.498  1.00  0.00    -0.399 OA
ATOM     14  H4  UNL     1      61.646   9.478  25.890  1.00  0.00     0.209 HD
ENDBRANCH  12  13
ENDBRANCH  11  12
BRANCH  11  15
HETATM   15  C16 UNL     1      61.842   7.691  29.435  1.00  0.00     0.231 C 
BRANCH  15  16
HETATM   16  N6  UNL     1      61.732   6.302  29.911  1.00  0.00    -0.071 N 
ATOM     17  H63 UNL     1      60.967   6.191  30.576  1.00  0.00     0.274 HD
ATOM     18  H62 UNL     1      61.390   5.680  29.178  1.00  0.00     0.274 HD
ATOM     19  H61 UNL     1      62.618   5.977  30.297  1.00  0.00     0.274 HD
ENDBRANCH  15  16
BRANCH  15  20
HETATM   20  C17 UNL     1      61.875   8.571  30.652  1.00  0.00     0.199 C 
BRANCH  20  21
HETATM   21  O5  UNL     1      60.988   8.111  31.639  1.00  0.00    -0.399 OA
ATOM     22  H5  UNL     1      61.110   8.577  32.458  1.00  0.00     0.209 HD
ENDBRANCH  20  21
ENDBRANCH  15  20
ENDBRANCH  11  15
ENDBRANCH   9  11
ENDBRANCH   8   9
BRANCH   1  23
HETATM   23  C6  UNL     1      57.198   8.396  27.717  1.00  0.00    -0.053 C 
HETATM   24  C5  UNL     1      56.906   7.511  26.943  1.00  0.00    -0.030 C 
BRANCH  24  25
HETATM   25  C4  UNL     1      56.554   6.449  25.980  1.00  0.00     0.256 C 
HETATM   26  C3  UNL     1      57.692   5.465  26.002  1.00  0.00     0.256 C 
HETATM   27  O1  UNL     1      57.103   4.235  26.113  1.00  0.00    -0.336 OA
HETATM   28  C2  UNL     1      55.749   4.384  26.242  1.00  0.00     0.246 C 
HETATM   29  C1  UNL     1      54.953   3.796  25.121  1.00  0.00     0.099 C 
HETATM   30 CL1  UNL     1      55.263   3.528  27.747  1.00  0.00    -0.057 Cl
HETATM   31  O6  UNL     1      55.457   5.723  26.384  1.00  0.00    -0.292 OA
BRANCH  25  32
HETATM   32  O2  UNL     1      56.397   6.960  24.695  1.00  0.00    -0.354 OA
ATOM     33  H2  UNL     1      55.545   6.715  24.353  1.00  0.00     0.214 HD
ENDBRANCH  25  32
ENDBRANCH  24  25
ENDBRANCH   1  23
BRANCH   2  34
HETATM   34  O3  UNL     1      55.641  10.624  27.890  1.00  0.00    -0.334 OA
BRANCH  34  35
HETATM   35  C9  UNL     1      54.311  10.467  28.253  1.00  0.00     0.179 C 
BRANCH  35  36
HETATM   36  C10 UNL     1      54.155   9.297  29.182  1.00  0.00     0.054 C 
BRANCH  36  37
HETATM   37  C11 UNL     1      53.766   8.105  28.325  1.00  0.00     0.231 C 
BRANCH  37  38
HETATM   38  N1  UNL     1      53.683   8.417  26.932  1.00  0.00    -0.079 N 
ATOM     39  H13 UNL     1      53.626   9.424  26.789  1.00  0.00     0.274 HD
ATOM     40  H12 UNL     1      54.570   8.231  26.466  1.00  0.00     0.274 HD
ATOM     41  H11 UNL     1      52.916   7.938  26.458  1.00  0.00     0.274 HD
ENDBRANCH  37  38
ENDBRANCH  36  37
ENDBRANCH  35  36
ENDBRANCH  34  35
ENDBRANCH   2  34
BRANCH   5  42
HETATM   42  N3  UNL     1      58.573  12.376  31.129  1.00  0.00    -0.234 N 
ATOM     43  H32 UNL     1      58.088  12.429  32.025  1.00  0.00     0.174 HD
ATOM     44  H31 UNL     1      59.298  13.039  30.854  1.00  0.00     0.174 HD
ENDBRANCH   5  42
TORSDOF 17
ENDMDL
MODEL 2
REMARK VINA RESULT: -3.431955305      1.594      2.007
REMARK  17 active torsions:
REMARK  status: ('A' for Active; 'I' for Inactive)
REMARK    1  A    between atoms: C4_6  and  O2_7 
REMARK    2  A    between atoms: C4_6  and  C5_9 
REMARK    3  A    between atoms: C6_10  and  C7_11 
REMARK    4  A    between atoms: C8_12  and  O3_13 
REMARK    5  A    between atoms: O3_13  and  C9_14 
REMARK    6  A    between atoms: C9_14  and  C10_15 
REMARK    7  A    between atoms: C10_15  and  C11_16 
REMARK    8  A    between atoms: C11_16  and  N1_17 
REMARK    9  A    between atoms: C12_23  and  N3_24 
REMARK   10  A    between atoms: C13_29  and  N5_30 
REMARK   11  A    between atoms: N5_30  and  C14_32 
REMARK   12  A    between atoms: C14_32  and  C15_33 
REMARK   13  A    between atoms: C14_32  and  C16_36 
REMARK   14  A    between atoms: C15_33  and  O4_34 
REMARK   15  A    between atoms: C16_36  and  N6_37 
REMARK   16  A    between atoms: C16_36  and  C17_41 
REMARK   17  A    between atoms: C17_41  and  O5_42 
ROOT
HETATM    1  C7  UNL     1      57.248   9.794  29.033  1.00  0.00     0.113 A 
HETATM    2  C8  UNL     1      56.568  10.994  29.180  1.00  0.00     0.180 A 
HETATM    3  N2  UNL     1      57.190  11.978  29.834  1.00  0.00    -0.169 N 
ATOM      4  H2  UNL     1      56.718  12.874  29.961  1.00  0.00     0.186 HD
HETATM    5  C12 UNL     1      58.440  11.805  30.334  1.00  0.00     0.679 A 
HETATM    6  N4  UNL     1      59.121  10.654  30.206  1.00  0.00    -0.176 N 
ATOM      7  H4  UNL     1      60.060  10.556  30.592  1.00  0.00     0.186 HD
HETATM    8  C13 UNL     1      58.535   9.636  29.556  1.00  0.00     0.140 A 
ENDROOT
BRANCH   8   9
HETATM    9  N5  UNL     1      59.185   8.398  29.356  1.00  0.00    -0.366 N 
ATOM     10  H5  UNL     1      58.827   7.605  29.888  1.00  0.00     0.161 HD
BRANCH   9  11
HETATM   11  C14 UNL     1      60.289   8.139  28.493  1.00  0.00     0.139 C 
BRANCH  11  12
HETATM   12  C15 UNL     1      60.575   9.214  27.472  1.00  0.00     0.191 C 
BRANCH  12  13
HETATM   13  O4  UNL     1      61.654   8.741  26.687  1.00  0.00    -0.399 OA
ATOM     14  H4  UNL     1      62.378   9.336  26.840  1.00  0.00     0.209 HD
ENDBRANCH  12  13
ENDBRANCH  11  12
BRANCH  11  15
HETATM   15  C16 UNL     1      61.538   7.892  29.287  1.00  0.00     0.231 C 
BRANCH  15  16
HETATM   16  N6  UNL     1      61.974   6.491  29.160  1.00  0.00    -0.071 N 
ATOM     17  H63 UNL     1      61.511   6.021  28.382  1.00  0.00     0.274 HD
ATOM     18  H62 UNL     1      62.936   6.426  28.828  1.00  0.00     0.274 HD
ATOM     19  H61 UNL     1      61.843   5.988  30.037  1.00  0.00     0.274 HD
ENDBRANCH  15  16
BRANCH  15  20
HETATM   20  C17 UNL     1      61.329   8.157  30.751  1.00  0.00     0.199 C 
BRANCH  20  21
HETATM   21  O5  UNL     1      61.657   9.483  31.082  1.00  0.00    -0.399 OA
ATOM     22  H5  UNL     1      61.191   9.770  31.858  1.00  0.00     0.209 HD
ENDBRANCH  20  21
ENDBRANCH  15  20
ENDBRANCH  11  15
ENDBRANCH   9  11
ENDBRANCH   8   9
BRANCH   1  23
HETATM   23  C6  UNL     1      56.622   8.707  28.338  1.00  0.00    -0.053 C 
HETATM   24  C5  UNL     1      56.083   7.801  27.741  1.00  0.00    -0.030 C 
BRANCH  24  25
HETATM   25  C4  UNL     1      55.408   6.713  27.007  1.00  0.00     0.256 C 
HETATM   26  C3  UNL     1      55.722   6.927  25.551  1.00  0.00     0.256 C 
HETATM   27  O1  UNL     1      56.118   5.704  25.084  1.00  0.00    -0.336 OA
HETATM   28  C2  UNL     1      56.153   4.807  26.116  1.00  0.00     0.246 C 
HETATM   29  C1  UNL     1      55.187   3.672  25.983  1.00  0.00     0.099 C 
HETATM   30 CL1  UNL     1      57.805   4.099  26.148  1.00  0.00    -0.057 Cl
HETATM   31  O6  UNL     1      55.939   5.479  27.300  1.00  0.00    -0.292 OA
BRANCH  25  32
HETATM   32  O2  UNL     1      54.030   6.748  27.201  1.00  0.00    -0.354 OA
ATOM     33  H2  UNL     1      53.838   6.933  28.114  1.00  0.00     0.214 HD
ENDBRANCH  25  32
ENDBRANCH  24  25
ENDBRANCH   1  23
BRANCH   2  34
HETATM   34  O3  UNL     1      55.306  11.073  28.640  1.00  0.00    -0.334 OA
BRANCH  34  35
HETATM   35  C9  UNL     1      54.950  11.334  27.324  1.00  0.00     0.179 C 
BRANCH  35  36
HETATM   36  C10 UNL     1      55.420  12.701  26.915  1.00  0.00     0.054 C 
BRANCH  36  37
HETATM   37  C11 UNL     1      54.853  12.962  25.530  1.00  0.00     0.231 C 
BRANCH  37  38
HETATM   38  N1  UNL     1      53.430  12.847  25.473  1.00  0.00    -0.079 N 
ATOM     39  H13 UNL     1      53.079  12.300  26.258  1.00  0.00     0.274 HD
ATOM     40  H12 UNL     1      52.985  13.741  25.679  1.00  0.00     0.274 HD
ATOM     41  H11 UNL     1      53.092  12.470  24.587  1.00  0.00     0.274 HD
ENDBRANCH  37  38
ENDBRANCH  36  37
ENDBRANCH  35  36
ENDBRANCH  34  35
ENDBRANCH   2  34
BRANCH   5  42
HETATM   42  N3  UNL     1      59.016  12.795  30.971  1.00  0.00    -0.234 N 
ATOM     43  H32 UNL     1      58.419  13.505  31.397  1.00  0.00     0.174 HD
ATOM     44  H31 UNL     1      60.034  12.828  31.022  1.00  0.00     0.174 HD
ENDBRANCH   5  42
TORSDOF 17
ENDMDL
MODEL 3
REMARK VINA RESULT: -3.155449552      1.244      1.581
REMARK  17 active torsions:
REMARK  status: ('A' for Active; 'I' for Inactive)
REMARK    1  A    between atoms: C4_6  and  O2_7 
REMARK    2  A    between atoms: C4_6  and  C5_9 
REMARK    3  A    between atoms: C6_10  and  C7_11 
REMARK    4  A    between atoms: C8_12  and  O3_13 
REMARK    5  A    between atoms: O3_13  and  C9_14 
REMARK    6  A    between atoms: C9_14  and  C10_15 
REMARK    7  A    between atoms: C10_15  and  C11_16 
REMARK    8  A    between atoms: C11_16  and  N1_17 
REMARK    9  A    between atoms: C12_23  and  N3_24 
REMARK   10  A    between atoms: C13_29  and  N5_30 
REMARK   11  A    between atoms: N5_30  and  C14_32 
REMARK   12  A    between atoms: C14_32  and  C15_33 
REMARK   13  A    between atoms: C14_32  and  C16_36 
REMARK   14  A    between atoms: C15_33  and  O4_34 
REMARK   15  A    between atoms: C16_36  and  N6_37 
REMARK   16  A    between atoms: C16_36  and  C17_41 
REMARK   17  A    between atoms: C17_41  and  O5_42 
ROOT
HETATM    1  C7  UNL     1      57.404   9.357  28.559  1.00  0.00     0.113 A 
HETATM    2  C8  UNL     1      56.584  10.473  28.644  1.00  0.00     0.180 A 
HETATM    3  N2  UNL     1      56.949  11.443  29.487  1.00  0.00    -0.169 N 
ATOM      4  H2  UNL     1      56.368  12.277  29.573  1.00  0.00     0.186 HD
HETATM    5  C12 UNL     1      58.079  11.335  30.230  1.00  0.00     0.679 A 
HETATM    6  N4  UNL     1      58.891  10.266  30.168  1.00  0.00    -0.176 N 
ATOM      7  H4  UNL     1      59.734  10.216  30.739  1.00  0.00     0.186 HD
HETATM    8  C13 UNL     1      58.564   9.266  29.334  1.00  0.00     0.140 A 
ENDROOT
BRANCH   8   9
HETATM    9  N5  UNL     1      59.370   8.114  29.190  1.00  0.00    -0.366 N 
ATOM     10  H5  UNL     1      59.041   7.269  29.656  1.00  0.00     0.161 HD
BRANCH   9  11
HETATM   11  C14 UNL     1      60.591   8.009  28.464  1.00  0.00     0.139 C 
BRANCH  11  12
HETATM   12  C15 UNL     1      60.946   9.210  27.622  1.00  0.00     0.191 C 
BRANCH  12  13
HETATM   13  O4  UNL     1      61.691   8.719  26.522  1.00  0.00    -0.399 OA
ATOM     14  H4  UNL     1      61.566   9.341  25.815  1.00  0.00     0.209 HD
ENDBRANCH  12  13
ENDBRANCH  11  12
BRANCH  11  15
HETATM   15  C16 UNL     1      61.736   7.723  29.391  1.00  0.00     0.231 C 
BRANCH  15  16
HETATM   16  N6  UNL     1      61.656   6.350  29.918  1.00  0.00    -0.071 N 
ATOM     17  H63 UNL     1      60.994   5.781  29.391  1.00  0.00     0.274 HD
ATOM     18  H62 UNL     1      62.505   5.821  29.720  1.00  0.00     0.274 HD
ATOM     19  H61 UNL     1      61.440   6.354  30.915  1.00  0.00     0.274 HD
ENDBRANCH  15  16
BRANCH  15  20
HETATM   20  C17 UNL     1      61.741   8.649  30.574  1.00  0.00     0.199 C 
BRANCH  20  21
HETATM   21  O5  UNL     1      60.937   8.152  31.614  1.00  0.00    -0.399 OA
ATOM     22  H5  UNL     1      61.061   8.650  32.413  1.00  0.00     0.209 HD
ENDBRANCH  20  21
ENDBRANCH  15  20
ENDBRANCH  11  15
ENDBRANCH   9  11
ENDBRANCH   8   9
BRANCH   1  23
HETATM   23  C6  UNL     1      57.055   8.289  27.668  1.00  0.00    -0.053 C 
HETATM   24  C5  UNL     1      56.772   7.395  26.903  1.00  0.00    -0.030 C 
BRANCH  24  25
HETATM   25  C4  UNL     1      56.434   6.319  25.950  1.00  0.00     0.256 C 
HETATM   26  C3  UNL     1      57.611   5.381  25.938  1.00  0.00     0.256 C 
HETATM   27  O1  UNL     1      57.074   4.128  26.066  1.00  0.00    -0.336 OA
HETATM   28  C2  UNL     1      55.720   4.223  26.234  1.00  0.00     0.246 C 
HETATM   29  C1  UNL     1      54.915   3.603  25.136  1.00  0.00     0.099 C 
HETATM   30 CL1  UNL     1      55.312   3.350  27.751  1.00  0.00    -0.057 Cl
HETATM   31  O6  UNL     1      55.380   5.550  26.385  1.00  0.00    -0.292 OA
BRANCH  25  32
HETATM   32  O2  UNL     1      56.220   6.822  24.670  1.00  0.00    -0.354 OA
ATOM     33  H2  UNL     1      55.496   7.437  24.683  1.00  0.00     0.214 HD
ENDBRANCH  25  32
ENDBRANCH  24  25
ENDBRANCH   1  23
BRANCH   2  34
HETATM   34  O3  UNL     1      55.461  10.490  27.851  1.00  0.00    -0.334 OA
BRANCH  34  35
HETATM   35  C9  UNL     1      54.666  11.576  27.511  1.00  0.00     0.179 C 
BRANCH  35  36
HETATM   36  C10 UNL     1      55.481  12.626  26.812  1.00  0.00     0.054 C 
BRANCH  36  37
HETATM   37  C11 UNL     1      54.808  12.885  25.476  1.00  0.00     0.231 C 
BRANCH  37  38
HETATM   38  N1  UNL     1      53.381  12.868  25.551  1.00  0.00    -0.079 N 
ATOM     39  H13 UNL     1      52.983  12.347  24.770  1.00  0.00     0.274 HD
ATOM     40  H12 UNL     1      53.066  12.280  26.323  1.00  0.00     0.274 HD
ATOM     41  H11 UNL     1      52.970  13.799  25.614  1.00  0.00     0.274 HD
ENDBRANCH  37  38
ENDBRANCH  36  37
ENDBRANCH  35  36
ENDBRANCH  34  35
ENDBRANCH   2  34
BRANCH   5  42
HETATM   42  N3  UNL     1      58.402  12.308  31.047  1.00  0.00    -0.234 N 
ATOM     43  H32 UNL     1      59.086  12.995  30.730  1.00  0.00     0.174 HD
ATOM     44  H31 UNL     1      57.963  12.350  31.967  1.00  0.00     0.174 HD
ENDBRANCH   5  42
TORSDOF 17
ENDMDL
MODEL 4
REMARK VINA RESULT: -3.018605016      2.584      5.844
REMARK  17 active torsions:
REMARK  status: ('A' for Active; 'I' for Inactive)
REMARK    1  A    between atoms: C4_6  and  O2_7 
REMARK    2  A    between atoms: C4_6  and  C5_9 
REMARK    3  A    between atoms: C6_10  and  C7_11 
REMARK    4  A    between atoms: C8_12  and  O3_13 
REMARK    5  A    between atoms: O3_13  and  C9_14 
REMARK    6  A    between atoms: C9_14  and  C10_15 
REMARK    7  A    between atoms: C10_15  and  C11_16 
REMARK    8  A    between atoms: C11_16  and  N1_17 
REMARK    9  A    between atoms: C12_23  and  N3_24 
REMARK   10  A    between atoms: C13_29  and  N5_30 
REMARK   11  A    between atoms: N5_30  and  C14_32 
REMARK   12  A    between atoms: C14_32  and  C15_33 
REMARK   13  A    between atoms: C14_32  and  C16_36 
REMARK   14  A    between atoms: C15_33  and  O4_34 
REMARK   15  A    between atoms: C16_36  and  N6_37 
REMARK   16  A    between atoms: C16_36  and  C17_41 
REMARK   17  A    between atoms: C17_41  and  O5_42 
ROOT
HETATM    1  C7  UNL     1      55.861   8.463  27.974  1.00  0.00     0.113 A 
HETATM    2  C8  UNL     1      55.349   7.253  27.531  1.00  0.00     0.180 A 
HETATM    3  N2  UNL     1      54.022   7.130  27.471  1.00  0.00    -0.169 N 
ATOM      4  H2  UNL     1      53.613   6.252  27.149  1.00  0.00     0.186 HD
HETATM    5  C12 UNL     1      53.207   8.154  27.832  1.00  0.00     0.679 A 
HETATM    6  N4  UNL     1      53.674   9.337  28.264  1.00  0.00    -0.176 N 
ATOM      7  H4  UNL     1      53.036  10.087  28.527  1.00  0.00     0.186 HD
HETATM    8  C13 UNL     1      55.004   9.506  28.342  1.00  0.00     0.140 A 
ENDROOT
BRANCH   8   9
HETATM    9  N5  UNL     1      55.583  10.723  28.766  1.00  0.00    -0.366 N 
ATOM     10  H5  UNL     1      55.441  10.977  29.743  1.00  0.00     0.161 HD
BRANCH   9  11
HETATM   11  C14 UNL     1      56.343  11.632  27.975  1.00  0.00     0.139 C 
BRANCH  11  12
HETATM   12  C15 UNL     1      55.536  12.663  27.224  1.00  0.00     0.191 C 
BRANCH  12  13
HETATM   13  O4  UNL     1      56.425  13.272  26.305  1.00  0.00    -0.399 OA
ATOM     14  H4  UNL     1      56.351  12.781  25.495  1.00  0.00     0.209 HD
ENDBRANCH  12  13
ENDBRANCH  11  12
BRANCH  11  15
HETATM   15  C16 UNL     1      57.360  12.345  28.816  1.00  0.00     0.231 C 
BRANCH  15  16
HETATM   16  N6  UNL     1      58.590  12.605  28.048  1.00  0.00    -0.071 N 
ATOM     17  H63 UNL     1      58.698  11.947  27.276  1.00  0.00     0.274 HD
ATOM     18  H62 UNL     1      58.521  13.467  27.508  1.00  0.00     0.274 HD
ATOM     19  H61 UNL     1      59.407  12.607  28.658  1.00  0.00     0.274 HD
ENDBRANCH  15  16
BRANCH  15  20
HETATM   20  C17 UNL     1      57.756  11.535  30.019  1.00  0.00     0.199 C 
BRANCH  20  21
HETATM   21  O5  UNL     1      58.536  12.291  30.909  1.00  0.00    -0.399 OA
ATOM     22  H5  UNL     1      58.806  11.772  31.658  1.00  0.00     0.209 HD
ENDBRANCH  20  21
ENDBRANCH  15  20
ENDBRANCH  11  15
ENDBRANCH   9  11
ENDBRANCH   8   9
BRANCH   1  23
HETATM   23  C6  UNL     1      57.281   8.645  28.056  1.00  0.00    -0.053 C 
HETATM   24  C5  UNL     1      58.480   8.790  28.143  1.00  0.00    -0.030 C 
BRANCH  24  25
HETATM   25  C4  UNL     1      59.940   8.964  28.273  1.00  0.00     0.256 C 
HETATM   26  C3  UNL     1      60.205   9.224  29.732  1.00  0.00     0.256 C 
HETATM   27  O1  UNL     1      61.239   8.391  30.064  1.00  0.00    -0.336 OA
HETATM   28  C2  UNL     1      61.562   7.608  28.989  1.00  0.00     0.246 C 
HETATM   29  C1  UNL     1      62.943   7.827  28.458  1.00  0.00     0.099 C 
HETATM   30 CL1  UNL     1      61.465   5.897  29.532  1.00  0.00    -0.057 Cl
HETATM   31  O6  UNL     1      60.630   7.807  27.994  1.00  0.00    -0.292 OA
BRANCH  25  32
HETATM   32  O2  UNL     1      60.393  10.039  27.514  1.00  0.00    -0.354 OA
ATOM     33  H2  UNL     1      59.686  10.372  26.974  1.00  0.00     0.214 HD
ENDBRANCH  25  32
ENDBRANCH  24  25
ENDBRANCH   1  23
BRANCH   2  34
HETATM   34  O3  UNL     1      56.254   6.276  27.188  1.00  0.00    -0.334 OA
BRANCH  34  35
HETATM   35  C9  UNL     1      56.709   5.931  25.923  1.00  0.00     0.179 C 
BRANCH  35  36
HETATM   36  C10 UNL     1      56.936   4.449  25.833  1.00  0.00     0.054 C 
BRANCH  36  37
HETATM   37  C11 UNL     1      55.601   3.822  25.472  1.00  0.00     0.231 C 
BRANCH  37  38
HETATM   38  N1  UNL     1      54.690   3.767  26.572  1.00  0.00    -0.079 N 
ATOM     39  H13 UNL     1      54.723   2.854  27.025  1.00  0.00     0.274 HD
ATOM     40  H12 UNL     1      55.016   4.350  27.342  1.00  0.00     0.274 HD
ATOM     41  H11 UNL     1      53.733   4.009  26.314  1.00  0.00     0.274 HD
ENDBRANCH  37  38
ENDBRANCH  36  37
ENDBRANCH  35  36
ENDBRANCH  34  35
ENDBRANCH   2  34
BRANCH   5  42
HETATM   42  N3  UNL     1      51.908   7.993  27.759  1.00  0.00    -0.234 N 
ATOM     43  H32 UNL     1      51.552   7.085  27.458  1.00  0.00     0.174 HD
ATOM     44  H31 UNL     1      51.297   8.772  28.003  1.00  0.00     0.174 HD
ENDBRANCH   5  42
TORSDOF 17
ENDMDL
MODEL 5
REMARK VINA RESULT: -2.992012921      2.086      2.609
REMARK  17 active torsions:
REMARK  status: ('A' for Active; 'I' for Inactive)
REMARK    1  A    between atoms: C4_6  and  O2_7 
REMARK    2  A    between atoms: C4_6  and  C5_9 
REMARK    3  A    between atoms: C6_10  and  C7_11 
REMARK    4  A    between atoms: C8_12  and  O3_13 
REMARK    5  A    between atoms: O3_13  and  C9_14 
REMARK    6  A    between atoms: C9_14  and  C10_15 
REMARK    7  A    between atoms: C10_15  and  C11_16 
REMARK    8  A    between atoms: C11_16  and  N1_17 
REMARK    9  A    between atoms: C12_23  and  N3_24 
REMARK   10  A    between atoms: C13_29  and  N5_30 
REMARK   11  A    between atoms: N5_30  and  C14_32 
REMARK   12  A    between atoms: C14_32  and  C15_33 
REMARK   13  A    between atoms: C14_32  and  C16_36 
REMARK   14  A    between atoms: C15_33  and  O4_34 
REMARK   15  A    between atoms: C16_36  and  N6_37 
REMARK   16  A    between atoms: C16_36  and  C17_41 
REMARK   17  A    between atoms: C17_41  and  O5_42 
ROOT
HETATM    1  C7  UNL     1      57.250  10.357  29.056  1.00  0.00     0.113 A 
HETATM    2  C8  UNL     1      56.932  11.662  28.710  1.00  0.00     0.180 A 
HETATM    3  N2  UNL     1      57.558  12.643  29.365  1.00  0.00    -0.169 N 
ATOM      4  H2  UNL     1      57.347  13.614  29.134  1.00  0.00     0.186 HD
HETATM    5  C12 UNL     1      58.470  12.368  30.332  1.00  0.00     0.679 A 
HETATM    6  N4  UNL     1      58.797  11.114  30.687  1.00  0.00    -0.176 N 
ATOM      7  H4  UNL     1      59.487  10.940  31.418  1.00  0.00     0.186 HD
HETATM    8  C13 UNL     1      58.192  10.095  30.056  1.00  0.00     0.140 A 
ENDROOT
BRANCH   8   9
HETATM    9  N5  UNL     1      58.489   8.746  30.351  1.00  0.00    -0.366 N 
ATOM     10  H5  UNL     1      57.769   8.219  30.845  1.00  0.00     0.161 HD
BRANCH   9  11
HETATM   11  C14 UNL     1      59.687   8.043  30.033  1.00  0.00     0.139 C 
BRANCH  11  12
HETATM   12  C15 UNL     1      59.594   7.115  28.847  1.00  0.00     0.191 C 
BRANCH  12  13
HETATM   13  O4  UNL     1      60.649   6.181  28.988  1.00  0.00    -0.399 OA
ATOM     14  H4  UNL     1      60.891   5.915  28.108  1.00  0.00     0.209 HD
ENDBRANCH  12  13
ENDBRANCH  11  12
BRANCH  11  15
HETATM   15  C16 UNL     1      60.818   9.001  29.801  1.00  0.00     0.231 C 
BRANCH  15  16
HETATM   16  N6  UNL     1      61.533   8.678  28.554  1.00  0.00    -0.071 N 
ATOM     17  H63 UNL     1      61.191   7.812  28.136  1.00  0.00     0.274 HD
ATOM     18  H62 UNL     1      61.286   9.320  27.801  1.00  0.00     0.274 HD
ATOM     19  H61 UNL     1      62.541   8.649  28.708  1.00  0.00     0.274 HD
ENDBRANCH  15  16
BRANCH  15  20
HETATM   20  C17 UNL     1      61.828   8.951  30.912  1.00  0.00     0.199 C 
BRANCH  20  21
HETATM   21  O5  UNL     1      61.323   8.267  32.030  1.00  0.00    -0.399 OA
ATOM     22  H5  UNL     1      60.907   8.864  32.641  1.00  0.00     0.209 HD
ENDBRANCH  20  21
ENDBRANCH  15  20
ENDBRANCH  11  15
ENDBRANCH   9  11
ENDBRANCH   8   9
BRANCH   1  23
HETATM   23  C6  UNL     1      56.604   9.269  28.382  1.00  0.00    -0.053 C 
HETATM   24  C5  UNL     1      56.053   8.361  27.799  1.00  0.00    -0.030 C 
BRANCH  24  25
HETATM   25  C4  UNL     1      55.367   7.272  27.075  1.00  0.00     0.256 C 
HETATM   26  C3  UNL     1      55.854   7.339  25.653  1.00  0.00     0.256 C 
HETATM   27  O1  UNL     1      56.189   6.053  25.326  1.00  0.00    -0.336 OA
HETATM   28  C2  UNL     1      56.034   5.245  26.419  1.00  0.00     0.246 C 
HETATM   29  C1  UNL     1      54.992   4.184  26.261  1.00  0.00     0.099 C 
HETATM   30 CL1  UNL     1      57.604   4.414  26.691  1.00  0.00    -0.057 Cl
HETATM   31  O6  UNL     1      55.754   6.029  27.518  1.00  0.00    -0.292 OA
BRANCH  25  32
HETATM   32  O2  UNL     1      53.985   7.432  27.108  1.00  0.00    -0.354 OA
ATOM     33  H2  UNL     1      53.745   8.249  26.686  1.00  0.00     0.214 HD
ENDBRANCH  25  32
ENDBRANCH  24  25
ENDBRANCH   1  23
BRANCH   2  34
HETATM   34  O3  UNL     1      55.996  11.839  27.719  1.00  0.00    -0.334 OA
BRANCH  34  35
HETATM   35  C9  UNL     1      55.866  12.907  26.841  1.00  0.00     0.179 C 
BRANCH  35  36
HETATM   36  C10 UNL     1      54.636  12.743  25.994  1.00  0.00     0.054 C 
BRANCH  36  37
HETATM   37  C11 UNL     1      54.985  13.260  24.610  1.00  0.00     0.231 C 
BRANCH  37  38
HETATM   38  N1  UNL     1      56.378  13.536  24.447  1.00  0.00    -0.079 N 
ATOM     39  H13 UNL     1      56.715  14.153  25.186  1.00  0.00     0.274 HD
ATOM     40  H12 UNL     1      56.938  12.709  24.651  1.00  0.00     0.274 HD
ATOM     41  H11 UNL     1      56.609  13.912  23.527  1.00  0.00     0.274 HD
ENDBRANCH  37  38
ENDBRANCH  36  37
ENDBRANCH  35  36
ENDBRANCH  34  35
ENDBRANCH   2  34
BRANCH   5  42
HETATM   42  N3  UNL     1      59.062  13.359  30.952  1.00  0.00    -0.234 N 
ATOM     43  H32 UNL     1      58.935  14.301  30.582  1.00  0.00     0.174 HD
ATOM     44  H31 UNL     1      59.627  13.162  31.778  1.00  0.00     0.174 HD
ENDBRANCH   5  42
TORSDOF 17
ENDMDL
