MODEL 1
REMARK VINA RESULT: -4.431767466      0.000      0.000
REMARK  14 active torsions:
REMARK  status: ('A' for Active; 'I' for Inactive)
REMARK    1  A    between atoms: C2_3  and  N2_4 
REMARK    2  A    between atoms: N2_4  and  C3_5 
REMARK    3  A    between atoms: N2_4  and  C5_9 
REMARK    4  A    between atoms: C3_5  and  C4_6 
REMARK    5  A    between atoms: C4_6  and  O1_7 
REMARK    6  A    between atoms: C6_12  and  N4_13 
REMARK    7  A    between atoms: C8_22  and  C9_23 
REMARK    8  A    between atoms: C11_28  and  C12_29 
REMARK    9  A    between atoms: C12_29  and  N9_33 
REMARK   10  A    between atoms: N9_33  and  C13_35 
REMARK   11  A    between atoms: C13_35  and  C14_36 
REMARK   12  A    between atoms: C14_36  and  C15_38 
REMARK   13  A    between atoms: C15_38  and  O2_39 
REMARK   14  A    between atoms: C15_38  and  O3_41 
ROOT
HETATM    1  N1  UNL     1      52.509   7.226  28.059  1.00  0.00    -0.196 NA
HETATM    2  C1  UNL     1      53.522   7.785  27.920  1.00  0.00     0.079 C 
HETATM    3  C2  UNL     1      54.804   8.451  27.748  1.00  0.00     0.248 C 
ENDROOT
BRANCH   3   4
HETATM    4  N2  UNL     1      55.011   9.598  28.595  1.00  0.00    -0.351 N 
BRANCH   4   5
HETATM    5  C3  UNL     1      54.839   9.513  30.001  1.00  0.00     0.151 C 
BRANCH   5   6
HETATM    6  C4  UNL     1      55.851   8.753  30.784  1.00  0.00     0.183 C 
BRANCH   6   7
HETATM    7  O1  UNL     1      56.089   9.533  31.950  1.00  0.00    -0.399 OA
ATOM      8  H1  UNL     1      56.976   9.324  32.216  1.00  0.00     0.209 HD
ENDBRANCH   6   7
ENDBRANCH   5   6
ENDBRANCH   4   5
BRANCH   4   9
HETATM    9  C5  UNL     1      55.306  10.830  27.959  1.00  0.00     0.138 A 
HETATM   10  N3  UNL     1      54.343  11.253  27.055  1.00  0.00    -0.176 N 
HETATM   11  C6  UNL     1      54.455  12.377  26.357  1.00  0.00     0.679 A 
ATOM     12  H3  UNL     1      53.513  10.676  26.920  1.00  0.00     0.186 HD
HETATM   13  N5  UNL     1      55.546  13.157  26.520  1.00  0.00    -0.176 N 
HETATM   14  C7  UNL     1      56.522  12.831  27.366  1.00  0.00     0.132 A 
ATOM     15  H5  UNL     1      55.624  14.019  25.980  1.00  0.00     0.186 HD
HETATM   16  N6  UNL     1      57.579  13.564  27.534  1.00  0.00    -0.384 N 
HETATM   17  C8  UNL     1      56.365  11.632  28.086  1.00  0.00     0.098 A 
ATOM     18  H62 UNL     1      57.692  14.433  27.013  1.00  0.00     0.157 HD
ATOM     19  H61 UNL     1      58.325  13.315  28.183  1.00  0.00     0.157 HD
BRANCH  11  20
HETATM   20  N4  UNL     1      53.513  12.720  25.517  1.00  0.00    -0.234 N 
ATOM     21  H42 UNL     1      52.626  12.217  25.499  1.00  0.00     0.174 HD
ATOM     22  H41 UNL     1      53.662  13.498  24.874  1.00  0.00     0.174 HD
ENDBRANCH  11  20
BRANCH  17  23
HETATM   23  C9  UNL     1      57.459  11.337  29.002  1.00  0.00     0.141 A 
HETATM   24  N7  UNL     1      57.951  12.039  30.008  1.00  0.00    -0.329 N 
HETATM   25  C10 UNL     1      59.011  11.391  30.549  1.00  0.00     0.137 A 
ATOM     26  H7  UNL     1      57.587  12.936  30.329  1.00  0.00     0.168 HD
HETATM   27 CL1  UNL     1      59.933  12.010  31.908  1.00  0.00    -0.062 Cl
HETATM   28  C11 UNL     1      59.197  10.207  29.840  1.00  0.00     0.133 A 
HETATM   29  N10 UNL     1      58.234  10.213  28.909  1.00  0.00    -0.226 N 
HETATM   30  C16 UNL     1      58.026   9.194  27.950  1.00  0.00     0.191 C 
HETATM   31  N11 UNL     1      57.823   8.367  27.142  1.00  0.00    -0.171 NA
BRANCH  28  32
HETATM   32  C12 UNL     1      60.237   9.205  30.087  1.00  0.00     0.126 C 
HETATM   33  N8  UNL     1      60.195   8.365  31.017  1.00  0.00    -0.384 N 
ATOM     34  H82 UNL     1      59.382   8.360  31.634  1.00  0.00     0.157 HD
ATOM     35  H81 UNL     1      60.918   7.668  31.189  1.00  0.00     0.157 HD
BRANCH  32  36
HETATM   36  N9  UNL     1      61.388   9.213  29.215  1.00  0.00    -0.372 N 
ATOM     37  H9  UNL     1      62.185   9.832  29.364  1.00  0.00     0.161 HD
BRANCH  36  38
HETATM   38  C13 UNL     1      61.325   8.271  28.111  1.00  0.00     0.163 C 
BRANCH  38  39
HETATM   39  C14 UNL     1      61.583   8.995  26.833  1.00  0.00     0.242 C 
HETATM   40  F1  UNL     1      60.533   8.717  25.973  1.00  0.00    -0.243 F 
BRANCH  39  41
HETATM   41  C15 UNL     1      61.613  10.493  27.114  1.00  0.00     0.289 C 
BRANCH  41  42
HETATM   42  O2  UNL     1      62.665  11.033  26.380  1.00  0.00    -0.368 OA
ATOM     43  H2  UNL     1      63.280  11.407  26.999  1.00  0.00     0.212 HD
ENDBRANCH  41  42
BRANCH  41  44
HETATM   44  O3  UNL     1      60.392  11.005  26.667  1.00  0.00    -0.368 OA
ATOM     45  H3  UNL     1      60.084  11.597  27.343  1.00  0.00     0.212 HD
ENDBRANCH  41  44
ENDBRANCH  39  41
ENDBRANCH  38  39
ENDBRANCH  36  38
ENDBRANCH  32  36
ENDBRANCH  28  32
ENDBRANCH  17  23
ENDBRANCH   4   9
ENDBRANCH   3   4
TORSDOF 14
ENDMDL
MODEL 2
REMARK VINA RESULT: -3.726053856      1.228      1.834
REMARK  14 active torsions:
REMARK  status: ('A' for Active; 'I' for Inactive)
REMARK    1  A    between atoms: C2_3  and  N2_4 
REMARK    2  A    between atoms: N2_4  and  C3_5 
REMARK    3  A    between atoms: N2_4  and  C5_9 
REMARK    4  A    between atoms: C3_5  and  C4_6 
REMARK    5  A    between atoms: C4_6  and  O1_7 
REMARK    6  A    between atoms: C6_12  and  N4_13 
REMARK    7  A    between atoms: C8_22  and  C9_23 
REMARK    8  A    between atoms: C11_28  and  C12_29 
REMARK    9  A    between atoms: C12_29  and  N9_33 
REMARK   10  A    between atoms: N9_33  and  C13_35 
REMARK   11  A    between atoms: C13_35  and  C14_36 
REMARK   12  A    between atoms: C14_36  and  C15_38 
REMARK   13  A    between atoms: C15_38  and  O2_39 
REMARK   14  A    between atoms: C15_38  and  O3_41 
ROOT
HETATM    1  N1  UNL     1      56.121   9.105  31.711  1.00  0.00    -0.196 NA
HETATM    2  C1  UNL     1      55.333   9.399  30.904  1.00  0.00     0.079 C 
HETATM    3  C2  UNL     1      54.325   9.743  29.914  1.00  0.00     0.248 C 
ENDROOT
BRANCH   3   4
HETATM    4  N2  UNL     1      54.760   9.642  28.544  1.00  0.00    -0.351 N 
BRANCH   4   5
HETATM    5  C3  UNL     1      54.917   8.381  27.914  1.00  0.00     0.151 C 
BRANCH   5   6
HETATM    6  C4  UNL     1      53.727   7.491  27.826  1.00  0.00     0.183 C 
BRANCH   6   7
HETATM    7  O1  UNL     1      54.235   6.220  27.438  1.00  0.00    -0.399 OA
ATOM      8  H1  UNL     1      54.562   5.825  28.237  1.00  0.00     0.209 HD
ENDBRANCH   6   7
ENDBRANCH   5   6
ENDBRANCH   4   5
BRANCH   4   9
HETATM    9  C5  UNL     1      55.108  10.848  27.883  1.00  0.00     0.138 A 
HETATM   10  N3  UNL     1      54.161  11.298  26.976  1.00  0.00    -0.176 N 
HETATM   11  C6  UNL     1      54.320  12.402  26.256  1.00  0.00     0.679 A 
ATOM     12  H3  UNL     1      53.304  10.756  26.855  1.00  0.00     0.186 HD
HETATM   13  N5  UNL     1      55.446  13.133  26.399  1.00  0.00    -0.176 N 
HETATM   14  C7  UNL     1      56.411  12.779  27.247  1.00  0.00     0.132 A 
ATOM     15  H5  UNL     1      55.561  13.981  25.842  1.00  0.00     0.186 HD
HETATM   16  N6  UNL     1      57.501  13.466  27.396  1.00  0.00    -0.384 N 
HETATM   17  C8  UNL     1      56.204  11.602  27.990  1.00  0.00     0.098 A 
ATOM     18  H62 UNL     1      57.651  14.319  26.858  1.00  0.00     0.157 HD
ATOM     19  H61 UNL     1      58.239  13.195  28.045  1.00  0.00     0.157 HD
BRANCH  11  20
HETATM   20  N4  UNL     1      53.390  12.772  25.414  1.00  0.00    -0.234 N 
ATOM     21  H42 UNL     1      53.167  12.196  24.602  1.00  0.00     0.174 HD
ATOM     22  H41 UNL     1      52.879  13.642  25.568  1.00  0.00     0.174 HD
ENDBRANCH  11  20
BRANCH  17  23
HETATM   23  C9  UNL     1      57.288  11.275  28.907  1.00  0.00     0.141 A 
HETATM   24  N7  UNL     1      57.791  11.956  29.920  1.00  0.00    -0.329 N 
HETATM   25  C10 UNL     1      58.836  11.280  30.458  1.00  0.00     0.137 A 
ATOM     26  H7  UNL     1      57.446  12.857  30.249  1.00  0.00     0.168 HD
HETATM   27 CL1  UNL     1      59.766  11.865  31.826  1.00  0.00    -0.062 Cl
HETATM   28  C11 UNL     1      58.998  10.099  29.738  1.00  0.00     0.133 A 
HETATM   29  N10 UNL     1      58.038  10.135  28.805  1.00  0.00    -0.226 N 
HETATM   30  C16 UNL     1      57.811   9.130  27.835  1.00  0.00     0.191 C 
HETATM   31  N11 UNL     1      57.593   8.315  27.019  1.00  0.00    -0.171 NA
BRANCH  28  32
HETATM   32  C12 UNL     1      60.016   9.073  29.978  1.00  0.00     0.126 C 
HETATM   33  N8  UNL     1      59.902   8.159  30.830  1.00  0.00    -0.384 N 
ATOM     34  H82 UNL     1      59.045   8.108  31.380  1.00  0.00     0.157 HD
ATOM     35  H81 UNL     1      60.610   7.444  30.997  1.00  0.00     0.157 HD
BRANCH  32  36
HETATM   36  N9  UNL     1      61.229   9.144  29.199  1.00  0.00    -0.372 N 
ATOM     37  H9  UNL     1      61.982   9.798  29.415  1.00  0.00     0.161 HD
BRANCH  36  38
HETATM   38  C13 UNL     1      61.297   8.213  28.086  1.00  0.00     0.163 C 
BRANCH  38  39
HETATM   39  C14 UNL     1      61.505   8.975  26.821  1.00  0.00     0.242 C 
HETATM   40  F1  UNL     1      60.402   8.756  26.012  1.00  0.00    -0.243 F 
BRANCH  39  41
HETATM   41  C15 UNL     1      61.592  10.461  27.151  1.00  0.00     0.289 C 
BRANCH  41  42
HETATM   42  O2  UNL     1      62.645  10.991  26.411  1.00  0.00    -0.368 OA
ATOM     43  H2  UNL     1      62.275  11.609  25.793  1.00  0.00     0.212 HD
ENDBRANCH  41  42
BRANCH  41  44
HETATM   44  O3  UNL     1      60.380  11.028  26.750  1.00  0.00    -0.368 OA
ATOM     45  H3  UNL     1      59.835  11.076  27.526  1.00  0.00     0.212 HD
ENDBRANCH  41  44
ENDBRANCH  39  41
ENDBRANCH  38  39
ENDBRANCH  36  38
ENDBRANCH  32  36
ENDBRANCH  28  32
ENDBRANCH  17  23
ENDBRANCH   4   9
ENDBRANCH   3   4
TORSDOF 14
ENDMDL
MODEL 3
REMARK VINA RESULT: -3.372038336      1.693      1.912
REMARK  14 active torsions:
REMARK  status: ('A' for Active; 'I' for Inactive)
REMARK    1  A    between atoms: C2_3  and  N2_4 
REMARK    2  A    between atoms: N2_4  and  C3_5 
REMARK    3  A    between atoms: N2_4  and  C5_9 
REMARK    4  A    between atoms: C3_5  and  C4_6 
REMARK    5  A    between atoms: C4_6  and  O1_7 
REMARK    6  A    between atoms: C6_12  and  N4_13 
REMARK    7  A    between atoms: C8_22  and  C9_23 
REMARK    8  A    between atoms: C11_28  and  C12_29 
REMARK    9  A    between atoms: C12_29  and  N9_33 
REMARK   10  A    between atoms: N9_33  and  C13_35 
REMARK   11  A    between atoms: C13_35  and  C14_36 
REMARK   12  A    between atoms: C14_36  and  C15_38 
REMARK   13  A    between atoms: C15_38  and  O2_39 
REMARK   14  A    between atoms: C15_38  and  O3_41 
ROOT
HETATM    1  N1  UNL     1      52.668   7.310  28.023  1.00  0.00    -0.196 NA
HETATM    2  C1  UNL     1      53.686   7.869  27.930  1.00  0.00     0.079 C 
HETATM    3  C2  UNL     1      54.976   8.534  27.818  1.00  0.00     0.248 C 
ENDROOT
BRANCH   3   4
HETATM    4  N2  UNL     1      55.131   9.700  28.650  1.00  0.00    -0.351 N 
BRANCH   4   5
HETATM    5  C3  UNL     1      54.924   9.636  30.052  1.00  0.00     0.151 C 
BRANCH   5   6
HETATM    6  C4  UNL     1      55.915   8.888  30.872  1.00  0.00     0.183 C 
BRANCH   6   7
HETATM    7  O1  UNL     1      56.088   9.661  32.054  1.00  0.00    -0.399 OA
ATOM      8  H1  UNL     1      55.641  10.482  31.884  1.00  0.00     0.209 HD
ENDBRANCH   6   7
ENDBRANCH   5   6
ENDBRANCH   4   5
BRANCH   4   9
HETATM    9  C5  UNL     1      55.413  10.929  27.999  1.00  0.00     0.138 A 
HETATM   10  N3  UNL     1      54.466  11.311  27.061  1.00  0.00    -0.176 N 
HETATM   11  C6  UNL     1      54.569  12.425  26.347  1.00  0.00     0.679 A 
ATOM     12  H3  UNL     1      53.655  10.710  26.914  1.00  0.00     0.186 HD
HETATM   13  N5  UNL     1      55.634  13.235  26.525  1.00  0.00    -0.176 N 
HETATM   14  C7  UNL     1      56.594  12.949  27.405  1.00  0.00     0.132 A 
ATOM     15  H5  UNL     1      55.706  14.089  25.972  1.00  0.00     0.186 HD
HETATM   16  N6  UNL     1      57.627  13.712  27.589  1.00  0.00    -0.384 N 
HETATM   17  C8  UNL     1      56.448  11.760  28.141  1.00  0.00     0.098 A 
ATOM     18  H62 UNL     1      57.733  14.575  27.055  1.00  0.00     0.157 HD
ATOM     19  H61 UNL     1      58.361  13.494  28.262  1.00  0.00     0.157 HD
BRANCH  11  20
HETATM   20  N4  UNL     1      53.642  12.728  25.474  1.00  0.00    -0.234 N 
ATOM     21  H42 UNL     1      53.896  13.035  24.535  1.00  0.00     0.174 HD
ATOM     22  H41 UNL     1      52.657  12.656  25.731  1.00  0.00     0.174 HD
ENDBRANCH  11  20
BRANCH  17  23
HETATM   23  C9  UNL     1      57.522  11.509  29.093  1.00  0.00     0.141 A 
HETATM   24  N7  UNL     1      57.956  12.234  30.110  1.00  0.00    -0.329 N 
HETATM   25  C10 UNL     1      59.022  11.627  30.688  1.00  0.00     0.137 A 
ATOM     26  H7  UNL     1      57.549  13.118  30.414  1.00  0.00     0.168 HD
HETATM   27 CL1  UNL     1      59.877  12.286  32.071  1.00  0.00    -0.062 Cl
HETATM   28  C11 UNL     1      59.273  10.448  29.991  1.00  0.00     0.133 A 
HETATM   29  N10 UNL     1      58.340  10.414  29.031  1.00  0.00    -0.226 N 
HETATM   30  C16 UNL     1      58.200   9.384  28.071  1.00  0.00     0.191 C 
HETATM   31  N11 UNL     1      58.053   8.546  27.263  1.00  0.00    -0.171 NA
BRANCH  28  32
HETATM   32  C12 UNL     1      60.341   9.486  30.276  1.00  0.00     0.126 C 
HETATM   33  N8  UNL     1      60.319   8.679  31.236  1.00  0.00    -0.384 N 
ATOM     34  H82 UNL     1      59.504   8.671  31.849  1.00  0.00     0.157 HD
ATOM     35  H81 UNL     1      61.062   8.009  31.434  1.00  0.00     0.157 HD
BRANCH  32  36
HETATM   36  N9  UNL     1      61.494   9.497  29.408  1.00  0.00    -0.372 N 
ATOM     37  H9  UNL     1      62.298  10.103  29.571  1.00  0.00     0.161 HD
BRANCH  36  38
HETATM   38  C13 UNL     1      61.423   8.578  28.285  1.00  0.00     0.163 C 
BRANCH  38  39
HETATM   39  C14 UNL     1      62.117   7.308  28.645  1.00  0.00     0.242 C 
HETATM   40  F1  UNL     1      62.839   7.539  29.805  1.00  0.00    -0.243 F 
BRANCH  39  41
HETATM   41  C15 UNL     1      61.069   6.234  28.917  1.00  0.00     0.289 C 
BRANCH  41  42
HETATM   42  O2  UNL     1      61.212   5.841  30.245  1.00  0.00    -0.368 OA
ATOM     43  H2  UNL     1      60.466   5.294  30.460  1.00  0.00     0.212 HD
ENDBRANCH  41  42
BRANCH  41  44
HETATM   44  O3  UNL     1      59.824   6.834  28.717  1.00  0.00    -0.368 OA
ATOM     45  H3  UNL     1      59.491   6.498  27.894  1.00  0.00     0.212 HD
ENDBRANCH  41  44
ENDBRANCH  39  41
ENDBRANCH  38  39
ENDBRANCH  36  38
ENDBRANCH  32  36
ENDBRANCH  28  32
ENDBRANCH  17  23
ENDBRANCH   4   9
ENDBRANCH   3   4
TORSDOF 14
ENDMDL
MODEL 4
REMARK VINA RESULT: -2.773768255      3.478      5.424
REMARK  14 active torsions:
REMARK  status: ('A' for Active; 'I' for Inactive)
REMARK    1  A    between atoms: C2_3  and  N2_4 
REMARK    2  A    between atoms: N2_4  and  C3_5 
REMARK    3  A    between atoms: N2_4  and  C5_9 
REMARK    4  A    between atoms: C3_5  and  C4_6 
REMARK    5  A    between atoms: C4_6  and  O1_7 
REMARK    6  A    between atoms: C6_12  and  N4_13 
REMARK    7  A    between atoms: C8_22  and  C9_23 
REMARK    8  A    between atoms: C11_28  and  C12_29 
REMARK    9  A    between atoms: C12_29  and  N9_33 
REMARK   10  A    between atoms: N9_33  and  C13_35 
REMARK   11  A    between atoms: C13_35  and  C14_36 
REMARK   12  A    between atoms: C14_36  and  C15_38 
REMARK   13  A    between atoms: C15_38  and  O2_39 
REMARK   14  A    between atoms: C15_38  and  O3_41 
ROOT
HETATM    1  N1  UNL     1      60.131   9.110  26.977  1.00  0.00    -0.196 NA
HETATM    2  C1  UNL     1      59.221   8.620  27.516  1.00  0.00     0.079 C 
HETATM    3  C2  UNL     1      58.108   7.986  28.207  1.00  0.00     0.248 C 
ENDROOT
BRANCH   3   4
HETATM    4  N2  UNL     1      57.013   7.592  27.357  1.00  0.00    -0.351 N 
BRANCH   4   5
HETATM    5  C3  UNL     1      57.226   6.792  26.206  1.00  0.00     0.151 C 
BRANCH   5   6
HETATM    6  C4  UNL     1      56.643   5.423  26.188  1.00  0.00     0.183 C 
BRANCH   6   7
HETATM    7  O1  UNL     1      57.568   4.629  25.454  1.00  0.00    -0.399 OA
ATOM      8  H1  UNL     1      58.012   4.096  26.103  1.00  0.00     0.209 HD
ENDBRANCH   6   7
ENDBRANCH   5   6
ENDBRANCH   4   5
BRANCH   4   9
HETATM    9  C5  UNL     1      55.730   8.109  27.671  1.00  0.00     0.138 A 
HETATM   10  N3  UNL     1      54.687   7.219  27.462  1.00  0.00    -0.176 N 
HETATM   11  C6  UNL     1      53.417   7.532  27.690  1.00  0.00     0.679 A 
ATOM     12  H3  UNL     1      54.905   6.284  27.118  1.00  0.00     0.186 HD
HETATM   13  N5  UNL     1      53.105   8.764  28.146  1.00  0.00    -0.176 N 
HETATM   14  C7  UNL     1      54.041   9.685  28.377  1.00  0.00     0.132 A 
ATOM     15  H5  UNL     1      52.127   8.997  28.319  1.00  0.00     0.186 HD
HETATM   16  N6  UNL     1      53.762  10.875  28.811  1.00  0.00    -0.384 N 
HETATM   17  C8  UNL     1      55.374   9.314  28.122  1.00  0.00     0.098 A 
ATOM     18  H62 UNL     1      52.796  11.143  28.996  1.00  0.00     0.157 HD
ATOM     19  H61 UNL     1      54.478  11.579  28.988  1.00  0.00     0.157 HD
BRANCH  11  20
HETATM   20  N4  UNL     1      52.478   6.648  27.470  1.00  0.00    -0.234 N 
ATOM     21  H42 UNL     1      51.507   6.941  27.357  1.00  0.00     0.174 HD
ATOM     22  H41 UNL     1      52.715   5.657  27.407  1.00  0.00     0.174 HD
ENDBRANCH  11  20
BRANCH  17  23
HETATM   23  C9  UNL     1      56.350  10.358  28.404  1.00  0.00     0.141 A 
HETATM   24  N7  UNL     1      56.874  11.281  27.616  1.00  0.00    -0.329 N 
HETATM   25  C10 UNL     1      57.790  12.009  28.303  1.00  0.00     0.137 A 
ATOM     26  H7  UNL     1      56.627  11.424  26.638  1.00  0.00     0.168 HD
HETATM   27 CL1  UNL     1      58.702  13.330  27.595  1.00  0.00    -0.062 Cl
HETATM   28  C11 UNL     1      57.844  11.512  29.602  1.00  0.00     0.133 A 
HETATM   29  N10 UNL     1      56.954  10.511  29.622  1.00  0.00    -0.226 N 
HETATM   30  C16 UNL     1      56.661   9.708  30.750  1.00  0.00     0.191 C 
HETATM   31  N11 UNL     1      56.391   9.026  31.666  1.00  0.00    -0.171 NA
BRANCH  28  32
HETATM   32  C12 UNL     1      58.706  12.004  30.680  1.00  0.00     0.126 C 
HETATM   33  N8  UNL     1      59.651  11.345  31.178  1.00  0.00    -0.384 N 
ATOM     34  H82 UNL     1      59.849  10.417  30.804  1.00  0.00     0.157 HD
ATOM     35  H81 UNL     1      60.251  11.686  31.928  1.00  0.00     0.157 HD
BRANCH  32  36
HETATM   36  N9  UNL     1      58.425  13.316  31.210  1.00  0.00    -0.372 N 
ATOM     37  H9  UNL     1      57.832  13.989  30.725  1.00  0.00     0.161 HD
BRANCH  36  38
HETATM   38  C13 UNL     1      59.052  13.606  32.489  1.00  0.00     0.163 C 
BRANCH  38  39
HETATM   39  C14 UNL     1      60.034  14.714  32.314  1.00  0.00     0.242 C 
HETATM   40  F1  UNL     1      60.544  14.624  31.028  1.00  0.00    -0.243 F 
BRANCH  39  41
HETATM   41  C15 UNL     1      59.308  16.046  32.467  1.00  0.00     0.289 C 
BRANCH  41  42
HETATM   42  O2  UNL     1      59.176  16.293  33.831  1.00  0.00    -0.368 OA
ATOM     43  H2  UNL     1      58.401  16.829  33.948  1.00  0.00     0.212 HD
ENDBRANCH  41  42
BRANCH  41  44
HETATM   44  O3  UNL     1      60.121  17.013  31.872  1.00  0.00    -0.368 OA
ATOM     45  H3  UNL     1      59.557  17.747  31.662  1.00  0.00     0.212 HD
ENDBRANCH  41  44
ENDBRANCH  39  41
ENDBRANCH  38  39
ENDBRANCH  36  38
ENDBRANCH  32  36
ENDBRANCH  28  32
ENDBRANCH  17  23
ENDBRANCH   4   9
ENDBRANCH   3   4
TORSDOF 14
ENDMDL
MODEL 5
REMARK VINA RESULT: -2.747666566      3.410      5.118
REMARK  14 active torsions:
REMARK  status: ('A' for Active; 'I' for Inactive)
REMARK    1  A    between atoms: C2_3  and  N2_4 
REMARK    2  A    between atoms: N2_4  and  C3_5 
REMARK    3  A    between atoms: N2_4  and  C5_9 
REMARK    4  A    between atoms: C3_5  and  C4_6 
REMARK    5  A    between atoms: C4_6  and  O1_7 
REMARK    6  A    between atoms: C6_12  and  N4_13 
REMARK    7  A    between atoms: C8_22  and  C9_23 
REMARK    8  A    between atoms: C11_28  and  C12_29 
REMARK    9  A    between atoms: C12_29  and  N9_33 
REMARK   10  A    between atoms: N9_33  and  C13_35 
REMARK   11  A    between atoms: C13_35  and  C14_36 
REMARK   12  A    between atoms: C14_36  and  C15_38 
REMARK   13  A    between atoms: C15_38  and  O2_39 
REMARK   14  A    between atoms: C15_38  and  O3_41 
ROOT
HETATM    1  N1  UNL     1      55.868   4.684  26.125  1.00  0.00    -0.196 NA
HETATM    2  C1  UNL     1      56.501   5.658  26.215  1.00  0.00     0.079 C 
HETATM    3  C2  UNL     1      57.323   6.855  26.318  1.00  0.00     0.248 C 
ENDROOT
BRANCH   3   4
HETATM    4  N2  UNL     1      57.120   7.629  27.516  1.00  0.00    -0.351 N 
BRANCH   4   5
HETATM    5  C3  UNL     1      58.155   7.788  28.473  1.00  0.00     0.151 C 
BRANCH   5   6
HETATM    6  C4  UNL     1      59.366   8.553  28.071  1.00  0.00     0.183 C 
BRANCH   6   7
HETATM    7  O1  UNL     1      60.462   7.679  28.316  1.00  0.00    -0.399 OA
ATOM      8  H1  UNL     1      61.230   8.148  28.013  1.00  0.00     0.209 HD
ENDBRANCH   6   7
ENDBRANCH   5   6
ENDBRANCH   4   5
BRANCH   4   9
HETATM    9  C5  UNL     1      55.819   8.149  27.740  1.00  0.00     0.138 A 
HETATM   10  N3  UNL     1      54.793   7.243  27.519  1.00  0.00    -0.176 N 
HETATM   11  C6  UNL     1      53.512   7.556  27.667  1.00  0.00     0.679 A 
ATOM     12  H3  UNL     1      55.034   6.295  27.231  1.00  0.00     0.186 HD
HETATM   13  N5  UNL     1      53.171   8.806  28.048  1.00  0.00    -0.176 N 
HETATM   14  C7  UNL     1      54.089   9.744  28.283  1.00  0.00     0.132 A 
ATOM     15  H5  UNL     1      52.184   9.039  28.160  1.00  0.00     0.186 HD
HETATM   16  N6  UNL     1      53.782  10.951  28.646  1.00  0.00    -0.384 N 
HETATM   17  C8  UNL     1      55.435   9.371  28.114  1.00  0.00     0.098 A 
ATOM     18  H62 UNL     1      52.806  11.221  28.768  1.00  0.00     0.157 HD
ATOM     19  H61 UNL     1      54.484  11.668  28.826  1.00  0.00     0.157 HD
BRANCH  11  20
HETATM   20  N4  UNL     1      52.590   6.656  27.441  1.00  0.00    -0.234 N 
ATOM     21  H42 UNL     1      52.847   5.689  27.246  1.00  0.00     0.174 HD
ATOM     22  H41 UNL     1      51.604   6.921  27.461  1.00  0.00     0.174 HD
ENDBRANCH  11  20
BRANCH  17  23
HETATM   23  C9  UNL     1      56.390  10.435  28.396  1.00  0.00     0.141 A 
HETATM   24  N7  UNL     1      56.897  11.367  27.608  1.00  0.00    -0.329 N 
HETATM   25  C10 UNL     1      57.797  12.113  28.295  1.00  0.00     0.137 A 
ATOM     26  H7  UNL     1      56.648  11.504  26.629  1.00  0.00     0.168 HD
HETATM   27 CL1  UNL     1      58.684  13.451  27.587  1.00  0.00    -0.062 Cl
HETATM   28  C11 UNL     1      57.859  11.620  29.595  1.00  0.00     0.133 A 
HETATM   29  N10 UNL     1      56.989  10.601  29.615  1.00  0.00    -0.226 N 
HETATM   30  C16 UNL     1      56.710   9.794  30.743  1.00  0.00     0.191 C 
HETATM   31  N11 UNL     1      56.452   9.108  31.660  1.00  0.00    -0.171 NA
BRANCH  28  32
HETATM   32  C12 UNL     1      58.710  12.130  30.674  1.00  0.00     0.126 C 
HETATM   33  N8  UNL     1      59.666  11.489  31.175  1.00  0.00    -0.384 N 
ATOM     34  H82 UNL     1      59.882  10.565  30.803  1.00  0.00     0.157 HD
ATOM     35  H81 UNL     1      60.258  11.844  31.925  1.00  0.00     0.157 HD
BRANCH  32  36
HETATM   36  N9  UNL     1      58.403  13.438  31.200  1.00  0.00    -0.372 N 
ATOM     37  H9  UNL     1      57.862  14.126  30.679  1.00  0.00     0.161 HD
BRANCH  36  38
HETATM   38  C13 UNL     1      58.925  13.699  32.531  1.00  0.00     0.163 C 
BRANCH  38  39
HETATM   39  C14 UNL     1      59.953  14.776  32.453  1.00  0.00     0.242 C 
HETATM   40  F1  UNL     1      60.552  14.695  31.206  1.00  0.00    -0.243 F 
BRANCH  39  41
HETATM   41  C15 UNL     1      59.260  16.128  32.583  1.00  0.00     0.289 C 
BRANCH  41  42
HETATM   42  O2  UNL     1      59.185  16.428  33.940  1.00  0.00    -0.368 OA
ATOM     43  H2  UNL     1      58.265  16.504  34.163  1.00  0.00     0.212 HD
ENDBRANCH  41  42
BRANCH  41  44
HETATM   44  O3  UNL     1      60.070  17.055  31.922  1.00  0.00    -0.368 OA
ATOM     45  H3  UNL     1      59.727  17.914  32.136  1.00  0.00     0.212 HD
ENDBRANCH  41  44
ENDBRANCH  39  41
ENDBRANCH  38  39
ENDBRANCH  36  38
ENDBRANCH  32  36
ENDBRANCH  28  32
ENDBRANCH  17  23
ENDBRANCH   4   9
ENDBRANCH   3   4
TORSDOF 14
ENDMDL
