MODEL 1
REMARK VINA RESULT: -8.104716749      0.000      0.000
REMARK  13 active torsions:
REMARK  status: ('A' for Active; 'I' for Inactive)
REMARK    1  A    between atoms: N1_1  and  C1_4 
REMARK    2  A    between atoms: C3_9  and  C4_10 
REMARK    3  A    between atoms: C4_10  and  C5_11 
REMARK    4  A    between atoms: C4_10  and  C8_23 
REMARK    5  A    between atoms: C5_11  and  N4_12 
REMARK    6  A    between atoms: C7_19  and  N7_20 
REMARK    7  A    between atoms: N9_30  and  C11_31 
REMARK    8  A    between atoms: C11_31  and  C12_32 
REMARK    9  A    between atoms: C12_32  and  N10_33 
REMARK   10  A    between atoms: N10_33  and  C13_35 
REMARK   11  A    between atoms: C13_35  and  C14_36 
REMARK   12  A    between atoms: C14_36  and  O2_37 
REMARK   13  A    between atoms: C15_39  and  N11_40 
ROOT
HETATM    1  C4  UNL     1    -128.336  32.355 124.740  1.00  0.00     0.091 C 
ENDROOT
BRANCH   1   2
HETATM    2  C3  UNL     1    -127.976  31.111 124.023  1.00  0.00     0.038 A 
HETATM    3  C2  UNL     1    -128.665  29.916 123.968  1.00  0.00     0.132 A 
HETATM    4  N2  UNL     1    -128.121  28.944 123.264  1.00  0.00    -0.325 N 
HETATM    5  N3  UNL     1    -129.943  29.752 124.666  1.00  0.00    -0.082 NA
HETATM    6  C1  UNL     1    -126.955  29.167 122.657  1.00  0.00     0.143 A 
ATOM      7  H2  UNL     1    -128.582  28.038 123.185  1.00  0.00     0.169 HD
HETATM    8  S1  UNL     1    -126.610  30.778 123.079  1.00  0.00    -0.055 SA
BRANCH   6   9
HETATM    9  N1  UNL     1    -126.264  28.326 121.916  1.00  0.00    -0.380 N 
ATOM     10  H12 UNL     1    -126.309  27.308 121.874  1.00  0.00     0.158 HD
ATOM     11  H11 UNL     1    -125.538  28.551 121.236  1.00  0.00     0.158 HD
ENDBRANCH   6   9
ENDBRANCH   1   2
BRANCH   1  12
HETATM   12  C5  UNL     1    -127.455  33.525 124.495  1.00  0.00     0.183 C 
BRANCH  12  13
HETATM   13  N4  UNL     1    -127.741  34.275 123.295  1.00  0.00    -0.120 N 
HETATM   14  N5  UNL     1    -128.245  33.776 122.173  1.00  0.00    -0.244 N 
HETATM   15  C6  UNL     1    -128.370  34.746 121.248  1.00  0.00     0.295 A 
ATOM     16  H5  UNL     1    -128.501  32.799 122.032  1.00  0.00     0.191 HD
HETATM   17  F1  UNL     1    -128.856  34.541 120.000  1.00  0.00    -0.163 F 
HETATM   18  N6  UNL     1    -127.937  35.874 121.800  1.00  0.00    -0.149 N 
HETATM   19  C7  UNL     1    -127.548  35.588 123.063  1.00  0.00     0.696 A 
ATOM     20  H6  UNL     1    -127.903  36.790 121.353  1.00  0.00     0.188 HD
BRANCH  19  21
HETATM   21  N7  UNL     1    -127.084  36.443 123.909  1.00  0.00    -0.233 N 
ATOM     22  H72 UNL     1    -126.258  37.023 123.765  1.00  0.00     0.174 HD
ATOM     23  H71 UNL     1    -127.488  36.660 124.820  1.00  0.00     0.174 HD
ENDBRANCH  19  21
ENDBRANCH  12  13
ENDBRANCH   1  12
BRANCH   1  24
HETATM   24  C8  UNL     1    -128.614  32.146 126.167  1.00  0.00     0.053 A 
HETATM   25  C9  UNL     1    -127.646  32.051 127.145  1.00  0.00     0.203 A 
HETATM   26  F2  UNL     1    -126.328  32.167 126.817  1.00  0.00    -0.185 F 
HETATM   27  N8  UNL     1    -127.972  31.847 128.435  1.00  0.00    -0.284 N 
HETATM   28  C10 UNL     1    -129.232  31.725 128.865  1.00  0.00     0.330 A 
ATOM     29  H8  UNL     1    -127.218  31.782 129.120  1.00  0.00     0.173 HD
HETATM   30  O1  UNL     1    -129.516  31.534 130.081  1.00  0.00    -0.246 OA
HETATM   31  N9  UNL     1    -130.219  31.813 127.938  1.00  0.00    -0.283 N 
HETATM   32  C15 UNL     1    -129.937  32.014 126.643  1.00  0.00     0.116 A 
BRANCH  31  33
HETATM   33  C11 UNL     1    -131.583  31.678 128.394  1.00  0.00     0.154 C 
BRANCH  33  34
HETATM   34  C12 UNL     1    -132.187  30.355 128.054  1.00  0.00     0.134 C 
BRANCH  34  35
HETATM   35  N10 UNL     1    -131.209  29.321 128.202  1.00  0.00    -0.418 N 
ATOM     36  H10 UNL     1    -130.294  29.506 128.613  1.00  0.00     0.153 HD
BRANCH  35  37
HETATM   37  C13 UNL     1    -131.573  28.028 127.750  1.00  0.00     0.139 C 
BRANCH  37  38
HETATM   38  C14 UNL     1    -132.215  27.178 128.840  1.00  0.00     0.183 C 
BRANCH  38  39
HETATM   39  O2  UNL     1    -132.578  25.923 128.329  1.00  0.00    -0.399 OA
ATOM     40  H2  UNL     1    -132.583  25.273 129.022  1.00  0.00     0.209 HD
ENDBRANCH  38  39
ENDBRANCH  37  38
ENDBRANCH  35  37
ENDBRANCH  34  35
ENDBRANCH  33  34
ENDBRANCH  31  33
BRANCH  32  41
HETATM   41  N11 UNL     1    -130.841  32.096 125.741  1.00  0.00    -0.385 N 
ATOM     42 2H11 UNL     1    -131.059  31.329 125.104  1.00  0.00     0.157 HD
ATOM     43 1H11 UNL     1    -131.325  32.992 125.702  1.00  0.00     0.157 HD
ENDBRANCH  32  41
ENDBRANCH   1  24
TORSDOF 13
ENDMDL
MODEL 2
REMARK VINA RESULT: -7.738498684      1.703      2.859
REMARK  13 active torsions:
REMARK  status: ('A' for Active; 'I' for Inactive)
REMARK    1  A    between atoms: N1_1  and  C1_4 
REMARK    2  A    between atoms: C3_9  and  C4_10 
REMARK    3  A    between atoms: C4_10  and  C5_11 
REMARK    4  A    between atoms: C4_10  and  C8_23 
REMARK    5  A    between atoms: C5_11  and  N4_12 
REMARK    6  A    between atoms: C7_19  and  N7_20 
REMARK    7  A    between atoms: N9_30  and  C11_31 
REMARK    8  A    between atoms: C11_31  and  C12_32 
REMARK    9  A    between atoms: C12_32  and  N10_33 
REMARK   10  A    between atoms: N10_33  and  C13_35 
REMARK   11  A    between atoms: C13_35  and  C14_36 
REMARK   12  A    between atoms: C14_36  and  O2_37 
REMARK   13  A    between atoms: C15_39  and  N11_40 
ROOT
HETATM    1  C4  UNL     1    -128.355  32.383 124.905  1.00  0.00     0.091 C 
ENDROOT
BRANCH   1   2
HETATM    2  C3  UNL     1    -128.005  31.153 124.161  1.00  0.00     0.038 A 
HETATM    3  C2  UNL     1    -128.713  29.971 124.064  1.00  0.00     0.132 A 
HETATM    4  N2  UNL     1    -128.175  29.009 123.342  1.00  0.00    -0.325 N 
HETATM    5  N3  UNL     1    -130.003  29.810 124.739  1.00  0.00    -0.082 NA
HETATM    6  C1  UNL     1    -126.997  29.229 122.758  1.00  0.00     0.143 A 
ATOM      7  H2  UNL     1    -128.650  28.113 123.232  1.00  0.00     0.169 HD
HETATM    8  S1  UNL     1    -126.631  30.822 123.227  1.00  0.00    -0.055 SA
BRANCH   6   9
HETATM    9  N1  UNL     1    -126.309  28.396 122.004  1.00  0.00    -0.380 N 
ATOM     10  H12 UNL     1    -125.492  27.832 122.236  1.00  0.00     0.158 HD
ATOM     11  H11 UNL     1    -126.477  28.163 121.025  1.00  0.00     0.158 HD
ENDBRANCH   6   9
ENDBRANCH   1   2
BRANCH   1  12
HETATM   12  C5  UNL     1    -127.504  33.570 124.638  1.00  0.00     0.183 C 
BRANCH  12  13
HETATM   13  N4  UNL     1    -127.781  34.265 123.403  1.00  0.00    -0.120 N 
HETATM   14  N5  UNL     1    -128.283  33.718 122.303  1.00  0.00    -0.244 N 
HETATM   15  C6  UNL     1    -128.399  34.644 121.333  1.00  0.00     0.295 A 
ATOM     16  H5  UNL     1    -128.544  32.736 122.207  1.00  0.00     0.191 HD
HETATM   17  F1  UNL     1    -128.881  34.383 120.095  1.00  0.00    -0.163 F 
HETATM   18  N6  UNL     1    -127.961  35.794 121.835  1.00  0.00    -0.149 N 
HETATM   19  C7  UNL     1    -127.579  35.565 123.111  1.00  0.00     0.696 A 
ATOM     20  H6  UNL     1    -127.921  36.688 121.345  1.00  0.00     0.188 HD
BRANCH  19  21
HETATM   21  N7  UNL     1    -127.113  36.455 123.918  1.00  0.00    -0.233 N 
ATOM     22  H72 UNL     1    -126.155  36.803 123.920  1.00  0.00     0.174 HD
ATOM     23  H71 UNL     1    -127.642  36.936 124.646  1.00  0.00     0.174 HD
ENDBRANCH  19  21
ENDBRANCH  12  13
ENDBRANCH   1  12
BRANCH   1  24
HETATM   24  C8  UNL     1    -128.570  32.155 126.340  1.00  0.00     0.053 A 
HETATM   25  C9  UNL     1    -127.562  32.071 127.277  1.00  0.00     0.203 A 
HETATM   26  F2  UNL     1    -126.262  32.219 126.898  1.00  0.00    -0.185 F 
HETATM   27  N8  UNL     1    -127.831  31.848 128.578  1.00  0.00    -0.284 N 
HETATM   28  C10 UNL     1    -129.070  31.695 129.057  1.00  0.00     0.330 A 
ATOM     29  H8  UNL     1    -127.050  31.793 129.231  1.00  0.00     0.173 HD
HETATM   30  O1  UNL     1    -129.301  31.486 130.280  1.00  0.00    -0.246 OA
HETATM   31  N9  UNL     1    -130.096  31.770 128.171  1.00  0.00    -0.283 N 
HETATM   32  C15 UNL     1    -129.871  31.990 126.868  1.00  0.00     0.116 A 
BRANCH  31  33
HETATM   33  C11 UNL     1    -131.437  31.601 128.680  1.00  0.00     0.154 C 
BRANCH  33  34
HETATM   34  C12 UNL     1    -132.096  32.892 129.038  1.00  0.00     0.134 C 
BRANCH  34  35
HETATM   35  N10 UNL     1    -131.818  33.218 130.402  1.00  0.00    -0.418 N 
ATOM     36  H10 UNL     1    -131.120  32.707 130.943  1.00  0.00     0.153 HD
BRANCH  35  37
HETATM   37  C13 UNL     1    -132.560  34.286 130.968  1.00  0.00     0.139 C 
BRANCH  37  38
HETATM   38  C14 UNL     1    -131.999  34.754 132.306  1.00  0.00     0.183 C 
BRANCH  38  39
HETATM   39  O2  UNL     1    -130.689  35.230 132.146  1.00  0.00    -0.399 OA
ATOM     40  H2  UNL     1    -130.193  35.107 132.946  1.00  0.00     0.209 HD
ENDBRANCH  38  39
ENDBRANCH  37  38
ENDBRANCH  35  37
ENDBRANCH  34  35
ENDBRANCH  33  34
ENDBRANCH  31  33
BRANCH  32  41
HETATM   41  N11 UNL     1    -130.812  32.060 126.003  1.00  0.00    -0.385 N 
ATOM     42 2H11 UNL     1    -130.929  31.376 125.256  1.00  0.00     0.157 HD
ATOM     43 1H11 UNL     1    -131.435  32.859 126.116  1.00  0.00     0.157 HD
ENDBRANCH  32  41
ENDBRANCH   1  24
TORSDOF 13
ENDMDL
MODEL 3
REMARK VINA RESULT: -7.695174800      3.833      7.944
REMARK  13 active torsions:
REMARK  status: ('A' for Active; 'I' for Inactive)
REMARK    1  A    between atoms: N1_1  and  C1_4 
REMARK    2  A    between atoms: C3_9  and  C4_10 
REMARK    3  A    between atoms: C4_10  and  C5_11 
REMARK    4  A    between atoms: C4_10  and  C8_23 
REMARK    5  A    between atoms: C5_11  and  N4_12 
REMARK    6  A    between atoms: C7_19  and  N7_20 
REMARK    7  A    between atoms: N9_30  and  C11_31 
REMARK    8  A    between atoms: C11_31  and  C12_32 
REMARK    9  A    between atoms: C12_32  and  N10_33 
REMARK   10  A    between atoms: N10_33  and  C13_35 
REMARK   11  A    between atoms: C13_35  and  C14_36 
REMARK   12  A    between atoms: C14_36  and  O2_37 
REMARK   13  A    between atoms: C15_39  and  N11_40 
ROOT
HETATM    1  C4  UNL     1    -130.598  31.432 128.101  1.00  0.00     0.091 C 
ENDROOT
BRANCH   1   2
HETATM    2  C3  UNL     1    -131.037  32.288 129.226  1.00  0.00     0.038 A 
HETATM    3  C2  UNL     1    -130.567  32.316 130.524  1.00  0.00     0.132 A 
HETATM    4  N2  UNL     1    -131.139  33.170 131.349  1.00  0.00    -0.325 N 
HETATM    5  N3  UNL     1    -129.481  31.430 130.950  1.00  0.00    -0.082 NA
HETATM    6  C1  UNL     1    -132.122  33.944 130.889  1.00  0.00     0.143 A 
ATOM      7  H2  UNL     1    -130.835  33.238 132.320  1.00  0.00     0.169 HD
HETATM    8  S1  UNL     1    -132.252  33.468 129.261  1.00  0.00    -0.055 SA
BRANCH   6   9
HETATM    9  N1  UNL     1    -132.807  34.849 131.557  1.00  0.00    -0.380 N 
ATOM     10  H12 UNL     1    -132.523  35.429 132.347  1.00  0.00     0.158 HD
ATOM     11  H11 UNL     1    -133.772  35.138 131.398  1.00  0.00     0.158 HD
ENDBRANCH   6   9
ENDBRANCH   1   2
BRANCH   1  12
HETATM   12  C5  UNL     1    -130.433  29.988 128.408  1.00  0.00     0.183 C 
BRANCH  12  13
HETATM   13  N4  UNL     1    -131.465  29.123 127.889  1.00  0.00    -0.120 N 
HETATM   14  N5  UNL     1    -132.214  29.366 126.820  1.00  0.00    -0.244 N 
HETATM   15  C6  UNL     1    -133.088  28.361 126.625  1.00  0.00     0.295 A 
ATOM     16  H5  UNL     1    -132.138  30.196 126.232  1.00  0.00     0.191 HD
HETATM   17  F1  UNL     1    -133.986  28.328 125.612  1.00  0.00    -0.163 F 
HETATM   18  N6  UNL     1    -132.883  27.470 127.590  1.00  0.00    -0.149 N 
HETATM   19  C7  UNL     1    -131.883  27.936 128.371  1.00  0.00     0.696 A 
ATOM     20  H6  UNL     1    -133.389  26.594 127.718  1.00  0.00     0.188 HD
BRANCH  19  21
HETATM   21  N7  UNL     1    -131.400  27.328 129.400  1.00  0.00    -0.233 N 
ATOM     22  H72 UNL     1    -130.418  27.090 129.535  1.00  0.00     0.174 HD
ATOM     23  H71 UNL     1    -131.931  27.022 130.215  1.00  0.00     0.174 HD
ENDBRANCH  19  21
ENDBRANCH  12  13
ENDBRANCH   1  12
BRANCH   1  24
HETATM   24  C8  UNL     1    -129.459  31.985 127.357  1.00  0.00     0.053 A 
HETATM   25  C9  UNL     1    -128.192  32.148 127.876  1.00  0.00     0.203 A 
HETATM   26  F2  UNL     1    -127.925  31.770 129.159  1.00  0.00    -0.185 F 
HETATM   27  N8  UNL     1    -127.195  32.673 127.140  1.00  0.00    -0.284 N 
HETATM   28  C10 UNL     1    -127.348  33.070 125.872  1.00  0.00     0.330 A 
ATOM     29  H8  UNL     1    -126.276  32.774 127.571  1.00  0.00     0.173 HD
HETATM   30  O1  UNL     1    -126.399  33.561 125.198  1.00  0.00    -0.246 OA
HETATM   31  N9  UNL     1    -128.578  32.928 125.318  1.00  0.00    -0.283 N 
HETATM   32  C15 UNL     1    -129.598  32.411 126.017  1.00  0.00     0.116 A 
BRANCH  31  33
HETATM   33  C11 UNL     1    -128.753  33.359 123.950  1.00  0.00     0.154 C 
BRANCH  33  34
HETATM   34  C12 UNL     1    -127.645  32.919 123.050  1.00  0.00     0.134 C 
BRANCH  34  35
HETATM   35  N10 UNL     1    -127.136  34.039 122.320  1.00  0.00    -0.418 N 
ATOM     36  H10 UNL     1    -126.352  33.945 121.675  1.00  0.00     0.153 HD
BRANCH  35  37
HETATM   37  C13 UNL     1    -127.775  35.286 122.537  1.00  0.00     0.139 C 
BRANCH  37  38
HETATM   38  C14 UNL     1    -126.825  36.356 123.062  1.00  0.00     0.183 C 
BRANCH  38  39
HETATM   39  O2  UNL     1    -126.788  36.330 124.464  1.00  0.00    -0.399 OA
ATOM     40  H2  UNL     1    -125.892  36.401 124.772  1.00  0.00     0.209 HD
ENDBRANCH  38  39
ENDBRANCH  37  38
ENDBRANCH  35  37
ENDBRANCH  34  35
ENDBRANCH  33  34
ENDBRANCH  31  33
BRANCH  32  41
HETATM   41  N11 UNL     1    -130.773  32.269 125.530  1.00  0.00    -0.385 N 
ATOM     42 2H11 UNL     1    -131.551  31.881 126.063  1.00  0.00     0.157 HD
ATOM     43 1H11 UNL     1    -130.871  32.569 124.560  1.00  0.00     0.157 HD
ENDBRANCH  32  41
ENDBRANCH   1  24
TORSDOF 13
ENDMDL
MODEL 4
REMARK VINA RESULT: -7.264172484      3.509      7.385
REMARK  13 active torsions:
REMARK  status: ('A' for Active; 'I' for Inactive)
REMARK    1  A    between atoms: N1_1  and  C1_4 
REMARK    2  A    between atoms: C3_9  and  C4_10 
REMARK    3  A    between atoms: C4_10  and  C5_11 
REMARK    4  A    between atoms: C4_10  and  C8_23 
REMARK    5  A    between atoms: C5_11  and  N4_12 
REMARK    6  A    between atoms: C7_19  and  N7_20 
REMARK    7  A    between atoms: N9_30  and  C11_31 
REMARK    8  A    between atoms: C11_31  and  C12_32 
REMARK    9  A    between atoms: C12_32  and  N10_33 
REMARK   10  A    between atoms: N10_33  and  C13_35 
REMARK   11  A    between atoms: C13_35  and  C14_36 
REMARK   12  A    between atoms: C14_36  and  O2_37 
REMARK   13  A    between atoms: C15_39  and  N11_40 
ROOT
HETATM    1  C4  UNL     1    -130.597  31.470 128.054  1.00  0.00     0.091 C 
ENDROOT
BRANCH   1   2
HETATM    2  C3  UNL     1    -131.032  32.323 129.183  1.00  0.00     0.038 A 
HETATM    3  C2  UNL     1    -130.570  32.335 130.484  1.00  0.00     0.132 A 
HETATM    4  N2  UNL     1    -131.137  33.190 131.311  1.00  0.00    -0.325 N 
HETATM    5  N3  UNL     1    -129.497  31.433 130.909  1.00  0.00    -0.082 NA
HETATM    6  C1  UNL     1    -132.108  33.979 130.851  1.00  0.00     0.143 A 
ATOM      7  H2  UNL     1    -130.838  33.247 132.285  1.00  0.00     0.169 HD
HETATM    8  S1  UNL     1    -132.233  33.517 129.219  1.00  0.00    -0.055 SA
BRANCH   6   9
HETATM    9  N1  UNL     1    -132.786  34.888 131.522  1.00  0.00    -0.380 N 
ATOM     10  H12 UNL     1    -132.787  35.093 132.521  1.00  0.00     0.158 HD
ATOM     11  H11 UNL     1    -133.452  35.564 131.149  1.00  0.00     0.158 HD
ENDBRANCH   6   9
ENDBRANCH   1   2
BRANCH   1  12
HETATM   12  C5  UNL     1    -130.448  30.023 128.351  1.00  0.00     0.183 C 
BRANCH  12  13
HETATM   13  N4  UNL     1    -131.483  29.171 127.817  1.00  0.00    -0.120 N 
HETATM   14  N5  UNL     1    -132.236  29.440 126.757  1.00  0.00    -0.244 N 
HETATM   15  C6  UNL     1    -133.113  28.441 126.543  1.00  0.00     0.295 A 
ATOM     16  H5  UNL     1    -132.161  30.283 126.187  1.00  0.00     0.191 HD
HETATM   17  F1  UNL     1    -134.015  28.432 125.533  1.00  0.00    -0.163 F 
HETATM   18  N6  UNL     1    -132.906  27.528 127.486  1.00  0.00    -0.149 N 
HETATM   19  C7  UNL     1    -131.901  27.974 128.273  1.00  0.00     0.696 A 
ATOM     20  H6  UNL     1    -133.412  26.650 127.596  1.00  0.00     0.188 HD
BRANCH  19  21
HETATM   21  N7  UNL     1    -131.415  27.342 129.287  1.00  0.00    -0.233 N 
ATOM     22  H72 UNL     1    -130.747  26.574 129.235  1.00  0.00     0.174 HD
ATOM     23  H71 UNL     1    -131.623  27.537 130.266  1.00  0.00     0.174 HD
ENDBRANCH  19  21
ENDBRANCH  12  13
ENDBRANCH   1  12
BRANCH   1  24
HETATM   24  C8  UNL     1    -129.448  32.016 127.319  1.00  0.00     0.053 A 
HETATM   25  C9  UNL     1    -128.196  32.212 127.861  1.00  0.00     0.203 A 
HETATM   26  F2  UNL     1    -127.953  31.876 129.160  1.00  0.00    -0.185 F 
HETATM   27  N8  UNL     1    -127.189  32.729 127.132  1.00  0.00    -0.284 N 
HETATM   28  C10 UNL     1    -127.318  33.086 125.849  1.00  0.00     0.330 A 
ATOM     29  H8  UNL     1    -126.282  32.855 127.580  1.00  0.00     0.173 HD
HETATM   30  O1  UNL     1    -126.361  33.569 125.183  1.00  0.00    -0.246 OA
HETATM   31  N9  UNL     1    -128.534  32.911 125.272  1.00  0.00    -0.283 N 
HETATM   32  C15 UNL     1    -129.562  32.400 125.964  1.00  0.00     0.116 A 
BRANCH  31  33
HETATM   33  C11 UNL     1    -128.683  33.299 123.888  1.00  0.00     0.154 C 
BRANCH  33  34
HETATM   34  C12 UNL     1    -127.437  33.106 123.088  1.00  0.00     0.134 C 
BRANCH  34  35
HETATM   35  N10 UNL     1    -127.460  31.824 122.454  1.00  0.00    -0.418 N 
ATOM     36  H10 UNL     1    -127.750  31.714 121.482  1.00  0.00     0.153 HD
BRANCH  35  37
HETATM   37  C13 UNL     1    -127.059  30.715 123.240  1.00  0.00     0.139 C 
BRANCH  37  38
HETATM   38  C14 UNL     1    -127.505  29.381 122.654  1.00  0.00     0.183 C 
BRANCH  38  39
HETATM   39  O2  UNL     1    -128.567  28.850 123.401  1.00  0.00    -0.399 OA
ATOM     40  H2  UNL     1    -128.942  28.099 122.956  1.00  0.00     0.209 HD
ENDBRANCH  38  39
ENDBRANCH  37  38
ENDBRANCH  35  37
ENDBRANCH  34  35
ENDBRANCH  33  34
ENDBRANCH  31  33
BRANCH  32  41
HETATM   41  N11 UNL     1    -130.724  32.228 125.455  1.00  0.00    -0.385 N 
ATOM     42 2H11 UNL     1    -131.079  31.311 125.184  1.00  0.00     0.157 HD
ATOM     43 1H11 UNL     1    -131.268  33.082 125.335  1.00  0.00     0.157 HD
ENDBRANCH  32  41
ENDBRANCH   1  24
TORSDOF 13
ENDMDL
MODEL 5
REMARK VINA RESULT: -7.166628691      3.829      7.859
REMARK  13 active torsions:
REMARK  status: ('A' for Active; 'I' for Inactive)
REMARK    1  A    between atoms: N1_1  and  C1_4 
REMARK    2  A    between atoms: C3_9  and  C4_10 
REMARK    3  A    between atoms: C4_10  and  C5_11 
REMARK    4  A    between atoms: C4_10  and  C8_23 
REMARK    5  A    between atoms: C5_11  and  N4_12 
REMARK    6  A    between atoms: C7_19  and  N7_20 
REMARK    7  A    between atoms: N9_30  and  C11_31 
REMARK    8  A    between atoms: C11_31  and  C12_32 
REMARK    9  A    between atoms: C12_32  and  N10_33 
REMARK   10  A    between atoms: N10_33  and  C13_35 
REMARK   11  A    between atoms: C13_35  and  C14_36 
REMARK   12  A    between atoms: C14_36  and  O2_37 
REMARK   13  A    between atoms: C15_39  and  N11_40 
ROOT
HETATM    1  C4  UNL     1    -130.606  31.450 128.218  1.00  0.00     0.091 C 
ENDROOT
BRANCH   1   2
HETATM    2  C3  UNL     1    -131.056  32.332 129.319  1.00  0.00     0.038 A 
HETATM    3  C2  UNL     1    -130.609  32.378 130.625  1.00  0.00     0.132 A 
HETATM    4  N2  UNL     1    -131.187  33.253 131.423  1.00  0.00    -0.325 N 
HETATM    5  N3  UNL     1    -129.541  31.488 131.086  1.00  0.00    -0.082 NA
HETATM    6  C1  UNL     1    -132.153  34.029 130.932  1.00  0.00     0.143 A 
ATOM      7  H2  UNL     1    -130.900  33.336 132.399  1.00  0.00     0.169 HD
HETATM    8  S1  UNL     1    -132.258  33.525 129.311  1.00  0.00    -0.055 SA
BRANCH   6   9
HETATM    9  N1  UNL     1    -132.840  34.954 131.570  1.00  0.00    -0.380 N 
ATOM     10  H12 UNL     1    -133.099  35.008 132.555  1.00  0.00     0.158 HD
ATOM     11  H11 UNL     1    -133.248  35.803 131.180  1.00  0.00     0.158 HD
ENDBRANCH   6   9
ENDBRANCH   1   2
BRANCH   1  12
HETATM   12  C5  UNL     1    -130.469  30.010 128.552  1.00  0.00     0.183 C 
BRANCH  12  13
HETATM   13  N4  UNL     1    -131.476  29.145 127.987  1.00  0.00    -0.120 N 
HETATM   14  N5  UNL     1    -132.205  29.406 126.909  1.00  0.00    -0.244 N 
HETATM   15  C6  UNL     1    -133.060  28.395 126.668  1.00  0.00     0.295 A 
ATOM     16  H5  UNL     1    -132.128  30.253 126.345  1.00  0.00     0.191 HD
HETATM   17  F1  UNL     1    -133.935  28.376 125.634  1.00  0.00    -0.163 F 
HETATM   18  N6  UNL     1    -132.863  27.481 127.612  1.00  0.00    -0.149 N 
HETATM   19  C7  UNL     1    -131.887  27.939 128.428  1.00  0.00     0.696 A 
ATOM     20  H6  UNL     1    -133.359  26.595 127.705  1.00  0.00     0.188 HD
BRANCH  19  21
HETATM   21  N7  UNL     1    -131.418  27.311 129.451  1.00  0.00    -0.233 N 
ATOM     22  H72 UNL     1    -130.630  27.619 130.019  1.00  0.00     0.174 HD
ATOM     23  H71 UNL     1    -131.781  26.437 129.832  1.00  0.00     0.174 HD
ENDBRANCH  19  21
ENDBRANCH  12  13
ENDBRANCH   1  12
BRANCH   1  24
HETATM   24  C8  UNL     1    -129.443  31.974 127.489  1.00  0.00     0.053 A 
HETATM   25  C9  UNL     1    -128.186  32.128 128.033  1.00  0.00     0.203 A 
HETATM   26  F2  UNL     1    -127.951  31.767 129.327  1.00  0.00    -0.185 F 
HETATM   27  N8  UNL     1    -127.166  32.626 127.310  1.00  0.00    -0.284 N 
HETATM   28  C10 UNL     1    -127.285  33.004 126.032  1.00  0.00     0.330 A 
ATOM     29  H8  UNL     1    -126.254  32.721 127.758  1.00  0.00     0.173 HD
HETATM   30  O1  UNL     1    -126.316  33.469 125.371  1.00  0.00    -0.246 OA
HETATM   31  N9  UNL     1    -128.506  32.870 125.454  1.00  0.00    -0.283 N 
HETATM   32  C15 UNL     1    -129.548  32.379 126.140  1.00  0.00     0.116 A 
BRANCH  31  33
HETATM   33  C11 UNL     1    -128.645  33.281 124.076  1.00  0.00     0.154 C 
BRANCH  33  34
HETATM   34  C12 UNL     1    -127.669  32.613 123.164  1.00  0.00     0.134 C 
BRANCH  34  35
HETATM   35  N10 UNL     1    -127.376  33.467 122.055  1.00  0.00    -0.418 N 
ATOM     36  H10 UNL     1    -126.417  33.645 121.755  1.00  0.00     0.153 HD
BRANCH  35  37
HETATM   37  C13 UNL     1    -128.482  34.056 121.393  1.00  0.00     0.139 C 
BRANCH  37  38
HETATM   38  C14 UNL     1    -128.875  33.314 120.120  1.00  0.00     0.183 C 
BRANCH  38  39
HETATM   39  O2  UNL     1    -127.846  32.448 119.723  1.00  0.00    -0.399 OA
ATOM     40  H2  UNL     1    -127.982  32.163 118.827  1.00  0.00     0.209 HD
ENDBRANCH  38  39
ENDBRANCH  37  38
ENDBRANCH  35  37
ENDBRANCH  34  35
ENDBRANCH  33  34
ENDBRANCH  31  33
BRANCH  32  41
HETATM   41  N11 UNL     1    -130.714  32.246 125.630  1.00  0.00    -0.385 N 
ATOM     42 2H11 UNL     1    -131.399  33.001 125.610  1.00  0.00     0.157 HD
ATOM     43 1H11 UNL     1    -130.908  31.321 125.248  1.00  0.00     0.157 HD
ENDBRANCH  32  41
ENDBRANCH   1  24
TORSDOF 13
ENDMDL
