MODEL 1
REMARK VINA RESULT: -7.426675496      0.000      0.000
REMARK  14 active torsions:
REMARK  status: ('A' for Active; 'I' for Inactive)
REMARK    1  A    between atoms: N1_1  and  C1_4 
REMARK    2  A    between atoms: C2_7  and  N3_8 
REMARK    3  A    between atoms: N3_8  and  N4_10 
REMARK    4  A    between atoms: C3_12  and  N5_13 
REMARK    5  A    between atoms: N5_13  and  C4_15 
REMARK    6  A    between atoms: C9_20  and  O1_21 
REMARK    7  A    between atoms: C11_24  and  N6_25 
REMARK    8  A    between atoms: N7_28  and  C12_29 
REMARK    9  A    between atoms: C12_29  and  C13_30 
REMARK   10  A    between atoms: C13_30  and  O2_31 
REMARK   11  A    between atoms: C13_30  and  C14_33 
REMARK   12  A    between atoms: C14_33  and  O3_34 
REMARK   13  A    between atoms: C14_33  and  C15_36 
REMARK   14  A    between atoms: C15_36  and  O4_37 
ROOT
HETATM    1  C1  UNL     1    -127.353  35.537 122.978  1.00  0.00     0.679 A 
HETATM    2  N2  UNL     1    -127.107  34.835 124.116  1.00  0.00    -0.174 N 
ATOM      3  H2  UNL     1    -127.031  35.355 124.991  1.00  0.00     0.186 HD
HETATM    4  C2  UNL     1    -126.959  33.514 124.161  1.00  0.00     0.153 A 
HETATM    5  C10 UNL     1    -127.071  32.843 122.938  1.00  0.00     0.101 A 
HETATM    6  C11 UNL     1    -126.931  31.448 122.886  1.00  0.00     0.135 A 
HETATM    7  N7  UNL     1    -127.037  30.788 121.726  1.00  0.00    -0.259 N 
HETATM    8  N8  UNL     1    -127.277  31.527 120.644  1.00  0.00    -0.237 N 
ATOM      9  H8  UNL     1    -127.361  31.045 119.749  1.00  0.00     0.208 HD
HETATM   10  N9  UNL     1    -127.415  32.834 120.651  1.00  0.00    -0.269 N 
ATOM     11  H9  UNL     1    -127.598  33.320 119.773  1.00  0.00     0.190 HD
HETATM   12  C16 UNL     1    -127.319  33.544 121.787  1.00  0.00     0.154 A 
HETATM   13  N10 UNL     1    -127.459  34.891 121.815  1.00  0.00    -0.174 N 
ATOM     14  H10 UNL     1    -127.642  35.407 120.955  1.00  0.00     0.186 HD
ENDROOT
BRANCH   4  15
HETATM   15  N3  UNL     1    -126.730  32.808 125.201  1.00  0.00    -0.283 N 
ATOM     16  H3  UNL     1    -125.792  32.428 125.327  1.00  0.00     0.188 HD
BRANCH  15  17
HETATM   17  N4  UNL     1    -127.675  32.531 126.162  1.00  0.00    -0.295 N 
HETATM   18  C3  UNL     1    -128.933  32.614 125.942  1.00  0.00     0.197 C 
ATOM     19  H4  UNL     1    -127.359  32.247 127.089  1.00  0.00     0.187 HD
BRANCH  18  20
HETATM   20  N5  UNL     1    -129.934  32.340 126.899  1.00  0.00    -0.349 N 
ATOM     21  H5  UNL     1    -130.123  33.037 127.619  1.00  0.00     0.166 HD
BRANCH  20  22
HETATM   22  C4  UNL     1    -130.682  31.152 126.907  1.00  0.00     0.066 A 
HETATM   23  C5  UNL     1    -130.349  30.032 126.189  1.00  0.00     0.032 A 
HETATM   24  C6  UNL     1    -131.138  28.891 126.245  1.00  0.00     0.002 A 
HETATM   25  C7  UNL     1    -132.249  28.893 127.024  1.00  0.00     0.003 A 
HETATM   26  C8  UNL     1    -132.600  30.000 127.751  1.00  0.00     0.039 A 
HETATM   27  C9  UNL     1    -131.819  31.115 127.687  1.00  0.00     0.092 A 
BRANCH  27  28
HETATM   28  O1  UNL     1    -132.203  32.233 128.440  1.00  0.00    -0.358 OA
ATOM     29  H1  UNL     1    -131.620  32.979 128.528  1.00  0.00     0.217 HD
ENDBRANCH  27  28
ENDBRANCH  20  22
ENDBRANCH  18  20
ENDBRANCH  15  17
ENDBRANCH   4  15
BRANCH   1  30
HETATM   30  N1  UNL     1    -127.480  36.817 123.039  1.00  0.00    -0.234 N 
ATOM     31  H12 UNL     1    -128.375  37.266 122.847  1.00  0.00     0.174 HD
ATOM     32  H11 UNL     1    -126.671  37.388 123.285  1.00  0.00     0.174 HD
ENDBRANCH   1  30
BRANCH   6  33
HETATM   33  N6  UNL     1    -126.684  30.843 123.990  1.00  0.00    -0.383 N 
ATOM     34  H62 UNL     1    -125.879  31.082 124.568  1.00  0.00     0.157 HD
ATOM     35  H61 UNL     1    -127.337  30.114 124.278  1.00  0.00     0.157 HD
ENDBRANCH   6  33
BRANCH   7  36
HETATM   36  C12 UNL     1    -126.908  29.363 121.651  1.00  0.00     0.186 C 
BRANCH  36  37
HETATM   37  C13 UNL     1    -128.135  28.568 121.919  1.00  0.00     0.168 C 
BRANCH  37  38
HETATM   38  O2  UNL     1    -128.949  29.005 122.930  1.00  0.00    -0.391 OA
ATOM     39  H2  UNL     1    -129.244  28.356 123.557  1.00  0.00     0.210 HD
ENDBRANCH  37  38
BRANCH  37  40
HETATM   40  C14 UNL     1    -128.899  28.239 120.657  1.00  0.00     0.172 C 
BRANCH  40  41
HETATM   41  O3  UNL     1    -129.126  29.320 119.844  1.00  0.00    -0.391 OA
ATOM     42  H3  UNL     1    -128.941  30.157 120.253  1.00  0.00     0.210 HD
ENDBRANCH  40  41
BRANCH  40  43
HETATM   43  C15 UNL     1    -130.173  27.503 121.020  1.00  0.00     0.198 C 
BRANCH  43  44
HETATM   44  O4  UNL     1    -129.813  26.228 121.463  1.00  0.00    -0.398 OA
ATOM     45  H4  UNL     1    -129.465  26.317 122.342  1.00  0.00     0.209 HD
ENDBRANCH  43  44
ENDBRANCH  40  43
ENDBRANCH  37  40
ENDBRANCH  36  37
ENDBRANCH   7  36
TORSDOF 14
ENDMDL
MODEL 2
REMARK VINA RESULT: -7.394069269      2.908      6.992
REMARK  14 active torsions:
REMARK  status: ('A' for Active; 'I' for Inactive)
REMARK    1  A    between atoms: N1_1  and  C1_4 
REMARK    2  A    between atoms: C2_7  and  N3_8 
REMARK    3  A    between atoms: N3_8  and  N4_10 
REMARK    4  A    between atoms: C3_12  and  N5_13 
REMARK    5  A    between atoms: N5_13  and  C4_15 
REMARK    6  A    between atoms: C9_20  and  O1_21 
REMARK    7  A    between atoms: C11_24  and  N6_25 
REMARK    8  A    between atoms: N7_28  and  C12_29 
REMARK    9  A    between atoms: C12_29  and  C13_30 
REMARK   10  A    between atoms: C13_30  and  O2_31 
REMARK   11  A    between atoms: C13_30  and  C14_33 
REMARK   12  A    between atoms: C14_33  and  O3_34 
REMARK   13  A    between atoms: C14_33  and  C15_36 
REMARK   14  A    between atoms: C15_36  and  O4_37 
ROOT
HETATM    1  C1  UNL     1    -126.163  32.775 127.539  1.00  0.00     0.679 A 
HETATM    2  N2  UNL     1    -126.553  32.560 126.254  1.00  0.00    -0.174 N 
ATOM      3  H2  UNL     1    -125.887  32.771 125.511  1.00  0.00     0.186 HD
HETATM    4  C2  UNL     1    -127.748  32.090 125.906  1.00  0.00     0.153 A 
HETATM    5  C10 UNL     1    -128.629  31.814 126.958  1.00  0.00     0.101 A 
HETATM    6  C11 UNL     1    -129.912  31.315 126.689  1.00  0.00     0.135 A 
HETATM    7  N7  UNL     1    -130.767  31.043 127.683  1.00  0.00    -0.259 N 
HETATM    8  N8  UNL     1    -130.331  31.274 128.919  1.00  0.00    -0.237 N 
ATOM      9  H8  UNL     1    -130.967  31.075 129.692  1.00  0.00     0.208 HD
HETATM   10  N9  UNL     1    -129.138  31.741 129.213  1.00  0.00    -0.269 N 
ATOM     11  H9  UNL     1    -128.888  31.888 130.191  1.00  0.00     0.190 HD
HETATM   12  C16 UNL     1    -128.242  32.029 128.255  1.00  0.00     0.154 A 
HETATM   13  N10 UNL     1    -127.007  32.510 128.538  1.00  0.00    -0.174 N 
ATOM     14  H10 UNL     1    -126.726  32.669 129.504  1.00  0.00     0.186 HD
ENDROOT
BRANCH   4  15
HETATM   15  N3  UNL     1    -128.162  31.867 124.718  1.00  0.00    -0.283 N 
ATOM     16  H3  UNL     1    -128.990  31.284 124.599  1.00  0.00     0.188 HD
BRANCH  15  17
HETATM   17  N4  UNL     1    -127.556  32.368 123.589  1.00  0.00    -0.295 N 
HETATM   18  C3  UNL     1    -127.489  33.620 123.334  1.00  0.00     0.197 C 
ATOM     19  H4  UNL     1    -127.141  31.713 122.927  1.00  0.00     0.187 HD
BRANCH  18  20
HETATM   20  N5  UNL     1    -126.878  34.174 122.189  1.00  0.00    -0.349 N 
ATOM     21  H5  UNL     1    -125.876  34.361 122.215  1.00  0.00     0.166 HD
BRANCH  20  22
HETATM   22  C4  UNL     1    -127.585  34.481 121.015  1.00  0.00     0.066 A 
HETATM   23  C5  UNL     1    -127.862  35.758 120.598  1.00  0.00     0.032 A 
HETATM   24  C6  UNL     1    -128.567  35.986 119.425  1.00  0.00     0.002 A 
HETATM   25  C7  UNL     1    -128.984  34.925 118.688  1.00  0.00     0.003 A 
HETATM   26  C8  UNL     1    -128.718  33.642 119.085  1.00  0.00     0.039 A 
HETATM   27  C9  UNL     1    -128.025  33.430 120.238  1.00  0.00     0.092 A 
BRANCH  27  28
HETATM   28  O1  UNL     1    -127.768  32.106 120.620  1.00  0.00    -0.358 OA
ATOM     29  H1  UNL     1    -127.625  31.433 119.964  1.00  0.00     0.217 HD
ENDBRANCH  27  28
ENDBRANCH  20  22
ENDBRANCH  18  20
ENDBRANCH  15  17
ENDBRANCH   4  15
BRANCH   1  30
HETATM   30  N1  UNL     1    -124.983  33.234 127.772  1.00  0.00    -0.234 N 
ATOM     31  H12 UNL     1    -124.315  33.376 127.014  1.00  0.00     0.174 HD
ATOM     32  H11 UNL     1    -124.713  33.457 128.730  1.00  0.00     0.174 HD
ENDBRANCH   1  30
BRANCH   6  33
HETATM   33  N6  UNL     1    -130.228  31.147 125.457  1.00  0.00    -0.383 N 
ATOM     34  H62 UNL     1    -131.091  31.522 125.065  1.00  0.00     0.157 HD
ATOM     35  H61 UNL     1    -129.571  30.628 124.874  1.00  0.00     0.157 HD
ENDBRANCH   6  33
BRANCH   7  36
HETATM   36  C12 UNL     1    -132.078  30.521 127.431  1.00  0.00     0.186 C 
BRANCH  36  37
HETATM   37  C13 UNL     1    -132.184  29.053 127.226  1.00  0.00     0.168 C 
BRANCH  37  38
HETATM   38  O2  UNL     1    -132.100  28.599 125.937  1.00  0.00    -0.391 OA
ATOM     39  H2  UNL     1    -132.768  27.988 125.651  1.00  0.00     0.210 HD
ENDBRANCH  37  38
BRANCH  37  40
HETATM   40  C14 UNL     1    -131.307  28.272 128.178  1.00  0.00     0.172 C 
BRANCH  40  41
HETATM   41  O3  UNL     1    -130.118  27.861 127.632  1.00  0.00    -0.391 OA
ATOM     42  H3  UNL     1    -130.215  27.286 126.883  1.00  0.00     0.210 HD
ENDBRANCH  40  41
BRANCH  40  43
HETATM   43  C15 UNL     1    -132.105  27.126 128.768  1.00  0.00     0.198 C 
BRANCH  43  44
HETATM   44  O4  UNL     1    -132.212  26.136 127.788  1.00  0.00    -0.398 OA
ATOM     45  H4  UNL     1    -131.560  25.472 127.978  1.00  0.00     0.209 HD
ENDBRANCH  43  44
ENDBRANCH  40  43
ENDBRANCH  37  40
ENDBRANCH  36  37
ENDBRANCH   7  36
TORSDOF 14
ENDMDL
MODEL 3
REMARK VINA RESULT: -7.327092370      0.845      1.337
REMARK  14 active torsions:
REMARK  status: ('A' for Active; 'I' for Inactive)
REMARK    1  A    between atoms: N1_1  and  C1_4 
REMARK    2  A    between atoms: C2_7  and  N3_8 
REMARK    3  A    between atoms: N3_8  and  N4_10 
REMARK    4  A    between atoms: C3_12  and  N5_13 
REMARK    5  A    between atoms: N5_13  and  C4_15 
REMARK    6  A    between atoms: C9_20  and  O1_21 
REMARK    7  A    between atoms: C11_24  and  N6_25 
REMARK    8  A    between atoms: N7_28  and  C12_29 
REMARK    9  A    between atoms: C12_29  and  C13_30 
REMARK   10  A    between atoms: C13_30  and  O2_31 
REMARK   11  A    between atoms: C13_30  and  C14_33 
REMARK   12  A    between atoms: C14_33  and  O3_34 
REMARK   13  A    between atoms: C14_33  and  C15_36 
REMARK   14  A    between atoms: C15_36  and  O4_37 
ROOT
HETATM    1  C1  UNL     1    -127.160  35.717 123.320  1.00  0.00     0.679 A 
HETATM    2  N2  UNL     1    -126.900  34.844 124.328  1.00  0.00    -0.174 N 
ATOM      3  H2  UNL     1    -126.739  35.225 125.261  1.00  0.00     0.186 HD
HETATM    4  C2  UNL     1    -126.842  33.523 124.176  1.00  0.00     0.153 A 
HETATM    5  C10 UNL     1    -127.068  33.045 122.880  1.00  0.00     0.101 A 
HETATM    6  C11 UNL     1    -127.028  31.667 122.622  1.00  0.00     0.135 A 
HETATM    7  N7  UNL     1    -127.244  31.191 121.390  1.00  0.00    -0.259 N 
HETATM    8  N8  UNL     1    -127.494  32.093 120.442  1.00  0.00    -0.237 N 
ATOM      9  H8  UNL     1    -127.660  31.752 119.495  1.00  0.00     0.208 HD
HETATM   10  N9  UNL     1    -127.540  33.391 120.643  1.00  0.00    -0.269 N 
ATOM     11  H9  UNL     1    -127.738  34.010 119.857  1.00  0.00     0.190 HD
HETATM   12  C16 UNL     1    -127.332  33.920 121.859  1.00  0.00     0.154 A 
HETATM   13  N10 UNL     1    -127.376  35.255 122.087  1.00  0.00    -0.174 N 
ATOM     14  H10 UNL     1    -127.571  35.901 121.322  1.00  0.00     0.186 HD
ENDROOT
BRANCH   4  15
HETATM   15  N3  UNL     1    -126.604  32.661 125.089  1.00  0.00    -0.283 N 
ATOM     16  H3  UNL     1    -125.730  32.138 125.039  1.00  0.00     0.188 HD
BRANCH  15  17
HETATM   17  N4  UNL     1    -127.458  32.397 126.134  1.00  0.00    -0.295 N 
HETATM   18  C3  UNL     1    -128.732  32.403 126.008  1.00  0.00     0.197 C 
ATOM     19  H4  UNL     1    -127.059  32.189 127.049  1.00  0.00     0.187 HD
BRANCH  18  20
HETATM   20  N5  UNL     1    -129.642  32.139 127.055  1.00  0.00    -0.349 N 
ATOM     21  H5  UNL     1    -129.416  32.472 127.991  1.00  0.00     0.166 HD
BRANCH  20  22
HETATM   22  C4  UNL     1    -130.844  31.438 126.866  1.00  0.00     0.066 A 
HETATM   23  C5  UNL     1    -131.072  30.572 125.827  1.00  0.00     0.032 A 
HETATM   24  C6  UNL     1    -132.288  29.914 125.704  1.00  0.00     0.002 A 
HETATM   25  C7  UNL     1    -133.256  30.135 126.630  1.00  0.00     0.003 A 
HETATM   26  C8  UNL     1    -133.049  30.994 127.676  1.00  0.00     0.039 A 
HETATM   27  C9  UNL     1    -131.852  31.635 127.786  1.00  0.00     0.092 A 
BRANCH  27  28
HETATM   28  O1  UNL     1    -131.669  32.510 128.867  1.00  0.00    -0.358 OA
ATOM     29  H1  UNL     1    -131.194  32.229 129.640  1.00  0.00     0.217 HD
ENDBRANCH  27  28
ENDBRANCH  20  22
ENDBRANCH  18  20
ENDBRANCH  15  17
ENDBRANCH   4  15
BRANCH   1  30
HETATM   30  N1  UNL     1    -127.195  36.980 123.570  1.00  0.00    -0.234 N 
ATOM     31  H12 UNL     1    -127.441  37.653 122.844  1.00  0.00     0.174 HD
ATOM     32  H11 UNL     1    -126.972  37.309 124.510  1.00  0.00     0.174 HD
ENDBRANCH   1  30
BRANCH   6  33
HETATM   33  N6  UNL     1    -126.762  30.894 123.611  1.00  0.00    -0.383 N 
ATOM     34  H62 UNL     1    -126.895  31.190 124.578  1.00  0.00     0.157 HD
ATOM     35  H61 UNL     1    -126.421  29.958 123.392  1.00  0.00     0.157 HD
ENDBRANCH   6  33
BRANCH   7  36
HETATM   36  C12 UNL     1    -127.219  29.786 121.105  1.00  0.00     0.186 C 
BRANCH  36  37
HETATM   37  C13 UNL     1    -128.536  29.113 120.957  1.00  0.00     0.168 C 
BRANCH  37  38
HETATM   38  O2  UNL     1    -128.853  28.637 119.713  1.00  0.00    -0.391 OA
ATOM     39  H2  UNL     1    -129.775  28.602 119.488  1.00  0.00     0.210 HD
ENDBRANCH  37  38
BRANCH  37  40
HETATM   40  C14 UNL     1    -128.794  28.102 122.051  1.00  0.00     0.172 C 
BRANCH  40  41
HETATM   41  O3  UNL     1    -129.629  27.079 121.680  1.00  0.00    -0.391 OA
ATOM     42  H3  UNL     1    -130.249  27.313 121.000  1.00  0.00     0.210 HD
ENDBRANCH  40  41
BRANCH  40  43
HETATM   43  C15 UNL     1    -129.270  28.822 123.297  1.00  0.00     0.198 C 
BRANCH  43  44
HETATM   44  O4  UNL     1    -129.213  27.913 124.357  1.00  0.00    -0.398 OA
ATOM     45  H4  UNL     1    -128.664  28.293 125.032  1.00  0.00     0.209 HD
ENDBRANCH  43  44
ENDBRANCH  40  43
ENDBRANCH  37  40
ENDBRANCH  36  37
ENDBRANCH   7  36
TORSDOF 14
ENDMDL
MODEL 4
REMARK VINA RESULT: -7.195787659      2.856      6.933
REMARK  14 active torsions:
REMARK  status: ('A' for Active; 'I' for Inactive)
REMARK    1  A    between atoms: N1_1  and  C1_4 
REMARK    2  A    between atoms: C2_7  and  N3_8 
REMARK    3  A    between atoms: N3_8  and  N4_10 
REMARK    4  A    between atoms: C3_12  and  N5_13 
REMARK    5  A    between atoms: N5_13  and  C4_15 
REMARK    6  A    between atoms: C9_20  and  O1_21 
REMARK    7  A    between atoms: C11_24  and  N6_25 
REMARK    8  A    between atoms: N7_28  and  C12_29 
REMARK    9  A    between atoms: C12_29  and  C13_30 
REMARK   10  A    between atoms: C13_30  and  O2_31 
REMARK   11  A    between atoms: C13_30  and  C14_33 
REMARK   12  A    between atoms: C14_33  and  O3_34 
REMARK   13  A    between atoms: C14_33  and  C15_36 
REMARK   14  A    between atoms: C15_36  and  O4_37 
ROOT
HETATM    1  C1  UNL     1    -126.195  32.719 127.295  1.00  0.00     0.679 A 
HETATM    2  N2  UNL     1    -126.655  32.458 126.042  1.00  0.00    -0.174 N 
ATOM      3  H2  UNL     1    -126.031  32.640 125.256  1.00  0.00     0.186 HD
HETATM    4  C2  UNL     1    -127.867  31.979 125.777  1.00  0.00     0.153 A 
HETATM    5  C10 UNL     1    -128.689  31.743 126.885  1.00  0.00     0.101 A 
HETATM    6  C11 UNL     1    -129.985  31.238 126.704  1.00  0.00     0.135 A 
HETATM    7  N7  UNL     1    -130.785  31.004 127.752  1.00  0.00    -0.259 N 
HETATM    8  N8  UNL     1    -130.282  31.279 128.954  1.00  0.00    -0.237 N 
ATOM      9  H8  UNL     1    -130.875  31.110 129.767  1.00  0.00     0.208 HD
HETATM   10  N9  UNL     1    -129.075  31.753 129.165  1.00  0.00    -0.269 N 
ATOM     11  H9  UNL     1    -128.771  31.936 130.122  1.00  0.00     0.190 HD
HETATM   12  C16 UNL     1    -128.232  32.004 128.150  1.00  0.00     0.154 A 
HETATM   13  N10 UNL     1    -126.984  32.492 128.347  1.00  0.00    -0.174 N 
ATOM     14  H10 UNL     1    -126.650  32.685 129.291  1.00  0.00     0.186 HD
ENDROOT
BRANCH   4  15
HETATM   15  N3  UNL     1    -128.346  31.714 124.622  1.00  0.00    -0.283 N 
ATOM     16  H3  UNL     1    -129.084  31.013 124.557  1.00  0.00     0.188 HD
BRANCH  15  17
HETATM   17  N4  UNL     1    -127.923  32.319 123.461  1.00  0.00    -0.295 N 
HETATM   18  C3  UNL     1    -127.387  31.672 122.496  1.00  0.00     0.197 C 
ATOM     19  H4  UNL     1    -128.042  33.328 123.366  1.00  0.00     0.187 HD
BRANCH  18  20
HETATM   20  N5  UNL     1    -126.940  32.255 121.290  1.00  0.00    -0.349 N 
ATOM     21  H5  UNL     1    -126.165  31.814 120.795  1.00  0.00     0.166 HD
BRANCH  20  22
HETATM   22  C4  UNL     1    -127.511  33.413 120.741  1.00  0.00     0.066 A 
HETATM   23  C5  UNL     1    -128.298  33.422 119.617  1.00  0.00     0.032 A 
HETATM   24  C6  UNL     1    -128.829  34.608 119.130  1.00  0.00     0.002 A 
HETATM   25  C7  UNL     1    -128.562  35.769 119.782  1.00  0.00     0.003 A 
HETATM   26  C8  UNL     1    -127.779  35.783 120.906  1.00  0.00     0.039 A 
HETATM   27  C9  UNL     1    -127.263  34.613 121.374  1.00  0.00     0.092 A 
BRANCH  27  28
HETATM   28  O1  UNL     1    -126.465  34.659 122.526  1.00  0.00    -0.358 OA
ATOM     29  H1  UNL     1    -125.528  34.801 122.459  1.00  0.00     0.217 HD
ENDBRANCH  27  28
ENDBRANCH  20  22
ENDBRANCH  18  20
ENDBRANCH  15  17
ENDBRANCH   4  15
BRANCH   1  30
HETATM   30  N1  UNL     1    -125.004  33.183 127.446  1.00  0.00    -0.234 N 
ATOM     31  H12 UNL     1    -124.193  32.675 127.092  1.00  0.00     0.174 HD
ATOM     32  H11 UNL     1    -124.871  34.072 127.929  1.00  0.00     0.174 HD
ENDBRANCH   1  30
BRANCH   6  33
HETATM   33  N6  UNL     1    -130.368  31.025 125.498  1.00  0.00    -0.383 N 
ATOM     34  H62 UNL     1    -130.029  30.231 124.956  1.00  0.00     0.157 HD
ATOM     35  H61 UNL     1    -131.041  31.681 125.101  1.00  0.00     0.157 HD
ENDBRANCH   6  33
BRANCH   7  36
HETATM   36  C12 UNL     1    -132.108  30.477 127.592  1.00  0.00     0.186 C 
BRANCH  36  37
HETATM   37  C13 UNL     1    -132.220  29.012 127.365  1.00  0.00     0.168 C 
BRANCH  37  38
HETATM   38  O2  UNL     1    -132.144  28.578 126.068  1.00  0.00    -0.391 OA
ATOM     39  H2  UNL     1    -131.312  28.222 125.782  1.00  0.00     0.210 HD
ENDBRANCH  37  38
BRANCH  37  40
HETATM   40  C14 UNL     1    -131.340  28.214 128.299  1.00  0.00     0.172 C 
BRANCH  40  41
HETATM   41  O3  UNL     1    -130.142  27.836 127.751  1.00  0.00    -0.391 OA
ATOM     42  H3  UNL     1    -129.482  28.519 127.756  1.00  0.00     0.210 HD
ENDBRANCH  40  41
BRANCH  40  43
HETATM   43  C15 UNL     1    -132.128  27.040 128.847  1.00  0.00     0.198 C 
BRANCH  43  44
HETATM   44  O4  UNL     1    -132.254  26.100 127.821  1.00  0.00    -0.398 OA
ATOM     45  H4  UNL     1    -133.056  26.295 127.351  1.00  0.00     0.209 HD
ENDBRANCH  43  44
ENDBRANCH  40  43
ENDBRANCH  37  40
ENDBRANCH  36  37
ENDBRANCH   7  36
TORSDOF 14
ENDMDL
MODEL 5
REMARK VINA RESULT: -7.172972974      0.916      1.094
REMARK  14 active torsions:
REMARK  status: ('A' for Active; 'I' for Inactive)
REMARK    1  A    between atoms: N1_1  and  C1_4 
REMARK    2  A    between atoms: C2_7  and  N3_8 
REMARK    3  A    between atoms: N3_8  and  N4_10 
REMARK    4  A    between atoms: C3_12  and  N5_13 
REMARK    5  A    between atoms: N5_13  and  C4_15 
REMARK    6  A    between atoms: C9_20  and  O1_21 
REMARK    7  A    between atoms: C11_24  and  N6_25 
REMARK    8  A    between atoms: N7_28  and  C12_29 
REMARK    9  A    between atoms: C12_29  and  C13_30 
REMARK   10  A    between atoms: C13_30  and  O2_31 
REMARK   11  A    between atoms: C13_30  and  C14_33 
REMARK   12  A    between atoms: C14_33  and  O3_34 
REMARK   13  A    between atoms: C14_33  and  C15_36 
REMARK   14  A    between atoms: C15_36  and  O4_37 
ROOT
HETATM    1  C1  UNL     1    -127.303  35.555 123.007  1.00  0.00     0.679 A 
HETATM    2  N2  UNL     1    -127.030  34.844 124.133  1.00  0.00    -0.174 N 
ATOM      3  H2  UNL     1    -126.927  35.357 125.009  1.00  0.00     0.186 HD
HETATM    4  C2  UNL     1    -126.890  33.522 124.165  1.00  0.00     0.153 A 
HETATM    5  C10 UNL     1    -127.040  32.860 122.941  1.00  0.00     0.101 A 
HETATM    6  C11 UNL     1    -126.910  31.464 122.875  1.00  0.00     0.135 A 
HETATM    7  N7  UNL     1    -127.053  30.814 121.714  1.00  0.00    -0.259 N 
HETATM    8  N8  UNL     1    -127.318  31.562 120.645  1.00  0.00    -0.237 N 
ATOM      9  H8  UNL     1    -127.429  31.087 119.749  1.00  0.00     0.208 HD
HETATM   10  N9  UNL     1    -127.447  32.869 120.665  1.00  0.00    -0.269 N 
ATOM     11  H9  UNL     1    -127.651  33.363 119.795  1.00  0.00     0.190 HD
HETATM   12  C16 UNL     1    -127.315  33.570 121.802  1.00  0.00     0.154 A 
HETATM   13  N10 UNL     1    -127.444  34.918 121.843  1.00  0.00    -0.174 N 
ATOM     14  H10 UNL     1    -127.648  35.441 120.992  1.00  0.00     0.186 HD
ENDROOT
BRANCH   4  15
HETATM   15  N3  UNL     1    -126.637  32.807 125.194  1.00  0.00    -0.283 N 
ATOM     16  H3  UNL     1    -125.679  32.484 125.330  1.00  0.00     0.188 HD
BRANCH  15  17
HETATM   17  N4  UNL     1    -127.581  32.448 126.128  1.00  0.00    -0.295 N 
HETATM   18  C3  UNL     1    -128.836  32.618 125.947  1.00  0.00     0.197 C 
ATOM     19  H4  UNL     1    -127.267  32.028 127.002  1.00  0.00     0.187 HD
BRANCH  18  20
HETATM   20  N5  UNL     1    -129.836  32.266 126.879  1.00  0.00    -0.349 N 
ATOM     21  H5  UNL     1    -130.089  32.941 127.600  1.00  0.00     0.166 HD
BRANCH  20  22
HETATM   22  C4  UNL     1    -130.499  31.028 126.860  1.00  0.00     0.066 A 
HETATM   23  C5  UNL     1    -130.678  30.237 127.965  1.00  0.00     0.032 A 
HETATM   24  C6  UNL     1    -131.344  29.023 127.871  1.00  0.00     0.002 A 
HETATM   25  C7  UNL     1    -131.822  28.623 126.665  1.00  0.00     0.003 A 
HETATM   26  C8  UNL     1    -131.656  29.399 125.548  1.00  0.00     0.039 A 
HETATM   27  C9  UNL     1    -131.000  30.588 125.652  1.00  0.00     0.092 A 
BRANCH  27  28
HETATM   28  O1  UNL     1    -130.844  31.359 124.492  1.00  0.00    -0.358 OA
ATOM     29  H1  UNL     1    -131.569  31.869 124.150  1.00  0.00     0.217 HD
ENDBRANCH  27  28
ENDBRANCH  20  22
ENDBRANCH  18  20
ENDBRANCH  15  17
ENDBRANCH   4  15
BRANCH   1  30
HETATM   30  N1  UNL     1    -127.419  36.835 123.081  1.00  0.00    -0.234 N 
ATOM     31  H12 UNL     1    -127.682  37.289 123.956  1.00  0.00     0.174 HD
ATOM     32  H11 UNL     1    -127.246  37.402 122.251  1.00  0.00     0.174 HD
ENDBRANCH   1  30
BRANCH   6  33
HETATM   33  N6  UNL     1    -126.637  30.850 123.968  1.00  0.00    -0.383 N 
ATOM     34  H62 UNL     1    -127.075  29.961 124.211  1.00  0.00     0.157 HD
ATOM     35  H61 UNL     1    -125.950  31.281 124.586  1.00  0.00     0.157 HD
ENDBRANCH   6  33
BRANCH   7  36
HETATM   36  C12 UNL     1    -126.936  29.388 121.626  1.00  0.00     0.186 C 
BRANCH  36  37
HETATM   37  C13 UNL     1    -128.164  28.600 121.908  1.00  0.00     0.168 C 
BRANCH  37  38
HETATM   38  O2  UNL     1    -128.980  29.060 122.907  1.00  0.00    -0.391 OA
ATOM     39  H2  UNL     1    -129.481  28.411 123.386  1.00  0.00     0.210 HD
ENDBRANCH  37  38
BRANCH  37  40
HETATM   40  C14 UNL     1    -128.924  28.243 120.651  1.00  0.00     0.172 C 
BRANCH  40  41
HETATM   41  O3  UNL     1    -129.162  29.309 119.822  1.00  0.00    -0.391 OA
ATOM     42  H3  UNL     1    -129.221  30.143 120.271  1.00  0.00     0.210 HD
ENDBRANCH  40  41
BRANCH  40  43
HETATM   43  C15 UNL     1    -130.191  27.500 121.026  1.00  0.00     0.198 C 
BRANCH  43  44
HETATM   44  O4  UNL     1    -129.818  26.230 121.474  1.00  0.00    -0.398 OA
ATOM     45  H4  UNL     1    -130.613  25.756 121.687  1.00  0.00     0.209 HD
ENDBRANCH  43  44
ENDBRANCH  40  43
ENDBRANCH  37  40
ENDBRANCH  36  37
ENDBRANCH   7  36
TORSDOF 14
ENDMDL
