MODEL 1
REMARK VINA RESULT: -8.867592861      0.000      0.000
REMARK  12 active torsions:
REMARK  status: ('A' for Active; 'I' for Inactive)
REMARK    1  A    between atoms: C3_4  and  C4_5 
REMARK    2  A    between atoms: C4_5  and  O2_6 
REMARK    3  A    between atoms: C4_5  and  C5_8 
REMARK    4  A    between atoms: C5_8  and  O3_9 
REMARK    5  A    between atoms: C5_8  and  C6_11 
REMARK    6  A    between atoms: C6_11  and  O4_12 
REMARK    7  A    between atoms: C6_11  and  C7_14 
REMARK    8  A    between atoms: C7_14  and  O5_15 
REMARK    9  A    between atoms: C8_19  and  C9_20 
REMARK   10  A    between atoms: C9_20  and  N2_21 
REMARK   11  A    between atoms: N2_21  and  C10_23 
REMARK   12  A    between atoms: C14_33  and  N6_34 
REMARK       I    between atoms: N6_34  and  C15_36 
REMARK       I    between atoms: C15_36  and  N7_37 
REMARK       I    between atoms: C15_36  and  N8_41 
ROOT
HETATM    1  C10 UNL     1    -127.252  33.683 123.750  1.00  0.00     0.046 C 
HETATM    2  C11 UNL     1    -127.272  34.879 123.075  1.00  0.00     0.119 C 
HETATM    3  N3  UNL     1    -127.239  35.089 121.721  1.00  0.00    -0.347 N 
ATOM      4  H3  UNL     1    -126.722  35.897 121.375  1.00  0.00     0.167 HD
HETATM    5  C12 UNL     1    -127.861  34.276 120.801  1.00  0.00     0.150 A 
HETATM    6  N4  UNL     1    -128.565  34.198 119.673  1.00  0.00    -0.283 N 
ATOM      7  H4  UNL     1    -128.917  34.893 119.014  1.00  0.00     0.188 HD
HETATM    8  N5  UNL     1    -128.637  32.873 119.728  1.00  0.00    -0.293 N 
ATOM      9  H5  UNL     1    -129.053  32.143 119.151  1.00  0.00     0.187 HD
HETATM   10  C13 UNL     1    -127.940  32.904 120.846  1.00  0.00     0.120 A 
HETATM   11  C14 UNL     1    -127.383  32.059 121.844  1.00  0.00     0.065 C 
HETATM   12  C16 UNL     1    -127.210  32.419 123.180  1.00  0.00     0.062 C 
ENDROOT
BRANCH   1  13
HETATM   13  N2  UNL     1    -127.280  33.733 125.200  1.00  0.00    -0.383 N 
ATOM     14  H2  UNL     1    -127.440  34.624 125.669  1.00  0.00     0.160 HD
BRANCH  13  15
HETATM   15  C9  UNL     1    -127.086  32.553 125.980  1.00  0.00     0.179 C 
BRANCH  15  16
HETATM   16  C8  UNL     1    -128.158  32.362 126.994  1.00  0.00     0.058 A 
HETATM   17  C2  UNL     1    -127.908  32.044 128.329  1.00  0.00     0.076 A 
HETATM   18  C1  UNL     1    -126.548  32.076 128.923  1.00  0.00     0.079 C 
HETATM   19  O1  UNL     1    -129.015  31.747 128.879  1.00  0.00    -0.294 OA
HETATM   20  C3  UNL     1    -130.018  31.847 127.988  1.00  0.00     0.180 A 
HETATM   21  N1  UNL     1    -129.471  32.234 126.826  1.00  0.00    -0.335 N 
ATOM     22  H1  UNL     1    -129.978  32.403 125.958  1.00  0.00     0.168 HD
BRANCH  20  23
HETATM   23  C4  UNL     1    -131.421  31.555 128.331  1.00  0.00     0.126 C 
BRANCH  23  24
HETATM   24  O2  UNL     1    -132.237  32.640 128.508  1.00  0.00    -0.358 OA
ATOM     25  H2  UNL     1    -132.983  32.703 127.923  1.00  0.00     0.217 HD
ENDBRANCH  23  24
BRANCH  23  26
HETATM   26  C5  UNL     1    -132.026  30.347 127.726  1.00  0.00     0.209 C 
BRANCH  26  27
HETATM   27  O3  UNL     1    -130.976  29.468 127.380  1.00  0.00    -0.386 OA
ATOM     28  H3  UNL     1    -130.789  29.590 126.456  1.00  0.00     0.210 HD
ENDBRANCH  26  27
BRANCH  26  29
HETATM   29  C6  UNL     1    -132.946  30.559 126.583  1.00  0.00     0.177 C 
BRANCH  29  30
HETATM   30  O4  UNL     1    -134.259  30.272 126.805  1.00  0.00    -0.390 OA
ATOM     31  H4  UNL     1    -134.459  29.373 127.038  1.00  0.00     0.210 HD
ENDBRANCH  29  30
BRANCH  29  32
HETATM   32  C7  UNL     1    -132.403  30.041 125.296  1.00  0.00     0.198 C 
BRANCH  32  33
HETATM   33  O5  UNL     1    -131.340  30.725 124.781  1.00  0.00    -0.398 OA
ATOM     34  H5  UNL     1    -131.551  31.522 124.308  1.00  0.00     0.209 HD
ENDBRANCH  32  33
ENDBRANCH  29  32
ENDBRANCH  26  29
ENDBRANCH  23  26
ENDBRANCH  20  23
ENDBRANCH  15  16
ENDBRANCH  13  15
ENDBRANCH   1  13
BRANCH  11  35
HETATM   35  N6  UNL     1    -127.062  30.936 121.418  1.00  0.00    -0.339 N 
HETATM   36  C15 UNL     1    -127.420  29.653 121.804  1.00  0.00     0.480 C 
HETATM   37  N7  UNL     1    -128.181  28.934 120.777  1.00  0.00    -0.033 N 
HETATM   38  N8  UNL     1    -126.158  28.906 122.046  1.00  0.00    -0.033 N 
ATOM     39  H73 UNL     1    -129.000  29.470 120.490  1.00  0.00     0.278 HD
ATOM     40  H72 UNL     1    -127.672  28.919 119.893  1.00  0.00     0.278 HD
ATOM     41  H71 UNL     1    -128.444  27.991 121.061  1.00  0.00     0.278 HD
ATOM     42  H83 UNL     1    -125.523  28.923 121.249  1.00  0.00     0.278 HD
ATOM     43  H82 UNL     1    -125.540  29.368 122.713  1.00  0.00     0.278 HD
ATOM     44  H81 UNL     1    -126.422  27.963 122.330  1.00  0.00     0.278 HD
ATOM     45  H6  UNL     1    -126.410  30.964 120.633  1.00  0.00     0.163 HD
ENDBRANCH  11  35
TORSDOF 12
ENDMDL
MODEL 2
REMARK VINA RESULT: -8.639577009      0.804      1.271
REMARK  12 active torsions:
REMARK  status: ('A' for Active; 'I' for Inactive)
REMARK    1  A    between atoms: C3_4  and  C4_5 
REMARK    2  A    between atoms: C4_5  and  O2_6 
REMARK    3  A    between atoms: C4_5  and  C5_8 
REMARK    4  A    between atoms: C5_8  and  O3_9 
REMARK    5  A    between atoms: C5_8  and  C6_11 
REMARK    6  A    between atoms: C6_11  and  O4_12 
REMARK    7  A    between atoms: C6_11  and  C7_14 
REMARK    8  A    between atoms: C7_14  and  O5_15 
REMARK    9  A    between atoms: C8_19  and  C9_20 
REMARK   10  A    between atoms: C9_20  and  N2_21 
REMARK   11  A    between atoms: N2_21  and  C10_23 
REMARK   12  A    between atoms: C14_33  and  N6_34 
REMARK       I    between atoms: N6_34  and  C15_36 
REMARK       I    between atoms: C15_36  and  N7_37 
REMARK       I    between atoms: C15_36  and  N8_41 
ROOT
HETATM    1  C10 UNL     1    -127.187  33.743 123.753  1.00  0.00     0.046 C 
HETATM    2  C11 UNL     1    -127.223  34.933 123.067  1.00  0.00     0.119 C 
HETATM    3  N3  UNL     1    -127.223  35.129 121.711  1.00  0.00    -0.347 N 
ATOM      4  H3  UNL     1    -126.714  35.933 121.344  1.00  0.00     0.167 HD
HETATM    5  C12 UNL     1    -127.868  34.308 120.814  1.00  0.00     0.150 A 
HETATM    6  N4  UNL     1    -128.599  34.219 119.704  1.00  0.00    -0.283 N 
ATOM      7  H4  UNL     1    -128.967  34.909 119.047  1.00  0.00     0.188 HD
HETATM    8  N5  UNL     1    -128.671  32.895 119.774  1.00  0.00    -0.293 N 
ATOM      9  H5  UNL     1    -129.101  32.160 119.214  1.00  0.00     0.187 HD
HETATM   10  C13 UNL     1    -127.946  32.937 120.874  1.00  0.00     0.120 A 
HETATM   11  C14 UNL     1    -127.366  32.101 121.866  1.00  0.00     0.065 C 
HETATM   12  C16 UNL     1    -127.159  32.473 123.194  1.00  0.00     0.062 C 
ENDROOT
BRANCH   1  13
HETATM   13  N2  UNL     1    -127.179  33.807 125.202  1.00  0.00    -0.383 N 
ATOM     14  H2  UNL     1    -127.312  34.705 125.667  1.00  0.00     0.160 HD
BRANCH  13  15
HETATM   15  C9  UNL     1    -126.986  32.631 125.989  1.00  0.00     0.179 C 
BRANCH  15  16
HETATM   16  C8  UNL     1    -128.135  32.361 126.894  1.00  0.00     0.058 A 
HETATM   17  C2  UNL     1    -127.992  31.995 128.233  1.00  0.00     0.076 A 
HETATM   18  C1  UNL     1    -126.692  32.047 128.947  1.00  0.00     0.079 C 
HETATM   19  O1  UNL     1    -129.132  31.636 128.669  1.00  0.00    -0.294 OA
HETATM   20  C3  UNL     1    -130.055  31.740 127.696  1.00  0.00     0.180 A 
HETATM   21  N1  UNL     1    -129.422  32.196 126.604  1.00  0.00    -0.335 N 
ATOM     22  H1  UNL     1    -129.857  32.383 125.701  1.00  0.00     0.168 HD
BRANCH  20  23
HETATM   23  C4  UNL     1    -131.471  31.387 127.899  1.00  0.00     0.126 C 
BRANCH  23  24
HETATM   24  O2  UNL     1    -132.261  32.356 128.455  1.00  0.00    -0.358 OA
ATOM     25  H2  UNL     1    -132.312  32.363 129.404  1.00  0.00     0.217 HD
ENDBRANCH  23  24
BRANCH  23  26
HETATM   26  C5  UNL     1    -132.097  30.503 126.891  1.00  0.00     0.209 C 
BRANCH  26  27
HETATM   27  O3  UNL     1    -133.356  31.052 126.560  1.00  0.00    -0.386 OA
ATOM     28  H3  UNL     1    -134.017  30.397 126.754  1.00  0.00     0.210 HD
ENDBRANCH  26  27
BRANCH  26  29
HETATM   29  C6  UNL     1    -132.215  29.066 127.241  1.00  0.00     0.177 C 
BRANCH  29  30
HETATM   30  O4  UNL     1    -132.690  28.786 128.486  1.00  0.00    -0.390 OA
ATOM     31  H4  UNL     1    -132.043  28.718 129.178  1.00  0.00     0.210 HD
ENDBRANCH  29  30
BRANCH  29  32
HETATM   32  C7  UNL     1    -131.023  28.270 126.835  1.00  0.00     0.198 C 
BRANCH  32  33
HETATM   33  O5  UNL     1    -130.167  27.927 127.840  1.00  0.00    -0.398 OA
ATOM     34  H5  UNL     1    -129.808  27.048 127.796  1.00  0.00     0.209 HD
ENDBRANCH  32  33
ENDBRANCH  29  32
ENDBRANCH  26  29
ENDBRANCH  23  26
ENDBRANCH  20  23
ENDBRANCH  15  16
ENDBRANCH  13  15
ENDBRANCH   1  13
BRANCH  11  35
HETATM   35  N6  UNL     1    -127.056  30.973 121.443  1.00  0.00    -0.339 N 
HETATM   36  C15 UNL     1    -127.438  29.695 121.823  1.00  0.00     0.480 C 
HETATM   37  N7  UNL     1    -128.196  28.989 120.786  1.00  0.00    -0.033 N 
HETATM   38  N8  UNL     1    -126.190  28.930 122.081  1.00  0.00    -0.033 N 
ATOM     39  H73 UNL     1    -129.003  29.536 120.489  1.00  0.00     0.278 HD
ATOM     40  H72 UNL     1    -127.676  28.967 119.909  1.00  0.00     0.278 HD
ATOM     41  H71 UNL     1    -128.476  28.049 121.066  1.00  0.00     0.278 HD
ATOM     42  H83 UNL     1    -125.544  28.938 121.291  1.00  0.00     0.278 HD
ATOM     43  H82 UNL     1    -125.573  29.382 122.755  1.00  0.00     0.278 HD
ATOM     44  H81 UNL     1    -126.470  27.990 122.361  1.00  0.00     0.278 HD
ATOM     45  H6  UNL     1    -126.394  30.992 120.667  1.00  0.00     0.163 HD
ENDBRANCH  11  35
TORSDOF 12
ENDMDL
MODEL 3
REMARK VINA RESULT: -8.328614349      1.379      2.090
REMARK  12 active torsions:
REMARK  status: ('A' for Active; 'I' for Inactive)
REMARK    1  A    between atoms: C3_4  and  C4_5 
REMARK    2  A    between atoms: C4_5  and  O2_6 
REMARK    3  A    between atoms: C4_5  and  C5_8 
REMARK    4  A    between atoms: C5_8  and  O3_9 
REMARK    5  A    between atoms: C5_8  and  C6_11 
REMARK    6  A    between atoms: C6_11  and  O4_12 
REMARK    7  A    between atoms: C6_11  and  C7_14 
REMARK    8  A    between atoms: C7_14  and  O5_15 
REMARK    9  A    between atoms: C8_19  and  C9_20 
REMARK   10  A    between atoms: C9_20  and  N2_21 
REMARK   11  A    between atoms: N2_21  and  C10_23 
REMARK   12  A    between atoms: C14_33  and  N6_34 
REMARK       I    between atoms: N6_34  and  C15_36 
REMARK       I    between atoms: C15_36  and  N7_37 
REMARK       I    between atoms: C15_36  and  N8_41 
ROOT
HETATM    1  C10 UNL     1    -127.442  33.516 124.107  1.00  0.00     0.046 C 
HETATM    2  C11 UNL     1    -127.378  34.745 123.496  1.00  0.00     0.119 C 
HETATM    3  N3  UNL     1    -127.189  35.021 122.167  1.00  0.00    -0.347 N 
ATOM      4  H3  UNL     1    -126.631  35.839 121.923  1.00  0.00     0.167 HD
HETATM    5  C12 UNL     1    -127.708  34.263 121.142  1.00  0.00     0.150 A 
HETATM    6  N4  UNL     1    -128.280  34.249 119.939  1.00  0.00    -0.283 N 
ATOM      7  H4  UNL     1    -128.550  34.981 119.281  1.00  0.00     0.188 HD
HETATM    8  N5  UNL     1    -128.365  32.924 119.918  1.00  0.00    -0.293 N 
ATOM      9  H5  UNL     1    -128.718  32.228 119.261  1.00  0.00     0.187 HD
HETATM   10  C13 UNL     1    -127.800  32.891 121.108  1.00  0.00     0.120 A 
HETATM   11  C14 UNL     1    -127.366  31.991 122.119  1.00  0.00     0.065 C 
HETATM   12  C16 UNL     1    -127.343  32.281 123.482  1.00  0.00     0.062 C 
ENDROOT
BRANCH   1  13
HETATM   13  N2  UNL     1    -127.634  33.494 125.545  1.00  0.00    -0.383 N 
ATOM     14  H2  UNL     1    -127.765  34.372 126.049  1.00  0.00     0.160 HD
BRANCH  13  15
HETATM   15  C9  UNL     1    -127.643  32.262 126.267  1.00  0.00     0.179 C 
BRANCH  15  16
HETATM   16  C8  UNL     1    -129.005  31.888 126.732  1.00  0.00     0.058 A 
HETATM   17  C2  UNL     1    -129.344  31.724 128.076  1.00  0.00     0.076 A 
HETATM   18  C1  UNL     1    -128.440  32.115 129.186  1.00  0.00     0.079 C 
HETATM   19  O1  UNL     1    -130.505  31.208 128.132  1.00  0.00    -0.294 OA
HETATM   20  C3  UNL     1    -130.985  31.011 126.891  1.00  0.00     0.180 A 
HETATM   21  N1  UNL     1    -130.047  31.442 126.035  1.00  0.00    -0.335 N 
ATOM     22  H1  UNL     1    -130.120  31.429 125.018  1.00  0.00     0.168 HD
BRANCH  20  23
HETATM   23  C4  UNL     1    -132.310  30.418 126.634  1.00  0.00     0.126 C 
BRANCH  23  24
HETATM   24  O2  UNL     1    -132.768  30.499 125.347  1.00  0.00    -0.358 OA
ATOM     25  H2  UNL     1    -133.510  29.947 125.131  1.00  0.00     0.217 HD
ENDBRANCH  23  24
BRANCH  23  26
HETATM   26  C5  UNL     1    -132.665  29.203 127.401  1.00  0.00     0.209 C 
BRANCH  26  27
HETATM   27  O3  UNL     1    -133.195  29.619 128.643  1.00  0.00    -0.386 OA
ATOM     28  H3  UNL     1    -133.546  30.495 128.529  1.00  0.00     0.210 HD
ENDBRANCH  26  27
BRANCH  26  29
HETATM   29  C6  UNL     1    -131.596  28.192 127.588  1.00  0.00     0.177 C 
BRANCH  29  30
HETATM   30  O4  UNL     1    -131.271  27.451 126.492  1.00  0.00    -0.390 OA
ATOM     31  H4  UNL     1    -130.603  26.787 126.618  1.00  0.00     0.210 HD
ENDBRANCH  29  30
BRANCH  29  32
HETATM   32  C7  UNL     1    -131.749  27.410 128.846  1.00  0.00     0.198 C 
BRANCH  32  33
HETATM   33  O5  UNL     1    -132.825  26.572 128.899  1.00  0.00    -0.398 OA
ATOM     34  H5  UNL     1    -132.880  25.926 128.204  1.00  0.00     0.209 HD
ENDBRANCH  32  33
ENDBRANCH  29  32
ENDBRANCH  26  29
ENDBRANCH  23  26
ENDBRANCH  20  23
ENDBRANCH  15  16
ENDBRANCH  13  15
ENDBRANCH   1  13
BRANCH  11  35
HETATM   35  N6  UNL     1    -127.006  30.886 121.675  1.00  0.00    -0.339 N 
HETATM   36  C15 UNL     1    -127.363  29.587 122.001  1.00  0.00     0.480 C 
HETATM   37  N7  UNL     1    -128.058  28.891 120.914  1.00  0.00    -0.033 N 
HETATM   38  N8  UNL     1    -126.104  28.850 122.286  1.00  0.00    -0.033 N 
ATOM     39  H73 UNL     1    -128.869  29.423 120.601  1.00  0.00     0.278 HD
ATOM     40  H72 UNL     1    -127.504  28.911 120.058  1.00  0.00     0.278 HD
ATOM     41  H71 UNL     1    -128.320  27.935 121.154  1.00  0.00     0.278 HD
ATOM     42  H83 UNL     1    -125.428  28.901 121.523  1.00  0.00     0.278 HD
ATOM     43  H82 UNL     1    -125.528  29.299 122.998  1.00  0.00     0.278 HD
ATOM     44  H81 UNL     1    -126.366  27.895 122.526  1.00  0.00     0.278 HD
ATOM     45  H6  UNL     1    -126.314  30.948 120.927  1.00  0.00     0.163 HD
ENDBRANCH  11  35
TORSDOF 12
ENDMDL
MODEL 4
REMARK VINA RESULT: -8.175420733      1.126      1.577
REMARK  12 active torsions:
REMARK  status: ('A' for Active; 'I' for Inactive)
REMARK    1  A    between atoms: C3_4  and  C4_5 
REMARK    2  A    between atoms: C4_5  and  O2_6 
REMARK    3  A    between atoms: C4_5  and  C5_8 
REMARK    4  A    between atoms: C5_8  and  O3_9 
REMARK    5  A    between atoms: C5_8  and  C6_11 
REMARK    6  A    between atoms: C6_11  and  O4_12 
REMARK    7  A    between atoms: C6_11  and  C7_14 
REMARK    8  A    between atoms: C7_14  and  O5_15 
REMARK    9  A    between atoms: C8_19  and  C9_20 
REMARK   10  A    between atoms: C9_20  and  N2_21 
REMARK   11  A    between atoms: N2_21  and  C10_23 
REMARK   12  A    between atoms: C14_33  and  N6_34 
REMARK       I    between atoms: N6_34  and  C15_36 
REMARK       I    between atoms: C15_36  and  N7_37 
REMARK       I    between atoms: C15_36  and  N8_41 
ROOT
HETATM    1  C10 UNL     1    -127.076  33.997 123.491  1.00  0.00     0.046 C 
HETATM    2  C11 UNL     1    -127.185  35.142 122.740  1.00  0.00     0.119 C 
HETATM    3  N3  UNL     1    -127.277  35.255 121.377  1.00  0.00    -0.347 N 
ATOM      4  H3  UNL     1    -126.813  36.045 120.930  1.00  0.00     0.167 HD
HETATM    5  C12 UNL     1    -127.958  34.367 120.575  1.00  0.00     0.150 A 
HETATM    6  N4  UNL     1    -128.758  34.195 119.523  1.00  0.00    -0.283 N 
ATOM      7  H4  UNL     1    -129.183  34.836 118.852  1.00  0.00     0.188 HD
HETATM    8  N5  UNL     1    -128.792  32.877 119.676  1.00  0.00    -0.293 N 
ATOM      9  H5  UNL     1    -129.240  32.100 119.191  1.00  0.00     0.187 HD
HETATM   10  C13 UNL     1    -127.999  33.001 120.722  1.00  0.00     0.120 A 
HETATM   11  C14 UNL     1    -127.336  32.239 121.722  1.00  0.00     0.065 C 
HETATM   12  C16 UNL     1    -127.054  32.696 123.009  1.00  0.00     0.062 C 
ENDROOT
BRANCH   1  13
HETATM   13  N2  UNL     1    -126.977  34.150 124.931  1.00  0.00    -0.383 N 
ATOM     14  H2  UNL     1    -127.086  35.075 125.347  1.00  0.00     0.160 HD
BRANCH  13  15
HETATM   15  C9  UNL     1    -126.727  33.025 125.774  1.00  0.00     0.179 C 
BRANCH  15  16
HETATM   16  C8  UNL     1    -127.982  32.392 126.260  1.00  0.00     0.058 A 
HETATM   17  C2  UNL     1    -128.112  31.805 127.519  1.00  0.00     0.076 A 
HETATM   18  C1  UNL     1    -127.085  31.942 128.580  1.00  0.00     0.079 C 
HETATM   19  O1  UNL     1    -129.219  31.178 127.551  1.00  0.00    -0.294 OA
HETATM   20  C3  UNL     1    -129.859  31.307 126.375  1.00  0.00     0.180 A 
HETATM   21  N1  UNL     1    -129.083  32.066 125.587  1.00  0.00    -0.335 N 
ATOM     22  H1  UNL     1    -129.300  32.347 124.631  1.00  0.00     0.168 HD
BRANCH  20  23
HETATM   23  C4  UNL     1    -131.167  30.683 126.107  1.00  0.00     0.126 C 
BRANCH  23  24
HETATM   24  O2  UNL     1    -131.629  30.776 124.822  1.00  0.00    -0.358 OA
ATOM     25  H2  UNL     1    -130.969  30.806 124.140  1.00  0.00     0.217 HD
ENDBRANCH  23  24
BRANCH  23  26
HETATM   26  C5  UNL     1    -131.488  29.445 126.851  1.00  0.00     0.209 C 
BRANCH  26  27
HETATM   27  O3  UNL     1    -132.002  28.508 125.926  1.00  0.00    -0.386 OA
ATOM     28  H3  UNL     1    -131.268  28.142 125.447  1.00  0.00     0.210 HD
ENDBRANCH  26  27
BRANCH  26  29
HETATM   29  C6  UNL     1    -132.382  29.582 128.026  1.00  0.00     0.177 C 
BRANCH  29  30
HETATM   30  O4  UNL     1    -132.738  28.425 128.650  1.00  0.00    -0.390 OA
ATOM     31  H4  UNL     1    -133.571  28.433 129.107  1.00  0.00     0.210 HD
ENDBRANCH  29  30
BRANCH  29  32
HETATM   32  C7  UNL     1    -133.502  30.537 127.796  1.00  0.00     0.198 C 
BRANCH  32  33
HETATM   33  O5  UNL     1    -134.277  30.292 126.700  1.00  0.00    -0.398 OA
ATOM     34  H5  UNL     1    -134.074  29.497 126.219  1.00  0.00     0.209 HD
ENDBRANCH  32  33
ENDBRANCH  29  32
ENDBRANCH  26  29
ENDBRANCH  23  26
ENDBRANCH  20  23
ENDBRANCH  15  16
ENDBRANCH  13  15
ENDBRANCH   1  13
BRANCH  11  35
HETATM   35  N6  UNL     1    -127.027  31.094 121.348  1.00  0.00    -0.339 N 
HETATM   36  C15 UNL     1    -127.473  29.836 121.723  1.00  0.00     0.480 C 
HETATM   37  N7  UNL     1    -128.168  29.127 120.645  1.00  0.00    -0.033 N 
HETATM   38  N8  UNL     1    -126.272  29.043 122.094  1.00  0.00    -0.033 N 
ATOM     39  H73 UNL     1    -128.934  29.689 120.274  1.00  0.00     0.278 HD
ATOM     40  H72 UNL     1    -127.583  29.071 119.811  1.00  0.00     0.278 HD
ATOM     41  H71 UNL     1    -128.496  28.202 120.921  1.00  0.00     0.278 HD
ATOM     42  H83 UNL     1    -125.567  29.016 121.357  1.00  0.00     0.278 HD
ATOM     43  H82 UNL     1    -125.697  29.494 122.805  1.00  0.00     0.278 HD
ATOM     44  H81 UNL     1    -126.600  28.118 122.370  1.00  0.00     0.278 HD
ATOM     45  H6  UNL     1    -126.306  31.077 120.626  1.00  0.00     0.163 HD
ENDBRANCH  11  35
TORSDOF 12
ENDMDL
MODEL 5
REMARK VINA RESULT: -7.925834725      1.902      2.777
REMARK  12 active torsions:
REMARK  status: ('A' for Active; 'I' for Inactive)
REMARK    1  A    between atoms: C3_4  and  C4_5 
REMARK    2  A    between atoms: C4_5  and  O2_6 
REMARK    3  A    between atoms: C4_5  and  C5_8 
REMARK    4  A    between atoms: C5_8  and  O3_9 
REMARK    5  A    between atoms: C5_8  and  C6_11 
REMARK    6  A    between atoms: C6_11  and  O4_12 
REMARK    7  A    between atoms: C6_11  and  C7_14 
REMARK    8  A    between atoms: C7_14  and  O5_15 
REMARK    9  A    between atoms: C8_19  and  C9_20 
REMARK   10  A    between atoms: C9_20  and  N2_21 
REMARK   11  A    between atoms: N2_21  and  C10_23 
REMARK   12  A    between atoms: C14_33  and  N6_34 
REMARK       I    between atoms: N6_34  and  C15_36 
REMARK       I    between atoms: C15_36  and  N7_37 
REMARK       I    between atoms: C15_36  and  N8_41 
ROOT
HETATM    1  C10 UNL     1    -126.779  32.686 124.836  1.00  0.00     0.046 C 
HETATM    2  C11 UNL     1    -126.635  34.017 124.530  1.00  0.00     0.119 C 
HETATM    3  N3  UNL     1    -126.528  34.596 123.292  1.00  0.00    -0.347 N 
ATOM      4  H3  UNL     1    -125.908  35.399 123.192  1.00  0.00     0.167 HD
HETATM    5  C12 UNL     1    -127.206  34.159 122.177  1.00  0.00     0.150 A 
HETATM    6  N4  UNL     1    -127.873  34.490 121.072  1.00  0.00    -0.283 N 
ATOM      7  H4  UNL     1    -128.117  35.380 120.638  1.00  0.00     0.188 HD
HETATM    8  N5  UNL     1    -128.100  33.222 120.747  1.00  0.00    -0.293 N 
ATOM      9  H5  UNL     1    -128.577  32.742 119.984  1.00  0.00     0.187 HD
HETATM   10  C13 UNL     1    -127.446  32.851 121.828  1.00  0.00     0.120 A 
HETATM   11  C14 UNL     1    -127.028  31.696 122.545  1.00  0.00     0.065 C 
HETATM   12  C16 UNL     1    -126.864  31.639 123.928  1.00  0.00     0.062 C 
ENDROOT
BRANCH   1  13
HETATM   13  N2  UNL     1    -126.854  32.326 126.239  1.00  0.00    -0.383 N 
ATOM     14  H2  UNL     1    -126.093  31.796 126.664  1.00  0.00     0.160 HD
BRANCH  13  15
HETATM   15  C9  UNL     1    -127.977  32.703 127.036  1.00  0.00     0.179 C 
BRANCH  15  16
HETATM   16  C8  UNL     1    -129.147  31.809 126.824  1.00  0.00     0.058 A 
HETATM   17  C2  UNL     1    -130.046  31.954 125.767  1.00  0.00     0.076 A 
HETATM   18  C1  UNL     1    -129.808  32.875 124.629  1.00  0.00     0.079 C 
HETATM   19  O1  UNL     1    -131.034  31.181 125.980  1.00  0.00    -0.294 OA
HETATM   20  C3  UNL     1    -130.858  30.509 127.132  1.00  0.00     0.180 A 
HETATM   21  N1  UNL     1    -129.682  30.905 127.640  1.00  0.00    -0.335 N 
ATOM     22  H1  UNL     1    -129.267  30.569 128.509  1.00  0.00     0.168 HD
BRANCH  20  23
HETATM   23  C4  UNL     1    -131.843  29.542 127.649  1.00  0.00     0.126 C 
BRANCH  23  24
HETATM   24  O2  UNL     1    -133.150  29.774 127.316  1.00  0.00    -0.358 OA
ATOM     25  H2  UNL     1    -133.736  29.980 128.034  1.00  0.00     0.217 HD
ENDBRANCH  23  24
BRANCH  23  26
HETATM   26  C5  UNL     1    -131.413  28.130 127.749  1.00  0.00     0.209 C 
BRANCH  26  27
HETATM   27  O3  UNL     1    -131.800  27.477 126.557  1.00  0.00    -0.386 OA
ATOM     28  H3  UNL     1    -131.025  27.072 126.185  1.00  0.00     0.210 HD
ENDBRANCH  26  27
BRANCH  26  29
HETATM   29  C6  UNL     1    -131.864  27.375 128.943  1.00  0.00     0.177 C 
BRANCH  29  30
HETATM   30  O4  UNL     1    -133.012  27.809 129.532  1.00  0.00    -0.390 OA
ATOM     31  H4  UNL     1    -133.802  27.753 129.007  1.00  0.00     0.210 HD
ENDBRANCH  29  30
BRANCH  29  32
HETATM   32  C7  UNL     1    -130.755  27.067 129.888  1.00  0.00     0.198 C 
BRANCH  32  33
HETATM   33  O5  UNL     1    -130.759  27.769 131.059  1.00  0.00    -0.398 OA
ATOM     34  H5  UNL     1    -129.957  28.236 131.263  1.00  0.00     0.209 HD
ENDBRANCH  32  33
ENDBRANCH  29  32
ENDBRANCH  26  29
ENDBRANCH  23  26
ENDBRANCH  20  23
ENDBRANCH  15  16
ENDBRANCH  13  15
ENDBRANCH   1  13
BRANCH  11  35
HETATM   35  N6  UNL     1    -126.825  30.709 121.816  1.00  0.00    -0.339 N 
HETATM   36  C15 UNL     1    -127.241  29.388 121.895  1.00  0.00     0.480 C 
HETATM   37  N7  UNL     1    -128.133  29.000 120.798  1.00  0.00    -0.033 N 
HETATM   38  N8  UNL     1    -126.020  28.545 121.813  1.00  0.00    -0.033 N 
ATOM     39  H73 UNL     1    -128.933  29.630 120.740  1.00  0.00     0.278 HD
ATOM     40  H72 UNL     1    -127.702  29.192 119.894  1.00  0.00     0.278 HD
ATOM     41  H71 UNL     1    -128.439  28.029 120.856  1.00  0.00     0.278 HD
ATOM     42  H83 UNL     1    -125.453  28.739 120.988  1.00  0.00     0.278 HD
ATOM     43  H82 UNL     1    -125.317  28.787 122.512  1.00  0.00     0.278 HD
ATOM     44  H81 UNL     1    -126.326  27.574 121.871  1.00  0.00     0.278 HD
ATOM     45  H6  UNL     1    -126.240  30.909 121.005  1.00  0.00     0.163 HD
ENDBRANCH  11  35
TORSDOF 12
ENDMDL
