MODEL 1
REMARK VINA RESULT: -6.324060638      0.000      0.000
REMARK  14 active torsions:
REMARK  status: ('A' for Active; 'I' for Inactive)
REMARK    1  A    between atoms: S1_2  and  C2_3 
REMARK    2  A    between atoms: C3_6  and  N2_7 
REMARK    3  A    between atoms: C5_13  and  N4_14 
REMARK    4  A    between atoms: N4_14  and  C6_16 
REMARK    5  A    between atoms: C6_16  and  C7_17 
REMARK    6  A    between atoms: C6_16  and  C8_20 
REMARK    7  A    between atoms: C7_17  and  O1_18 
REMARK    8  A    between atoms: C8_20  and  O2_21 
REMARK    9  A    between atoms: N7_28  and  C10_29 
REMARK   10  A    between atoms: C10_29  and  C11_30 
REMARK   11  A    between atoms: C11_30  and  O3_31 
REMARK   12  A    between atoms: C11_30  and  C12_33 
REMARK   13  A    between atoms: C12_33  and  O4_34 
REMARK   14  A    between atoms: C15_38  and  N8_39 
ROOT
HETATM    1  C2  UNL     1    -130.754  29.931 126.440  1.00  0.00     0.098 A 
HETATM    2  N1  UNL     1    -130.766  30.983 127.230  1.00  0.00    -0.334 N 
ATOM      3  H1  UNL     1    -131.385  30.973 128.041  1.00  0.00     0.168 HD
HETATM    4  C3  UNL     1    -130.011  32.057 127.022  1.00  0.00     0.128 A 
HETATM    5  C4  UNL     1    -129.175  32.075 125.935  1.00  0.00     0.093 A 
HETATM    6  N3  UNL     1    -128.443  33.177 125.714  1.00  0.00    -0.337 N 
ATOM      7  H3  UNL     1    -128.513  33.957 126.367  1.00  0.00     0.167 HD
HETATM    8  C5  UNL     1    -127.631  33.280 124.668  1.00  0.00     0.133 A 
HETATM    9  C9  UNL     1    -127.549  32.214 123.806  1.00  0.00     0.122 A 
HETATM   10  N5  UNL     1    -126.805  31.999 122.718  1.00  0.00    -0.280 N 
ATOM     11  H5  UNL     1    -126.152  32.663 122.302  1.00  0.00     0.188 HD
HETATM   12  N6  UNL     1    -127.050  30.818 122.285  1.00  0.00    -0.239 N 
ATOM     13  H6  UNL     1    -126.608  30.408 121.462  1.00  0.00     0.208 HD
HETATM   14  N7  UNL     1    -127.990  30.163 123.068  1.00  0.00    -0.272 N 
HETATM   15  C13 UNL     1    -128.293  31.035 123.989  1.00  0.00     0.099 A 
HETATM   16  C14 UNL     1    -129.143  30.959 125.082  1.00  0.00     0.054 A 
HETATM   17  C15 UNL     1    -129.908  29.880 125.286  1.00  0.00     0.075 A 
ENDROOT
BRANCH   8  18
HETATM   18  N4  UNL     1    -126.924  34.303 124.417  1.00  0.00    -0.366 N 
ATOM     19  H4  UNL     1    -125.941  34.246 124.685  1.00  0.00     0.161 HD
BRANCH  18  20
HETATM   20  C6  UNL     1    -127.337  35.515 123.810  1.00  0.00     0.130 C 
BRANCH  20  21
HETATM   21  C7  UNL     1    -127.475  35.255 122.304  1.00  0.00     0.191 C 
BRANCH  21  22
HETATM   22  O1  UNL     1    -126.924  36.316 121.577  1.00  0.00    -0.399 OA
ATOM     23  H1  UNL     1    -126.828  36.073 120.664  1.00  0.00     0.209 HD
ENDBRANCH  21  22
ENDBRANCH  20  21
BRANCH  20  24
HETATM   24  C8  UNL     1    -126.361  36.649 123.959  1.00  0.00     0.191 C 
BRANCH  24  25
HETATM   25  O2  UNL     1    -127.107  37.785 124.312  1.00  0.00    -0.399 OA
ATOM     26  H2  UNL     1    -126.484  38.482 124.484  1.00  0.00     0.209 HD
ENDBRANCH  24  25
ENDBRANCH  20  24
ENDBRANCH  18  20
ENDBRANCH   8  18
BRANCH   4  27
HETATM   27  N2  UNL     1    -130.036  33.085 127.805  1.00  0.00    -0.384 N 
ATOM     28  H22 UNL     1    -129.983  32.935 128.813  1.00  0.00     0.157 HD
ATOM     29  H21 UNL     1    -130.106  34.040 127.453  1.00  0.00     0.157 HD
ENDBRANCH   4  27
BRANCH  14  30
HETATM   30  C10 UNL     1    -128.227  28.862 122.702  1.00  0.00     0.184 C 
BRANCH  30  31
HETATM   31  C11 UNL     1    -128.259  28.667 121.169  1.00  0.00     0.161 C 
BRANCH  31  32
HETATM   32  O3  UNL     1    -127.054  27.911 120.955  1.00  0.00    -0.392 OA
ATOM     33  H3  UNL     1    -126.956  27.980 120.013  1.00  0.00     0.210 HD
ENDBRANCH  31  32
BRANCH  31  34
HETATM   34  C12 UNL     1    -129.353  27.781 120.673  1.00  0.00     0.197 C 
BRANCH  34  35
HETATM   35  O4  UNL     1    -129.784  26.778 121.481  1.00  0.00    -0.398 OA
ATOM     36  H4  UNL     1    -130.649  26.852 121.868  1.00  0.00     0.209 HD
ENDBRANCH  34  35
ENDBRANCH  31  34
ENDBRANCH  30  31
ENDBRANCH  14  30
BRANCH  17  37
HETATM   37  N8  UNL     1    -130.208  28.763 124.559  1.00  0.00    -0.396 N 
ATOM     38  H82 UNL     1    -130.369  27.781 124.785  1.00  0.00     0.156 HD
ATOM     39  H81 UNL     1    -130.130  28.980 123.565  1.00  0.00     0.156 HD
ENDBRANCH  17  37
BRANCH   1  40
HETATM   40  S1  UNL     1    -131.787  28.510 126.773  1.00  0.00    -0.114 SA
HETATM   41  C1  UNL     1    -131.126  27.556 128.137  1.00  0.00     0.097 C 
ENDBRANCH   1  40
TORSDOF 14
ENDMDL
MODEL 2
REMARK VINA RESULT: -6.043726954      0.341      1.085
REMARK  14 active torsions:
REMARK  status: ('A' for Active; 'I' for Inactive)
REMARK    1  A    between atoms: S1_2  and  C2_3 
REMARK    2  A    between atoms: C3_6  and  N2_7 
REMARK    3  A    between atoms: C5_13  and  N4_14 
REMARK    4  A    between atoms: N4_14  and  C6_16 
REMARK    5  A    between atoms: C6_16  and  C7_17 
REMARK    6  A    between atoms: C6_16  and  C8_20 
REMARK    7  A    between atoms: C7_17  and  O1_18 
REMARK    8  A    between atoms: C8_20  and  O2_21 
REMARK    9  A    between atoms: N7_28  and  C10_29 
REMARK   10  A    between atoms: C10_29  and  C11_30 
REMARK   11  A    between atoms: C11_30  and  O3_31 
REMARK   12  A    between atoms: C11_30  and  C12_33 
REMARK   13  A    between atoms: C12_33  and  O4_34 
REMARK   14  A    between atoms: C15_38  and  N8_39 
ROOT
HETATM    1  C2  UNL     1    -130.790  30.047 126.394  1.00  0.00     0.098 A 
HETATM    2  N1  UNL     1    -130.769  31.090 127.196  1.00  0.00    -0.334 N 
ATOM      3  H1  UNL     1    -131.411  31.105 127.989  1.00  0.00     0.168 HD
HETATM    4  C3  UNL     1    -129.952  32.124 127.022  1.00  0.00     0.128 A 
HETATM    5  C4  UNL     1    -129.084  32.108 125.960  1.00  0.00     0.093 A 
HETATM    6  N3  UNL     1    -128.289  33.171 125.773  1.00  0.00    -0.337 N 
ATOM      7  H3  UNL     1    -128.336  33.947 126.433  1.00  0.00     0.167 HD
HETATM    8  C5  UNL     1    -127.442  33.241 124.752  1.00  0.00     0.133 A 
HETATM    9  C9  UNL     1    -127.392  32.181 123.880  1.00  0.00     0.122 A 
HETATM   10  N5  UNL     1    -126.630  31.937 122.811  1.00  0.00    -0.280 N 
ATOM     11  H5  UNL     1    -125.930  32.569 122.422  1.00  0.00     0.188 HD
HETATM   12  N6  UNL     1    -126.925  30.776 122.357  1.00  0.00    -0.239 N 
ATOM     13  H6  UNL     1    -126.482  30.352 121.542  1.00  0.00     0.208 HD
HETATM   14  N7  UNL     1    -127.921  30.165 123.105  1.00  0.00    -0.272 N 
HETATM   15  C13 UNL     1    -128.204  31.042 124.027  1.00  0.00     0.099 A 
HETATM   16  C14 UNL     1    -129.088  31.001 125.095  1.00  0.00     0.054 A 
HETATM   17  C15 UNL     1    -129.915  29.963 125.264  1.00  0.00     0.075 A 
ENDROOT
BRANCH   8  18
HETATM   18  N4  UNL     1    -126.675  34.227 124.533  1.00  0.00    -0.366 N 
ATOM     19  H4  UNL     1    -126.007  34.448 125.272  1.00  0.00     0.161 HD
BRANCH  18  20
HETATM   20  C6  UNL     1    -126.634  35.058 123.385  1.00  0.00     0.130 C 
BRANCH  20  21
HETATM   21  C7  UNL     1    -126.437  36.501 123.865  1.00  0.00     0.191 C 
BRANCH  21  22
HETATM   22  O1  UNL     1    -127.671  37.074 124.195  1.00  0.00    -0.399 OA
ATOM     23  H1  UNL     1    -128.222  37.132 123.424  1.00  0.00     0.209 HD
ENDBRANCH  21  22
ENDBRANCH  20  21
BRANCH  20  24
HETATM   24  C8  UNL     1    -127.894  35.048 122.567  1.00  0.00     0.191 C 
BRANCH  24  25
HETATM   25  O2  UNL     1    -127.693  35.934 121.496  1.00  0.00    -0.399 OA
ATOM     26  H2  UNL     1    -128.455  35.863 120.933  1.00  0.00     0.209 HD
ENDBRANCH  24  25
ENDBRANCH  20  24
ENDBRANCH  18  20
ENDBRANCH   8  18
BRANCH   4  27
HETATM   27  N2  UNL     1    -129.944  33.144 127.817  1.00  0.00    -0.384 N 
ATOM     28  H22 UNL     1    -129.644  33.011 128.782  1.00  0.00     0.157 HD
ATOM     29  H21 UNL     1    -130.227  34.076 127.514  1.00  0.00     0.157 HD
ENDBRANCH   4  27
BRANCH  14  30
HETATM   30  C10 UNL     1    -128.216  28.882 122.718  1.00  0.00     0.184 C 
BRANCH  30  31
HETATM   31  C11 UNL     1    -128.218  28.705 121.181  1.00  0.00     0.161 C 
BRANCH  31  32
HETATM   32  O3  UNL     1    -127.014  27.942 120.984  1.00  0.00    -0.392 OA
ATOM     33  H3  UNL     1    -127.217  27.147 121.463  1.00  0.00     0.210 HD
ENDBRANCH  31  32
BRANCH  31  34
HETATM   34  C12 UNL     1    -129.308  27.836 120.652  1.00  0.00     0.197 C 
BRANCH  34  35
HETATM   35  O4  UNL     1    -129.766  26.828 121.439  1.00  0.00    -0.398 OA
ATOM     36  H4  UNL     1    -130.663  26.537 121.320  1.00  0.00     0.209 HD
ENDBRANCH  34  35
ENDBRANCH  31  34
ENDBRANCH  30  31
ENDBRANCH  14  30
BRANCH  17  37
HETATM   37  N8  UNL     1    -130.253  28.871 124.515  1.00  0.00    -0.396 N 
ATOM     38  H82 UNL     1    -131.113  28.539 124.078  1.00  0.00     0.156 HD
ATOM     39  H81 UNL     1    -129.476  28.211 124.516  1.00  0.00     0.156 HD
ENDBRANCH  17  37
BRANCH   1  40
HETATM   40  S1  UNL     1    -131.907  28.680 126.680  1.00  0.00    -0.114 SA
HETATM   41  C1  UNL     1    -131.271  27.605 127.964  1.00  0.00     0.097 C 
ENDBRANCH   1  40
TORSDOF 14
ENDMDL
MODEL 3
REMARK VINA RESULT: -5.121794454      3.689      5.662
REMARK  14 active torsions:
REMARK  status: ('A' for Active; 'I' for Inactive)
REMARK    1  A    between atoms: S1_2  and  C2_3 
REMARK    2  A    between atoms: C3_6  and  N2_7 
REMARK    3  A    between atoms: C5_13  and  N4_14 
REMARK    4  A    between atoms: N4_14  and  C6_16 
REMARK    5  A    between atoms: C6_16  and  C7_17 
REMARK    6  A    between atoms: C6_16  and  C8_20 
REMARK    7  A    between atoms: C7_17  and  O1_18 
REMARK    8  A    between atoms: C8_20  and  O2_21 
REMARK    9  A    between atoms: N7_28  and  C10_29 
REMARK   10  A    between atoms: C10_29  and  C11_30 
REMARK   11  A    between atoms: C11_30  and  O3_31 
REMARK   12  A    between atoms: C11_30  and  C12_33 
REMARK   13  A    between atoms: C12_33  and  O4_34 
REMARK   14  A    between atoms: C15_38  and  N8_39 
ROOT
HETATM    1  C2  UNL     1    -128.110  34.594 120.176  1.00  0.00     0.098 A 
HETATM    2  N1  UNL     1    -127.977  35.669 120.922  1.00  0.00    -0.334 N 
ATOM      3  H1  UNL     1    -128.156  36.579 120.499  1.00  0.00     0.168 HD
HETATM    4  C3  UNL     1    -127.620  35.625 122.202  1.00  0.00     0.128 A 
HETATM    5  C4  UNL     1    -127.381  34.403 122.779  1.00  0.00     0.093 A 
HETATM    6  N3  UNL     1    -126.988  34.372 124.061  1.00  0.00    -0.337 N 
ATOM      7  H3  UNL     1    -126.898  35.249 124.573  1.00  0.00     0.167 HD
HETATM    8  C5  UNL     1    -126.711  33.230 124.681  1.00  0.00     0.133 A 
HETATM    9  C9  UNL     1    -126.845  32.061 123.971  1.00  0.00     0.122 A 
HETATM   10  N5  UNL     1    -126.692  30.781 124.320  1.00  0.00    -0.280 N 
ATOM     11  H5  UNL     1    -126.393  30.444 125.236  1.00  0.00     0.188 HD
HETATM   12  N6  UNL     1    -126.985  30.047 123.312  1.00  0.00    -0.239 N 
ATOM     13  H6  UNL     1    -126.950  29.028 123.318  1.00  0.00     0.208 HD
HETATM   14  N7  UNL     1    -127.354  30.805 122.209  1.00  0.00    -0.272 N 
HETATM   15  C13 UNL     1    -127.253  32.035 122.626  1.00  0.00     0.099 A 
HETATM   16  C14 UNL     1    -127.522  33.243 122.000  1.00  0.00     0.054 A 
HETATM   17  C15 UNL     1    -127.875  33.286 120.709  1.00  0.00     0.075 A 
ENDROOT
BRANCH   8  18
HETATM   18  N4  UNL     1    -126.333  33.152 125.888  1.00  0.00    -0.366 N 
ATOM     19  H4  UNL     1    -125.332  33.261 126.053  1.00  0.00     0.161 HD
BRANCH  18  20
HETATM   20  C6  UNL     1    -127.134  32.932 127.037  1.00  0.00     0.130 C 
BRANCH  20  21
HETATM   21  C7  UNL     1    -126.405  31.914 127.922  1.00  0.00     0.191 C 
BRANCH  21  22
HETATM   22  O1  UNL     1    -126.334  32.381 129.240  1.00  0.00    -0.399 OA
ATOM     23  H1  UNL     1    -125.567  32.931 129.352  1.00  0.00     0.209 HD
ENDBRANCH  21  22
ENDBRANCH  20  21
BRANCH  20  24
HETATM   24  C8  UNL     1    -128.490  32.353 126.746  1.00  0.00     0.191 C 
BRANCH  24  25
HETATM   25  O2  UNL     1    -128.613  31.191 127.526  1.00  0.00    -0.399 OA
ATOM     26  H2  UNL     1    -128.287  30.470 127.000  1.00  0.00     0.209 HD
ENDBRANCH  24  25
ENDBRANCH  20  24
ENDBRANCH  18  20
ENDBRANCH   8  18
BRANCH   4  27
HETATM   27  N2  UNL     1    -127.490  36.690 122.924  1.00  0.00    -0.384 N 
ATOM     28  H22 UNL     1    -127.719  37.593 122.510  1.00  0.00     0.157 HD
ATOM     29  H21 UNL     1    -127.167  36.660 123.891  1.00  0.00     0.157 HD
ENDBRANCH   4  27
BRANCH  14  30
HETATM   30  C10 UNL     1    -127.763  30.069 121.126  1.00  0.00     0.184 C 
BRANCH  30  31
HETATM   31  C11 UNL     1    -128.163  28.622 121.500  1.00  0.00     0.161 C 
BRANCH  31  32
HETATM   32  O3  UNL     1    -128.902  28.839 122.715  1.00  0.00    -0.392 OA
ATOM     33  H3  UNL     1    -128.831  29.782 122.810  1.00  0.00     0.210 HD
ENDBRANCH  31  32
BRANCH  31  34
HETATM   34  C12 UNL     1    -129.141  27.983 120.572  1.00  0.00     0.197 C 
BRANCH  34  35
HETATM   35  O4  UNL     1    -129.719  26.814 120.953  1.00  0.00    -0.398 OA
ATOM     36  H4  UNL     1    -129.822  26.645 121.882  1.00  0.00     0.209 HD
ENDBRANCH  34  35
ENDBRANCH  31  34
ENDBRANCH  30  31
ENDBRANCH  14  30
BRANCH  17  37
HETATM   37  N8  UNL     1    -127.920  32.373 119.695  1.00  0.00    -0.396 N 
ATOM     38  H82 UNL     1    -128.215  32.398 118.718  1.00  0.00     0.156 HD
ATOM     39  H81 UNL     1    -127.714  31.446 120.069  1.00  0.00     0.156 HD
ENDBRANCH  17  37
BRANCH   1  40
HETATM   40  S1  UNL     1    -128.599  34.712 118.460  1.00  0.00    -0.114 SA
HETATM   41  C1  UNL     1    -128.937  36.414 118.017  1.00  0.00     0.097 C 
ENDBRANCH   1  40
TORSDOF 14
ENDMDL
MODEL 4
REMARK VINA RESULT: -4.141074502      1.565      5.901
REMARK  14 active torsions:
REMARK  status: ('A' for Active; 'I' for Inactive)
REMARK    1  A    between atoms: S1_2  and  C2_3 
REMARK    2  A    between atoms: C3_6  and  N2_7 
REMARK    3  A    between atoms: C5_13  and  N4_14 
REMARK    4  A    between atoms: N4_14  and  C6_16 
REMARK    5  A    between atoms: C6_16  and  C7_17 
REMARK    6  A    between atoms: C6_16  and  C8_20 
REMARK    7  A    between atoms: C7_17  and  O1_18 
REMARK    8  A    between atoms: C8_20  and  O2_21 
REMARK    9  A    between atoms: N7_28  and  C10_29 
REMARK   10  A    between atoms: C10_29  and  C11_30 
REMARK   11  A    between atoms: C11_30  and  O3_31 
REMARK   12  A    between atoms: C11_30  and  C12_33 
REMARK   13  A    between atoms: C12_33  and  O4_34 
REMARK   14  A    between atoms: C15_38  and  N8_39 
ROOT
HETATM    1  C2  UNL     1    -130.284  31.718 127.566  1.00  0.00     0.098 A 
HETATM    2  N1  UNL     1    -131.019  30.631 127.465  1.00  0.00    -0.334 N 
ATOM      3  H1  UNL     1    -131.720  30.451 128.185  1.00  0.00     0.168 HD
HETATM    4  C3  UNL     1    -130.892  29.758 126.472  1.00  0.00     0.128 A 
HETATM    5  C4  UNL     1    -129.954  29.996 125.499  1.00  0.00     0.093 A 
HETATM    6  N3  UNL     1    -129.810  29.091 124.520  1.00  0.00    -0.337 N 
ATOM      7  H3  UNL     1    -130.412  28.267 124.514  1.00  0.00     0.167 HD
HETATM    8  C5  UNL     1    -128.906  29.238 123.558  1.00  0.00     0.133 A 
HETATM    9  C9  UNL     1    -128.112  30.359 123.584  1.00  0.00     0.122 A 
HETATM   10  N5  UNL     1    -127.168  30.805 122.751  1.00  0.00    -0.280 N 
ATOM     11  H5  UNL     1    -126.836  30.325 121.914  1.00  0.00     0.188 HD
HETATM   12  N6  UNL     1    -126.749  31.936 123.181  1.00  0.00    -0.239 N 
ATOM     13  H6  UNL     1    -126.025  32.490 122.722  1.00  0.00     0.208 HD
HETATM   14  N7  UNL     1    -127.396  32.320 124.347  1.00  0.00    -0.272 N 
HETATM   15  C13 UNL     1    -128.220  31.339 124.586  1.00  0.00     0.099 A 
HETATM   16  C14 UNL     1    -129.163  31.153 125.586  1.00  0.00     0.054 A 
HETATM   17  C15 UNL     1    -129.285  32.030 126.589  1.00  0.00     0.075 A 
ENDROOT
BRANCH   8  18
HETATM   18  N4  UNL     1    -128.732  28.407 122.616  1.00  0.00    -0.366 N 
ATOM     19  H4  UNL     1    -128.595  27.436 122.893  1.00  0.00     0.161 HD
BRANCH  18  20
HETATM   20  C6  UNL     1    -128.704  28.669 121.222  1.00  0.00     0.130 C 
BRANCH  20  21
HETATM   21  C7  UNL     1    -129.715  27.726 120.555  1.00  0.00     0.191 C 
BRANCH  21  22
HETATM   22  O1  UNL     1    -129.862  26.560 121.314  1.00  0.00    -0.399 OA
ATOM     23  H1  UNL     1    -130.783  26.349 121.416  1.00  0.00     0.209 HD
ENDBRANCH  21  22
ENDBRANCH  20  21
BRANCH  20  24
HETATM   24  C8  UNL     1    -127.377  28.406 120.567  1.00  0.00     0.191 C 
BRANCH  24  25
HETATM   25  O2  UNL     1    -126.427  28.302 121.596  1.00  0.00    -0.399 OA
ATOM     26  H2  UNL     1    -125.875  29.074 121.540  1.00  0.00     0.209 HD
ENDBRANCH  24  25
ENDBRANCH  20  24
ENDBRANCH  18  20
ENDBRANCH   8  18
BRANCH   4  27
HETATM   27  N2  UNL     1    -131.619  28.692 126.387  1.00  0.00    -0.384 N 
ATOM     28  H22 UNL     1    -132.572  28.718 126.749  1.00  0.00     0.157 HD
ATOM     29  H21 UNL     1    -131.275  27.826 125.972  1.00  0.00     0.157 HD
ENDBRANCH   4  27
BRANCH  14  30
HETATM   30  C10 UNL     1    -127.050  33.566 124.805  1.00  0.00     0.184 C 
BRANCH  30  31
HETATM   31  C11 UNL     1    -127.249  34.673 123.743  1.00  0.00     0.161 C 
BRANCH  31  32
HETATM   32  O3  UNL     1    -128.523  35.214 124.136  1.00  0.00    -0.392 OA
ATOM     33  H3  UNL     1    -128.375  36.144 124.018  1.00  0.00     0.210 HD
ENDBRANCH  31  32
BRANCH  31  34
HETATM   34  C12 UNL     1    -126.302  35.821 123.849  1.00  0.00     0.197 C 
BRANCH  34  35
HETATM   35  O4  UNL     1    -126.809  37.047 124.140  1.00  0.00    -0.398 OA
ATOM     36  H4  UNL     1    -127.452  37.115 124.836  1.00  0.00     0.209 HD
ENDBRANCH  34  35
ENDBRANCH  31  34
ENDBRANCH  30  31
ENDBRANCH  14  30
BRANCH  17  37
HETATM   37  N8  UNL     1    -128.564  33.110 127.014  1.00  0.00    -0.396 N 
ATOM     38  H82 UNL     1    -127.666  33.235 127.482  1.00  0.00     0.156 HD
ATOM     39  H81 UNL     1    -129.139  33.949 126.932  1.00  0.00     0.156 HD
ENDBRANCH  17  37
BRANCH   1  40
HETATM   40  S1  UNL     1    -130.503  32.863 128.922  1.00  0.00    -0.114 SA
HETATM   41  C1  UNL     1    -132.233  33.281 129.120  1.00  0.00     0.097 C 
ENDBRANCH   1  40
TORSDOF 14
ENDMDL
MODEL 5
REMARK VINA RESULT: -3.999205330      2.857      4.699
REMARK  14 active torsions:
REMARK  status: ('A' for Active; 'I' for Inactive)
REMARK    1  A    between atoms: S1_2  and  C2_3 
REMARK    2  A    between atoms: C3_6  and  N2_7 
REMARK    3  A    between atoms: C5_13  and  N4_14 
REMARK    4  A    between atoms: N4_14  and  C6_16 
REMARK    5  A    between atoms: C6_16  and  C7_17 
REMARK    6  A    between atoms: C6_16  and  C8_20 
REMARK    7  A    between atoms: C7_17  and  O1_18 
REMARK    8  A    between atoms: C8_20  and  O2_21 
REMARK    9  A    between atoms: N7_28  and  C10_29 
REMARK   10  A    between atoms: C10_29  and  C11_30 
REMARK   11  A    between atoms: C11_30  and  O3_31 
REMARK   12  A    between atoms: C11_30  and  C12_33 
REMARK   13  A    between atoms: C12_33  and  O4_34 
REMARK   14  A    between atoms: C15_38  and  N8_39 
ROOT
HETATM    1  C2  UNL     1    -129.272  32.181 128.741  1.00  0.00     0.098 A 
HETATM    2  N1  UNL     1    -128.154  32.793 128.413  1.00  0.00    -0.334 N 
ATOM      3  H1  UNL     1    -127.720  33.412 129.097  1.00  0.00     0.168 HD
HETATM    4  C3  UNL     1    -127.563  32.641 127.231  1.00  0.00     0.128 A 
HETATM    5  C4  UNL     1    -128.140  31.806 126.307  1.00  0.00     0.093 A 
HETATM    6  N3  UNL     1    -127.555  31.687 125.107  1.00  0.00    -0.337 N 
ATOM      7  H3  UNL     1    -126.692  32.200 124.922  1.00  0.00     0.167 HD
HETATM    8  C5  UNL     1    -128.067  30.920 124.151  1.00  0.00     0.133 A 
HETATM    9  C9  UNL     1    -129.225  30.234 124.425  1.00  0.00     0.122 A 
HETATM   10  N5  UNL     1    -129.941  29.366 123.707  1.00  0.00    -0.280 N 
ATOM     11  H5  UNL     1    -129.743  29.079 122.748  1.00  0.00     0.188 HD
HETATM   12  N6  UNL     1    -130.920  28.954 124.424  1.00  0.00    -0.239 N 
ATOM     13  H6  UNL     1    -131.617  28.281 124.106  1.00  0.00     0.208 HD
HETATM   14  N7  UNL     1    -130.918  29.533 125.685  1.00  0.00    -0.272 N 
HETATM   15  C13 UNL     1    -129.881  30.322 125.666  1.00  0.00     0.099 A 
HETATM   16  C14 UNL     1    -129.331  31.141 126.641  1.00  0.00     0.054 A 
HETATM   17  C15 UNL     1    -129.931  31.298 127.827  1.00  0.00     0.075 A 
ENDROOT
BRANCH   8  18
HETATM   18  N4  UNL     1    -127.551  30.780 123.001  1.00  0.00    -0.366 N 
ATOM     19  H4  UNL     1    -127.588  29.841 122.604  1.00  0.00     0.161 HD
BRANCH  18  20
HETATM   20  C6  UNL     1    -126.931  31.773 122.201  1.00  0.00     0.130 C 
BRANCH  20  21
HETATM   21  C7  UNL     1    -127.551  33.124 122.578  1.00  0.00     0.191 C 
BRANCH  21  22
HETATM   22  O1  UNL     1    -126.653  34.162 122.303  1.00  0.00    -0.399 OA
ATOM     23  H1  UNL     1    -126.406  34.604 123.108  1.00  0.00     0.209 HD
ENDBRANCH  21  22
ENDBRANCH  20  21
BRANCH  20  24
HETATM   24  C8  UNL     1    -127.144  31.603 120.723  1.00  0.00     0.191 C 
BRANCH  24  25
HETATM   25  O2  UNL     1    -128.245  32.401 120.374  1.00  0.00    -0.399 OA
ATOM     26  H2  UNL     1    -127.913  33.280 120.231  1.00  0.00     0.209 HD
ENDBRANCH  24  25
ENDBRANCH  20  24
ENDBRANCH  18  20
ENDBRANCH   8  18
BRANCH   4  27
HETATM   27  N2  UNL     1    -126.466  33.250 126.921  1.00  0.00    -0.384 N 
ATOM     28  H22 UNL     1    -125.604  32.981 127.395  1.00  0.00     0.157 HD
ATOM     29  H21 UNL     1    -126.430  33.989 126.219  1.00  0.00     0.157 HD
ENDBRANCH   4  27
BRANCH  14  30
HETATM   30  C10 UNL     1    -131.893  29.062 126.527  1.00  0.00     0.184 C 
BRANCH  30  31
HETATM   31  C11 UNL     1    -131.523  27.709 127.177  1.00  0.00     0.161 C 
BRANCH  31  32
HETATM   32  O3  UNL     1    -130.121  27.897 127.441  1.00  0.00    -0.392 OA
ATOM     33  H3  UNL     1    -130.134  28.696 127.954  1.00  0.00     0.210 HD
ENDBRANCH  31  32
BRANCH  31  34
HETATM   34  C12 UNL     1    -132.131  27.470 128.518  1.00  0.00     0.197 C 
BRANCH  34  35
HETATM   35  O4  UNL     1    -132.920  28.441 129.048  1.00  0.00    -0.398 OA
ATOM     36  H4  UNL     1    -132.516  29.264 129.294  1.00  0.00     0.209 HD
ENDBRANCH  34  35
ENDBRANCH  31  34
ENDBRANCH  30  31
ENDBRANCH  14  30
BRANCH  17  37
HETATM   37  N8  UNL     1    -131.139  30.933 128.348  1.00  0.00    -0.396 N 
ATOM     38  H82 UNL     1    -131.700  31.239 129.144  1.00  0.00     0.156 HD
ATOM     39  H81 UNL     1    -131.464  30.087 127.879  1.00  0.00     0.156 HD
ENDBRANCH  17  37
BRANCH   1  40
HETATM   40  S1  UNL     1    -130.020  32.418 130.348  1.00  0.00    -0.114 SA
HETATM   41  C1  UNL     1    -131.309  33.658 130.267  1.00  0.00     0.097 C 
ENDBRANCH   1  40
TORSDOF 14
ENDMDL
