MODEL 1
REMARK VINA RESULT: -7.361288500      0.000      0.000
REMARK  11 active torsions:
REMARK  status: ('A' for Active; 'I' for Inactive)
REMARK    1  A    between atoms: N1_1  and  C1_4 
REMARK    2  A    between atoms: C2_7  and  O1_8 
REMARK    3  A    between atoms: C3_10  and  C4_11 
REMARK    4  A    between atoms: C4_11  and  S1_12 
REMARK    5  A    between atoms: S1_12  and  C5_13 
REMARK    6  A    between atoms: C5_13  and  C6_14 
REMARK    7  A    between atoms: C6_14  and  N3_15 
REMARK    8  A    between atoms: N3_15  and  S2_17 
REMARK    9  A    between atoms: S2_17  and  C7_20 
REMARK   10  A    between atoms: C9_25  and  C10_26 
REMARK       I    between atoms: C10_26  and  N6_28 
REMARK   11  A    between atoms: N6_28  and  N7_30 
ROOT
HETATM    1  S2  UNL     1    -127.630  32.068 127.460  1.00  0.00     0.280 S 
HETATM    2  O2  UNL     1    -127.467  33.344 128.276  1.00  0.00    -0.199 OA
HETATM    3  O3  UNL     1    -126.358  31.274 127.713  1.00  0.00    -0.199 OA
ENDROOT
BRANCH   1   4
HETATM    4  N3  UNL     1    -129.015  31.276 128.025  1.00  0.00    -0.313 N 
ATOM      5  H3  UNL     1    -129.280  30.346 127.701  1.00  0.00     0.172 HD
BRANCH   4   6
HETATM    6  C6  UNL     1    -129.785  31.993 128.983  1.00  0.00     0.142 C 
BRANCH   6   7
HETATM    7  C5  UNL     1    -130.952  32.727 128.366  1.00  0.00     0.094 C 
BRANCH   7   8
HETATM    8  S1  UNL     1    -132.377  31.619 128.175  1.00  0.00    -0.161 SA
BRANCH   8   9
HETATM    9  C4  UNL     1    -132.192  30.522 126.768  1.00  0.00     0.136 C 
BRANCH   9  10
HETATM   10  C3  UNL     1    -132.043  29.133 127.274  1.00  0.00     0.087 A 
HETATM   11  C2  UNL     1    -131.167  28.160 126.776  1.00  0.00     0.179 A 
HETATM   12  N2  UNL     1    -131.309  27.031 127.478  1.00  0.00    -0.169 N 
HETATM   13  C1  UNL     1    -132.242  27.245 128.406  1.00  0.00     0.678 A 
ATOM     14  H2  UNL     1    -130.795  26.163 127.331  1.00  0.00     0.186 HD
HETATM   15  N9  UNL     1    -132.686  28.510 128.285  1.00  0.00    -0.191 N 
ATOM     16  H9  UNL     1    -133.403  28.937 128.872  1.00  0.00     0.184 HD
BRANCH  11  17
HETATM   17  O1  UNL     1    -130.299  28.380 125.713  1.00  0.00    -0.344 OA
ATOM     18  H1  UNL     1    -130.484  28.253 124.789  1.00  0.00     0.219 HD
ENDBRANCH  11  17
BRANCH  13  19
HETATM   19  N1  UNL     1    -132.672  26.394 129.292  1.00  0.00    -0.234 N 
ATOM     20  H12 UNL     1    -132.615  25.380 129.195  1.00  0.00     0.174 HD
ATOM     21  H11 UNL     1    -133.116  26.611 130.185  1.00  0.00     0.174 HD
ENDBRANCH  13  19
ENDBRANCH   9  10
ENDBRANCH   8   9
ENDBRANCH   7   8
ENDBRANCH   6   7
ENDBRANCH   4   6
ENDBRANCH   1   4
BRANCH   1  22
HETATM   22  C7  UNL     1    -127.709  32.478 125.757  1.00  0.00     0.218 A 
HETATM   23  N4  UNL     1    -127.013  33.508 125.244  1.00  0.00    -0.328 N 
HETATM   24  C8  UNL     1    -127.067  33.827 123.935  1.00  0.00     0.150 A 
ATOM     25  H4  UNL     1    -126.426  34.065 125.864  1.00  0.00     0.168 HD
HETATM   26  N5  UNL     1    -126.337  34.912 123.387  1.00  0.00    -0.080 NA
HETATM   27  C9  UNL     1    -127.850  33.101 123.041  1.00  0.00     0.146 A 
HETATM   28  N8  UNL     1    -128.542  32.075 123.558  1.00  0.00    -0.314 N 
HETATM   29  C11 UNL     1    -128.486  31.756 124.880  1.00  0.00     0.286 A 
ATOM     30  H8  UNL     1    -129.129  31.514 122.941  1.00  0.00     0.169 HD
HETATM   31  O5  UNL     1    -129.153  30.789 125.301  1.00  0.00    -0.265 OA
BRANCH  27  32
HETATM   32  C10 UNL     1    -127.890  33.469 121.629  1.00  0.00     0.289 C 
HETATM   33  O4  UNL     1    -127.647  32.595 120.756  1.00  0.00    -0.264 OA
HETATM   34  N6  UNL     1    -128.192  34.778 121.182  1.00  0.00    -0.271 N 
ATOM     35  H6  UNL     1    -128.392  35.505 121.869  1.00  0.00     0.189 HD
BRANCH  34  36
HETATM   36  N7  UNL     1    -128.222  35.097 119.823  1.00  0.00    -0.342 N 
ATOM     37  H72 UNL     1    -127.386  34.919 119.267  1.00  0.00     0.176 HD
ATOM     38  H71 UNL     1    -129.052  35.499 119.387  1.00  0.00     0.176 HD
ENDBRANCH  34  36
ENDBRANCH  27  32
ENDBRANCH   1  22
TORSDOF 11
ENDMDL
MODEL 2
REMARK VINA RESULT: -7.319953087      2.865      7.888
REMARK  11 active torsions:
REMARK  status: ('A' for Active; 'I' for Inactive)
REMARK    1  A    between atoms: N1_1  and  C1_4 
REMARK    2  A    between atoms: C2_7  and  O1_8 
REMARK    3  A    between atoms: C3_10  and  C4_11 
REMARK    4  A    between atoms: C4_11  and  S1_12 
REMARK    5  A    between atoms: S1_12  and  C5_13 
REMARK    6  A    between atoms: C5_13  and  C6_14 
REMARK    7  A    between atoms: C6_14  and  N3_15 
REMARK    8  A    between atoms: N3_15  and  S2_17 
REMARK    9  A    between atoms: S2_17  and  C7_20 
REMARK   10  A    between atoms: C9_25  and  C10_26 
REMARK       I    between atoms: C10_26  and  N6_28 
REMARK   11  A    between atoms: N6_28  and  N7_30 
ROOT
HETATM    1  S2  UNL     1    -130.823  28.964 126.359  1.00  0.00     0.280 S 
HETATM    2  O2  UNL     1    -132.175  28.331 126.061  1.00  0.00    -0.199 OA
HETATM    3  O3  UNL     1    -130.069  27.919 127.167  1.00  0.00    -0.199 OA
ENDROOT
BRANCH   1   4
HETATM    4  N3  UNL     1    -130.080  29.298 124.875  1.00  0.00    -0.313 N 
ATOM      5  H3  UNL     1    -129.736  28.560 124.261  1.00  0.00     0.172 HD
BRANCH   4   6
HETATM    6  C6  UNL     1    -129.969  30.676 124.540  1.00  0.00     0.142 C 
BRANCH   6   7
HETATM    7  C5  UNL     1    -128.553  31.192 124.641  1.00  0.00     0.094 C 
BRANCH   7   8
HETATM    8  S1  UNL     1    -128.537  32.921 125.193  1.00  0.00    -0.161 SA
BRANCH   8   9
HETATM    9  C4  UNL     1    -127.051  33.779 124.671  1.00  0.00     0.136 C 
BRANCH   9  10
HETATM   10  C3  UNL     1    -127.319  34.425 123.361  1.00  0.00     0.087 A 
HETATM   11  C2  UNL     1    -127.141  35.780 123.054  1.00  0.00     0.179 A 
HETATM   12  N2  UNL     1    -127.484  35.998 121.780  1.00  0.00    -0.169 N 
HETATM   13  C1  UNL     1    -127.876  34.835 121.261  1.00  0.00     0.678 A 
ATOM     14  H2  UNL     1    -127.451  36.893 121.294  1.00  0.00     0.186 HD
HETATM   15  N9  UNL     1    -127.778  33.885 122.211  1.00  0.00    -0.191 N 
ATOM     16  H9  UNL     1    -128.015  32.901 122.081  1.00  0.00     0.184 HD
BRANCH  11  17
HETATM   17  O1  UNL     1    -126.674  36.719 123.966  1.00  0.00    -0.344 OA
ATOM     18  H1  UNL     1    -126.355  36.552 124.845  1.00  0.00     0.219 HD
ENDBRANCH  11  17
BRANCH  13  19
HETATM   19  N1  UNL     1    -128.289  34.621 120.046  1.00  0.00    -0.234 N 
ATOM     20  H12 UNL     1    -129.206  34.893 119.691  1.00  0.00     0.174 HD
ATOM     21  H11 UNL     1    -127.772  34.164 119.294  1.00  0.00     0.174 HD
ENDBRANCH  13  19
ENDBRANCH   9  10
ENDBRANCH   8   9
ENDBRANCH   7   8
ENDBRANCH   6   7
ENDBRANCH   4   6
ENDBRANCH   1   4
BRANCH   1  22
HETATM   22  C7  UNL     1    -131.058  30.387 127.356  1.00  0.00     0.218 A 
HETATM   23  N4  UNL     1    -130.046  30.941 128.046  1.00  0.00    -0.328 N 
HETATM   24  C8  UNL     1    -130.218  32.037 128.813  1.00  0.00     0.150 A 
ATOM     25  H4  UNL     1    -129.119  30.521 127.988  1.00  0.00     0.168 HD
HETATM   26  N5  UNL     1    -129.157  32.628 129.545  1.00  0.00    -0.080 NA
HETATM   27  C9  UNL     1    -131.462  32.655 128.929  1.00  0.00     0.146 A 
HETATM   28  N8  UNL     1    -132.467  32.098 128.238  1.00  0.00    -0.314 N 
HETATM   29  C11 UNL     1    -132.289  30.991 127.466  1.00  0.00     0.286 A 
ATOM     30  H8  UNL     1    -133.395  32.516 128.293  1.00  0.00     0.169 HD
HETATM   31  O5  UNL     1    -133.264  30.519 126.846  1.00  0.00    -0.265 OA
BRANCH  27  32
HETATM   32  C10 UNL     1    -131.620  33.840 129.767  1.00  0.00     0.289 C 
HETATM   33  O4  UNL     1    -132.130  34.881 129.275  1.00  0.00    -0.264 OA
HETATM   34  N6  UNL     1    -131.223  33.882 131.125  1.00  0.00    -0.271 N 
ATOM     35  H6  UNL     1    -130.806  33.052 131.548  1.00  0.00     0.189 HD
BRANCH  34  36
HETATM   36  N7  UNL     1    -131.389  35.033 131.900  1.00  0.00    -0.342 N 
ATOM     37  H72 UNL     1    -130.582  35.642 132.036  1.00  0.00     0.176 HD
ATOM     38  H71 UNL     1    -132.286  35.267 132.323  1.00  0.00     0.176 HD
ENDBRANCH  34  36
ENDBRANCH  27  32
ENDBRANCH   1  22
TORSDOF 11
ENDMDL
MODEL 3
REMARK VINA RESULT: -7.266737367      2.779      7.660
REMARK  11 active torsions:
REMARK  status: ('A' for Active; 'I' for Inactive)
REMARK    1  A    between atoms: N1_1  and  C1_4 
REMARK    2  A    between atoms: C2_7  and  O1_8 
REMARK    3  A    between atoms: C3_10  and  C4_11 
REMARK    4  A    between atoms: C4_11  and  S1_12 
REMARK    5  A    between atoms: S1_12  and  C5_13 
REMARK    6  A    between atoms: C5_13  and  C6_14 
REMARK    7  A    between atoms: C6_14  and  N3_15 
REMARK    8  A    between atoms: N3_15  and  S2_17 
REMARK    9  A    between atoms: S2_17  and  C7_20 
REMARK   10  A    between atoms: C9_25  and  C10_26 
REMARK       I    between atoms: C10_26  and  N6_28 
REMARK   11  A    between atoms: N6_28  and  N7_30 
ROOT
HETATM    1  S2  UNL     1    -130.890  28.977 126.425  1.00  0.00     0.280 S 
HETATM    2  O2  UNL     1    -132.239  28.297 126.231  1.00  0.00    -0.199 OA
HETATM    3  O3  UNL     1    -130.049  27.972 127.196  1.00  0.00    -0.199 OA
ENDROOT
BRANCH   1   4
HETATM    4  N3  UNL     1    -130.262  29.306 124.888  1.00  0.00    -0.313 N 
ATOM      5  H3  UNL     1    -130.037  28.566 124.223  1.00  0.00     0.172 HD
BRANCH   4   6
HETATM    6  C6  UNL     1    -130.068  30.682 124.585  1.00  0.00     0.142 C 
BRANCH   6   7
HETATM    7  C5  UNL     1    -128.664  31.155 124.876  1.00  0.00     0.094 C 
BRANCH   7   8
HETATM    8  S1  UNL     1    -128.548  32.959 124.715  1.00  0.00    -0.161 SA
BRANCH   8   9
HETATM    9  C4  UNL     1    -127.113  33.457 123.761  1.00  0.00     0.136 C 
BRANCH   9  10
HETATM   10  C3  UNL     1    -127.423  33.274 122.319  1.00  0.00     0.087 A 
HETATM   11  C2  UNL     1    -127.197  32.116 121.565  1.00  0.00     0.179 A 
HETATM   12  N2  UNL     1    -127.600  32.318 120.306  1.00  0.00    -0.169 N 
HETATM   13  C1  UNL     1    -128.074  33.561 120.227  1.00  0.00     0.678 A 
ATOM     14  H2  UNL     1    -127.553  31.642 119.544  1.00  0.00     0.186 HD
HETATM   15  N9  UNL     1    -127.969  34.139 121.438  1.00  0.00    -0.191 N 
ATOM     16  H9  UNL     1    -128.259  35.092 121.659  1.00  0.00     0.184 HD
BRANCH  11  17
HETATM   17  O1  UNL     1    -126.638  30.956 122.087  1.00  0.00    -0.344 OA
ATOM     18  H1  UNL     1    -126.332  30.819 122.976  1.00  0.00     0.219 HD
ENDBRANCH  11  17
BRANCH  13  19
HETATM   19  N1  UNL     1    -128.563  34.145 119.172  1.00  0.00    -0.234 N 
ATOM     20  H12 UNL     1    -128.382  35.116 118.913  1.00  0.00     0.174 HD
ATOM     21  H11 UNL     1    -129.178  33.731 118.471  1.00  0.00     0.174 HD
ENDBRANCH  13  19
ENDBRANCH   9  10
ENDBRANCH   8   9
ENDBRANCH   7   8
ENDBRANCH   6   7
ENDBRANCH   4   6
ENDBRANCH   1   4
BRANCH   1  22
HETATM   22  C7  UNL     1    -131.101  30.411 127.412  1.00  0.00     0.218 A 
HETATM   23  N4  UNL     1    -130.085  30.942 128.114  1.00  0.00    -0.328 N 
HETATM   24  C8  UNL     1    -130.240  32.045 128.874  1.00  0.00     0.150 A 
ATOM     25  H4  UNL     1    -129.169  30.496 128.072  1.00  0.00     0.168 HD
HETATM   26  N5  UNL     1    -129.174  32.611 129.618  1.00  0.00    -0.080 NA
HETATM   27  C9  UNL     1    -131.468  32.696 128.968  1.00  0.00     0.146 A 
HETATM   28  N8  UNL     1    -132.477  32.162 128.265  1.00  0.00    -0.314 N 
HETATM   29  C11 UNL     1    -132.318  31.048 127.501  1.00  0.00     0.286 A 
ATOM     30  H8  UNL     1    -133.395  32.606 128.304  1.00  0.00     0.169 HD
HETATM   31  O5  UNL     1    -133.296  30.599 126.868  1.00  0.00    -0.265 OA
BRANCH  27  32
HETATM   32  C10 UNL     1    -131.607  33.890 129.798  1.00  0.00     0.289 C 
HETATM   33  O4  UNL     1    -132.084  34.940 129.294  1.00  0.00    -0.264 OA
HETATM   34  N6  UNL     1    -131.227  33.929 131.162  1.00  0.00    -0.271 N 
ATOM     35  H6  UNL     1    -130.838  33.091 131.594  1.00  0.00     0.189 HD
BRANCH  34  36
HETATM   36  N7  UNL     1    -131.374  35.087 131.929  1.00  0.00    -0.342 N 
ATOM     37  H72 UNL     1    -131.595  35.958 131.448  1.00  0.00     0.176 HD
ATOM     38  H71 UNL     1    -131.264  35.073 132.942  1.00  0.00     0.176 HD
ENDBRANCH  34  36
ENDBRANCH  27  32
ENDBRANCH   1  22
TORSDOF 11
ENDMDL
MODEL 4
REMARK VINA RESULT: -7.216633581      2.836      3.722
REMARK  11 active torsions:
REMARK  status: ('A' for Active; 'I' for Inactive)
REMARK    1  A    between atoms: N1_1  and  C1_4 
REMARK    2  A    between atoms: C2_7  and  O1_8 
REMARK    3  A    between atoms: C3_10  and  C4_11 
REMARK    4  A    between atoms: C4_11  and  S1_12 
REMARK    5  A    between atoms: S1_12  and  C5_13 
REMARK    6  A    between atoms: C5_13  and  C6_14 
REMARK    7  A    between atoms: C6_14  and  N3_15 
REMARK    8  A    between atoms: N3_15  and  S2_17 
REMARK    9  A    between atoms: S2_17  and  C7_20 
REMARK   10  A    between atoms: C9_25  and  C10_26 
REMARK       I    between atoms: C10_26  and  N6_28 
REMARK   11  A    between atoms: N6_28  and  N7_30 
ROOT
HETATM    1  S2  UNL     1    -127.643  33.351 125.025  1.00  0.00     0.280 S 
HETATM    2  O2  UNL     1    -129.061  33.848 125.273  1.00  0.00    -0.199 OA
HETATM    3  O3  UNL     1    -126.946  34.492 124.300  1.00  0.00    -0.199 OA
ENDROOT
BRANCH   1   4
HETATM    4  N3  UNL     1    -126.950  33.018 126.532  1.00  0.00    -0.313 N 
ATOM      5  H3  UNL     1    -126.199  33.588 126.923  1.00  0.00     0.172 HD
BRANCH   4   6
HETATM    6  C6  UNL     1    -127.483  31.892 127.219  1.00  0.00     0.142 C 
BRANCH   6   7
HETATM    7  C5  UNL     1    -128.264  32.274 128.454  1.00  0.00     0.094 C 
BRANCH   7   8
HETATM    8  S1  UNL     1    -130.029  31.910 128.234  1.00  0.00    -0.161 SA
BRANCH   8   9
HETATM    9  C4  UNL     1    -130.330  30.898 126.785  1.00  0.00     0.136 C 
BRANCH   9  10
HETATM   10  C3  UNL     1    -130.919  29.608 127.229  1.00  0.00     0.087 A 
HETATM   11  C2  UNL     1    -131.731  28.762 126.464  1.00  0.00     0.179 A 
HETATM   12  N2  UNL     1    -132.073  27.694 127.191  1.00  0.00    -0.169 N 
HETATM   13  C1  UNL     1    -131.512  27.825 128.393  1.00  0.00     0.678 A 
ATOM     14  H2  UNL     1    -132.659  26.918 126.882  1.00  0.00     0.186 HD
HETATM   15  N9  UNL     1    -130.816  28.977 128.418  1.00  0.00    -0.191 N 
ATOM     16  H9  UNL     1    -130.287  29.324 129.219  1.00  0.00     0.184 HD
BRANCH  11  17
HETATM   17  O1  UNL     1    -132.099  29.031 125.150  1.00  0.00    -0.344 OA
ATOM     18  H1  UNL     1    -131.538  29.356 124.455  1.00  0.00     0.219 HD
ENDBRANCH  11  17
BRANCH  13  19
HETATM   19  N1  UNL     1    -131.602  26.997 129.393  1.00  0.00    -0.234 N 
ATOM     20  H12 UNL     1    -131.272  26.032 129.375  1.00  0.00     0.174 HD
ATOM     21  H11 UNL     1    -132.004  27.186 130.311  1.00  0.00     0.174 HD
ENDBRANCH  13  19
ENDBRANCH   9  10
ENDBRANCH   8   9
ENDBRANCH   7   8
ENDBRANCH   6   7
ENDBRANCH   4   6
ENDBRANCH   1   4
BRANCH   1  22
HETATM   22  C7  UNL     1    -127.697  31.958 123.961  1.00  0.00     0.218 A 
HETATM   23  N4  UNL     1    -128.440  30.875 124.251  1.00  0.00    -0.328 N 
HETATM   24  C8  UNL     1    -128.489  29.801 123.436  1.00  0.00     0.150 A 
ATOM     25  H4  UNL     1    -128.985  30.866 125.113  1.00  0.00     0.168 HD
HETATM   26  N5  UNL     1    -129.269  28.656 123.735  1.00  0.00    -0.080 NA
HETATM   27  C9  UNL     1    -127.767  29.759 122.245  1.00  0.00     0.146 A 
HETATM   28  N8  UNL     1    -127.028  30.842 121.962  1.00  0.00    -0.314 N 
HETATM   29  C11 UNL     1    -126.981  31.923 122.787  1.00  0.00     0.286 A 
ATOM     30  H8  UNL     1    -126.483  30.855 121.100  1.00  0.00     0.169 HD
HETATM   31  O5  UNL     1    -126.274  32.901 122.467  1.00  0.00    -0.265 OA
BRANCH  27  32
HETATM   32  C10 UNL     1    -127.838  28.583 121.383  1.00  0.00     0.289 C 
HETATM   33  O4  UNL     1    -126.779  27.973 121.082  1.00  0.00    -0.264 OA
HETATM   34  N6  UNL     1    -129.055  28.085 120.857  1.00  0.00    -0.271 N 
ATOM     35  H6  UNL     1    -129.928  28.562 121.086  1.00  0.00     0.189 HD
BRANCH  34  36
HETATM   36  N7  UNL     1    -129.089  26.957 120.035  1.00  0.00    -0.342 N 
ATOM     37  H72 UNL     1    -128.244  26.391 119.958  1.00  0.00     0.176 HD
ATOM     38  H71 UNL     1    -129.930  26.697 119.520  1.00  0.00     0.176 HD
ENDBRANCH  34  36
ENDBRANCH  27  32
ENDBRANCH   1  22
TORSDOF 11
ENDMDL
MODEL 5
REMARK VINA RESULT: -7.058359676      2.746      7.868
REMARK  11 active torsions:
REMARK  status: ('A' for Active; 'I' for Inactive)
REMARK    1  A    between atoms: N1_1  and  C1_4 
REMARK    2  A    between atoms: C2_7  and  O1_8 
REMARK    3  A    between atoms: C3_10  and  C4_11 
REMARK    4  A    between atoms: C4_11  and  S1_12 
REMARK    5  A    between atoms: S1_12  and  C5_13 
REMARK    6  A    between atoms: C5_13  and  C6_14 
REMARK    7  A    between atoms: C6_14  and  N3_15 
REMARK    8  A    between atoms: N3_15  and  S2_17 
REMARK    9  A    between atoms: S2_17  and  C7_20 
REMARK   10  A    between atoms: C9_25  and  C10_26 
REMARK       I    between atoms: C10_26  and  N6_28 
REMARK   11  A    between atoms: N6_28  and  N7_30 
ROOT
HETATM    1  S2  UNL     1    -130.273  29.673 125.086  1.00  0.00     0.280 S 
HETATM    2  O2  UNL     1    -131.527  29.652 124.222  1.00  0.00    -0.199 OA
HETATM    3  O3  UNL     1    -130.105  28.242 125.572  1.00  0.00    -0.199 OA
ENDROOT
BRANCH   1   4
HETATM    4  N3  UNL     1    -128.989  30.182 124.106  1.00  0.00    -0.313 N 
ATOM      5  H3  UNL     1    -128.501  31.064 124.264  1.00  0.00     0.172 HD
BRANCH   4   6
HETATM    6  C6  UNL     1    -128.636  29.298 123.049  1.00  0.00     0.142 C 
BRANCH   6   7
HETATM    7  C5  UNL     1    -127.212  29.483 122.581  1.00  0.00     0.094 C 
BRANCH   7   8
HETATM    8  S1  UNL     1    -126.634  31.166 122.936  1.00  0.00    -0.161 SA
BRANCH   8   9
HETATM    9  C4  UNL     1    -127.251  32.354 121.742  1.00  0.00     0.136 C 
BRANCH   9  10
HETATM   10  C3  UNL     1    -127.330  33.683 122.401  1.00  0.00     0.087 A 
HETATM   11  C2  UNL     1    -128.153  34.023 123.483  1.00  0.00     0.179 A 
HETATM   12  N2  UNL     1    -127.956  35.304 123.808  1.00  0.00    -0.169 N 
HETATM   13  C1  UNL     1    -127.040  35.798 122.975  1.00  0.00     0.678 A 
ATOM     14  H2  UNL     1    -128.423  35.813 124.558  1.00  0.00     0.186 HD
HETATM   15  N9  UNL     1    -126.661  34.823 122.126  1.00  0.00    -0.191 N 
ATOM     16  H9  UNL     1    -125.969  34.930 121.384  1.00  0.00     0.184 HD
BRANCH  11  17
HETATM   17  O1  UNL     1    -129.024  33.130 124.095  1.00  0.00    -0.344 OA
ATOM     18  H1  UNL     1    -129.768  32.693 123.696  1.00  0.00     0.219 HD
ENDBRANCH  11  17
BRANCH  13  19
HETATM   19  N1  UNL     1    -126.571  37.011 122.959  1.00  0.00    -0.234 N 
ATOM     20  H12 UNL     1    -126.830  37.740 123.625  1.00  0.00     0.174 HD
ATOM     21  H11 UNL     1    -125.895  37.400 122.300  1.00  0.00     0.174 HD
ENDBRANCH  13  19
ENDBRANCH   9  10
ENDBRANCH   8   9
ENDBRANCH   7   8
ENDBRANCH   6   7
ENDBRANCH   4   6
ENDBRANCH   1   4
BRANCH   1  22
HETATM   22  C7  UNL     1    -130.544  30.711 126.472  1.00  0.00     0.218 A 
HETATM   23  N4  UNL     1    -131.760  30.841 127.031  1.00  0.00    -0.328 N 
HETATM   24  C8  UNL     1    -131.975  31.636 128.100  1.00  0.00     0.150 A 
ATOM     25  H4  UNL     1    -132.543  30.322 126.636  1.00  0.00     0.168 HD
HETATM   26  N5  UNL     1    -133.254  31.779 128.695  1.00  0.00    -0.080 NA
HETATM   27  C9  UNL     1    -130.942  32.367 128.682  1.00  0.00     0.146 A 
HETATM   28  N8  UNL     1    -129.732  32.233 128.120  1.00  0.00    -0.314 N 
HETATM   29  C11 UNL     1    -129.518  31.431 127.042  1.00  0.00     0.286 A 
ATOM     30  H8  UNL     1    -128.945  32.749 128.514  1.00  0.00     0.169 HD
HETATM   31  O5  UNL     1    -128.368  31.348 126.564  1.00  0.00    -0.265 OA
BRANCH  27  32
HETATM   32  C10 UNL     1    -131.204  33.220 129.838  1.00  0.00     0.289 C 
HETATM   33  O4  UNL     1    -130.519  33.070 130.884  1.00  0.00    -0.264 OA
HETATM   34  N6  UNL     1    -132.203  34.222 129.845  1.00  0.00    -0.271 N 
ATOM     35  H6  UNL     1    -132.773  34.364 129.010  1.00  0.00     0.189 HD
BRANCH  34  36
HETATM   36  N7  UNL     1    -132.429  35.022 130.967  1.00  0.00    -0.342 N 
ATOM     37  H72 UNL     1    -133.357  35.426 131.093  1.00  0.00     0.176 HD
ATOM     38  H71 UNL     1    -131.693  35.205 131.649  1.00  0.00     0.176 HD
ENDBRANCH  34  36
ENDBRANCH  27  32
ENDBRANCH   1  22
TORSDOF 11
ENDMDL
