MODEL 1
REMARK VINA RESULT: -5.031700200      0.000      0.000
REMARK  2 active torsions:
REMARK  status: ('A' for Active; 'I' for Inactive)
REMARK    1  A    between atoms: C2_2  and  C3_3 
REMARK    2  A    between atoms: C8_8  and  N1_9 
REMARK       I    between atoms: N1_9  and  C9_11 
ROOT
HETATM    1  C3  UNL     1      11.044 -17.761   4.018  1.00  0.00     0.019 C 
HETATM    2  C4  UNL     1      11.400 -18.072   5.466  1.00  0.00     0.017 C 
HETATM    3  C5  UNL     1      12.762 -17.440   5.512  1.00  0.00     0.008 C 
HETATM    4  C6  UNL     1      13.328 -17.989   4.189  1.00  0.00     0.008 C 
HETATM    5  C7  UNL     1      12.116 -18.780   3.736  1.00  0.00     0.017 C 
HETATM    6  C8  UNL     1      11.724 -19.468   4.996  1.00  0.00     0.095 C 
ENDROOT
BRANCH   6   7
HETATM    7  N1  UNL     1      12.810 -20.127   5.709  1.00  0.00    -0.340 N 
HETATM    8  C9  UNL     1      12.597 -21.373   6.348  1.00  0.00     0.329 C 
HETATM    9  N2  UNL     1      13.654 -21.998   7.034  1.00  0.00    -0.040 NA
HETATM   10  O1  UNL     1      11.482 -21.908   6.304  1.00  0.00    -0.251 OA
ATOM     11  H1  UNL     1      13.730 -19.688   5.748  1.00  0.00     0.164 HD
ENDBRANCH   6   7
BRANCH   1  12
HETATM   12  C2  UNL     1       9.690 -18.025   3.591  1.00  0.00    -0.031 C 
HETATM   13  C1  UNL     1       9.247 -18.070   2.342  1.00  0.00     0.007 C 
ENDBRANCH   1  12
TORSDOF 2
ENDMDL
MODEL 2
REMARK VINA RESULT: -4.721116067      5.635      8.802
REMARK  2 active torsions:
REMARK  status: ('A' for Active; 'I' for Inactive)
REMARK    1  A    between atoms: C2_2  and  C3_3 
REMARK    2  A    between atoms: C8_8  and  N1_9 
REMARK       I    between atoms: N1_9  and  C9_11 
ROOT
HETATM    1  C3  UNL     1      12.206 -26.007  11.334  1.00  0.00     0.019 C 
HETATM    2  C4  UNL     1      11.949 -24.585  10.850  1.00  0.00     0.017 C 
HETATM    3  C5  UNL     1      10.493 -24.719  10.501  1.00  0.00     0.008 C 
HETATM    4  C6  UNL     1      10.550 -26.054   9.737  1.00  0.00     0.008 C 
HETATM    5  C7  UNL     1      12.035 -26.331   9.874  1.00  0.00     0.017 C 
HETATM    6  C8  UNL     1      12.614 -24.996   9.561  1.00  0.00     0.095 C 
ENDROOT
BRANCH   6   7
HETATM    7  N1  UNL     1      12.091 -24.356   8.361  1.00  0.00    -0.340 N 
HETATM    8  C9  UNL     1      12.881 -23.427   7.640  1.00  0.00     0.329 C 
HETATM    9  N2  UNL     1      12.363 -22.816   6.484  1.00  0.00    -0.040 NA
HETATM   10  O1  UNL     1      14.023 -23.154   8.030  1.00  0.00    -0.251 OA
ATOM     11  H1  UNL     1      11.149 -24.578   8.038  1.00  0.00     0.164 HD
ENDBRANCH   6   7
BRANCH   1  12
HETATM   12  C2  UNL     1      13.474 -26.277  11.972  1.00  0.00    -0.031 C 
HETATM   13  C1  UNL     1      14.137 -27.424  11.963  1.00  0.00     0.007 C 
ENDBRANCH   1  12
TORSDOF 2
ENDMDL
MODEL 3
REMARK VINA RESULT: -4.685484744      9.831     10.701
REMARK  2 active torsions:
REMARK  status: ('A' for Active; 'I' for Inactive)
REMARK    1  A    between atoms: C2_2  and  C3_3 
REMARK    2  A    between atoms: C8_8  and  N1_9 
REMARK       I    between atoms: N1_9  and  C9_11 
ROOT
HETATM    1  C3  UNL     1       8.372 -27.063  10.053  1.00  0.00     0.019 C 
HETATM    2  C4  UNL     1       9.462 -27.390   9.040  1.00  0.00     0.017 C 
HETATM    3  C5  UNL     1       8.906 -28.682   8.510  1.00  0.00     0.008 C 
HETATM    4  C6  UNL     1       8.531 -29.349   9.846  1.00  0.00     0.008 C 
HETATM    5  C7  UNL     1       8.964 -28.239  10.784  1.00  0.00     0.017 C 
HETATM    6  C8  UNL     1      10.286 -27.867  10.210  1.00  0.00     0.095 C 
ENDROOT
BRANCH   6   7
HETATM    7  N1  UNL     1      11.178 -28.983   9.927  1.00  0.00    -0.340 N 
HETATM    8  C9  UNL     1      12.539 -28.931  10.319  1.00  0.00     0.329 C 
HETATM    9  N2  UNL     1      13.390 -30.016  10.040  1.00  0.00    -0.040 NA
HETATM   10  O1  UNL     1      12.976 -27.932  10.905  1.00  0.00    -0.251 OA
ATOM     11  H1  UNL     1      10.821 -29.807   9.444  1.00  0.00     0.164 HD
ENDBRANCH   6   7
BRANCH   1  12
HETATM   12  C2  UNL     1       8.405 -25.758  10.672  1.00  0.00    -0.031 C 
HETATM   13  C1  UNL     1       7.589 -25.308  11.614  1.00  0.00     0.007 C 
ENDBRANCH   1  12
TORSDOF 2
ENDMDL
MODEL 4
REMARK VINA RESULT: -4.410548879      8.598      9.810
REMARK  2 active torsions:
REMARK  status: ('A' for Active; 'I' for Inactive)
REMARK    1  A    between atoms: C2_2  and  C3_3 
REMARK    2  A    between atoms: C8_8  and  N1_9 
REMARK       I    between atoms: N1_9  and  C9_11 
ROOT
HETATM    1  C3  UNL     1      11.274 -24.719  11.437  1.00  0.00     0.019 C 
HETATM    2  C4  UNL     1      12.276 -25.285  10.440  1.00  0.00     0.017 C 
HETATM    3  C5  UNL     1      11.355 -25.478   9.268  1.00  0.00     0.008 C 
HETATM    4  C6  UNL     1      10.171 -26.137   9.999  1.00  0.00     0.008 C 
HETATM    5  C7  UNL     1      10.737 -26.125  11.405  1.00  0.00     0.017 C 
HETATM    6  C8  UNL     1      12.129 -26.598  11.167  1.00  0.00     0.095 C 
ENDROOT
BRANCH   6   7
HETATM    7  N1  UNL     1      12.248 -27.786  10.334  1.00  0.00    -0.340 N 
HETATM    8  C9  UNL     1      13.110 -28.845  10.713  1.00  0.00     0.329 C 
HETATM    9  N2  UNL     1      13.217 -29.987   9.899  1.00  0.00    -0.040 NA
HETATM   10  O1  UNL     1      13.768 -28.762  11.758  1.00  0.00    -0.251 OA
ATOM     11  H1  UNL     1      11.708 -27.857   9.472  1.00  0.00     0.164 HD
ENDBRANCH   6   7
BRANCH   1  12
HETATM   12  C2  UNL     1      11.792 -24.189  12.677  1.00  0.00    -0.031 C 
HETATM   13  C1  UNL     1      12.350 -23.001  12.859  1.00  0.00     0.007 C 
ENDBRANCH   1  12
TORSDOF 2
ENDMDL
MODEL 5
REMARK VINA RESULT: -4.336880084      8.639      9.633
REMARK  2 active torsions:
REMARK  status: ('A' for Active; 'I' for Inactive)
REMARK    1  A    between atoms: C2_2  and  C3_3 
REMARK    2  A    between atoms: C8_8  and  N1_9 
REMARK       I    between atoms: N1_9  and  C9_11 
ROOT
HETATM    1  C3  UNL     1      10.425 -25.034  10.853  1.00  0.00     0.019 C 
HETATM    2  C4  UNL     1      11.323 -26.037  11.565  1.00  0.00     0.017 C 
HETATM    3  C5  UNL     1      12.659 -25.449  11.205  1.00  0.00     0.008 C 
HETATM    4  C6  UNL     1      12.414 -25.194   9.707  1.00  0.00     0.008 C 
HETATM    5  C7  UNL     1      10.985 -25.695   9.622  1.00  0.00     0.017 C 
HETATM    6  C8  UNL     1      11.070 -26.961  10.401  1.00  0.00     0.095 C 
ENDROOT
BRANCH   6   7
HETATM    7  N1  UNL     1      12.180 -27.836  10.048  1.00  0.00    -0.340 N 
HETATM    8  C9  UNL     1      12.165 -29.202  10.422  1.00  0.00     0.329 C 
HETATM    9  N2  UNL     1      13.243 -30.035  10.076  1.00  0.00    -0.040 NA
HETATM   10  O1  UNL     1      11.203 -29.659  11.054  1.00  0.00    -0.251 OA
ATOM     11  H1  UNL     1      12.974 -27.461   9.529  1.00  0.00     0.164 HD
ENDBRANCH   6   7
BRANCH   1  12
HETATM   12  C2  UNL     1       9.005 -25.109  11.110  1.00  0.00    -0.031 C 
HETATM   13  C1  UNL     1       8.381 -24.748  12.222  1.00  0.00     0.007 C 
ENDBRANCH   1  12
TORSDOF 2
ENDMDL
