MODEL 1
REMARK VINA RESULT: -5.168946228      0.000      0.000
REMARK  2 active torsions:
REMARK  status: ('A' for Active; 'I' for Inactive)
REMARK    1  A    between atoms: C2_2  and  N2_6 
REMARK    2  A    between atoms: N2_6  and  C3_8 
ROOT
HETATM    1  C3  UNL     1      12.395 -20.575   5.475  1.00  0.00     0.110 C 
HETATM    2  C4  UNL     1      13.570 -20.052   4.682  1.00  0.00     0.054 C 
HETATM    3  C5  UNL     1      12.839 -19.099   3.733  1.00  0.00     0.238 C 
HETATM    4  N3  UNL     1      11.945 -18.405   4.631  1.00  0.00    -0.073 N 
HETATM    5  C6  UNL     1      12.557 -17.192   5.103  1.00  0.00     0.272 C 
HETATM    6  C7  UNL     1      10.752 -18.071   3.858  1.00  0.00     0.272 C 
HETATM    7  C8  UNL     1      11.624 -19.288   5.711  1.00  0.00     0.261 C 
ENDROOT
BRANCH   1   8
HETATM    8  N2  UNL     1      12.795 -21.210   6.704  1.00  0.00    -0.374 N 
ATOM      9  H2  UNL     1      12.934 -20.671   7.559  1.00  0.00     0.161 HD
BRANCH   8  10
HETATM   10  C2  UNL     1      12.989 -22.619   6.675  1.00  0.00     0.066 C 
HETATM   11  C1  UNL     1      13.536 -23.399   7.802  1.00  0.00     0.088 C 
HETATM   12  N1  UNL     1      12.666 -23.245   5.605  1.00  0.00    -0.389 N 
ATOM     13  H12 UNL     1      12.804 -24.255   5.584  1.00  0.00     0.157 HD
ATOM     14  H11 UNL     1      12.287 -22.706   4.825  1.00  0.00     0.157 HD
ENDBRANCH   8  10
ENDBRANCH   1   8
TORSDOF 2
ENDMDL
MODEL 2
REMARK VINA RESULT: -4.916121743      1.038      1.860
REMARK  2 active torsions:
REMARK  status: ('A' for Active; 'I' for Inactive)
REMARK    1  A    between atoms: C2_2  and  N2_6 
REMARK    2  A    between atoms: N2_6  and  C3_8 
ROOT
HETATM    1  C3  UNL     1      11.376 -20.468   5.965  1.00  0.00     0.110 C 
HETATM    2  C4  UNL     1      10.240 -19.840   5.191  1.00  0.00     0.054 C 
HETATM    3  C5  UNL     1      10.751 -18.400   5.103  1.00  0.00     0.238 C 
HETATM    4  N3  UNL     1      12.133 -18.591   4.728  1.00  0.00    -0.073 N 
HETATM    5  C6  UNL     1      12.271 -18.547   3.297  1.00  0.00     0.272 C 
HETATM    6  C7  UNL     1      12.883 -17.486   5.317  1.00  0.00     0.272 C 
HETATM    7  C8  UNL     1      12.569 -19.846   5.260  1.00  0.00     0.261 C 
ENDROOT
BRANCH   1   8
HETATM    8  N2  UNL     1      11.374 -21.906   5.881  1.00  0.00    -0.374 N 
ATOM      9  H2  UNL     1      10.557 -22.417   5.549  1.00  0.00     0.161 HD
BRANCH   8  10
HETATM   10  C2  UNL     1      12.561 -22.581   6.281  1.00  0.00     0.066 C 
HETATM   11  C1  UNL     1      13.252 -22.344   7.562  1.00  0.00     0.088 C 
HETATM   12  N1  UNL     1      13.054 -23.449   5.476  1.00  0.00    -0.389 N 
ATOM     13  H12 UNL     1      13.905 -23.934   5.763  1.00  0.00     0.157 HD
ATOM     14  H11 UNL     1      12.576 -23.613   4.590  1.00  0.00     0.157 HD
ENDBRANCH   8  10
ENDBRANCH   1   8
TORSDOF 2
ENDMDL
MODEL 3
REMARK VINA RESULT: -4.429104820      4.260      7.933
REMARK  2 active torsions:
REMARK  status: ('A' for Active; 'I' for Inactive)
REMARK    1  A    between atoms: C2_2  and  N2_6 
REMARK    2  A    between atoms: N2_6  and  C3_8 
ROOT
HETATM    1  C3  UNL     1      12.152 -25.007   9.707  1.00  0.00     0.110 C 
HETATM    2  C4  UNL     1      12.921 -25.911  10.642  1.00  0.00     0.054 C 
HETATM    3  C5  UNL     1      11.826 -26.216  11.667  1.00  0.00     0.238 C 
HETATM    4  N3  UNL     1      10.693 -26.508  10.822  1.00  0.00    -0.073 N 
HETATM    5  C6  UNL     1      10.612 -27.922  10.569  1.00  0.00     0.272 C 
HETATM    6  C7  UNL     1       9.504 -26.084  11.554  1.00  0.00     0.272 C 
HETATM    7  C8  UNL     1      10.838 -25.764   9.608  1.00  0.00     0.261 C 
ENDROOT
BRANCH   1   8
HETATM    8  N2  UNL     1      12.797 -24.855   8.429  1.00  0.00    -0.374 N 
ATOM      9  H2  UNL     1      13.021 -25.662   7.847  1.00  0.00     0.161 HD
BRANCH   8  10
HETATM   10  C2  UNL     1      13.109 -23.531   8.012  1.00  0.00     0.066 C 
HETATM   11  C1  UNL     1      12.769 -22.983   6.684  1.00  0.00     0.088 C 
HETATM   12  N1  UNL     1      13.722 -22.771   8.843  1.00  0.00    -0.389 N 
ATOM     13  H12 UNL     1      13.945 -21.822   8.544  1.00  0.00     0.157 HD
ATOM     14  H11 UNL     1      13.957 -23.149   9.761  1.00  0.00     0.157 HD
ENDBRANCH   8  10
ENDBRANCH   1   8
TORSDOF 2
ENDMDL
MODEL 4
REMARK VINA RESULT: -4.148721186      6.603      8.662
REMARK  2 active torsions:
REMARK  status: ('A' for Active; 'I' for Inactive)
REMARK    1  A    between atoms: C2_2  and  N2_6 
REMARK    2  A    between atoms: N2_6  and  C3_8 
ROOT
HETATM    1  C3  UNL     1      11.095 -27.624  10.586  1.00  0.00     0.110 C 
HETATM    2  C4  UNL     1      10.050 -26.895   9.774  1.00  0.00     0.054 C 
HETATM    3  C5  UNL     1      10.227 -25.481  10.330  1.00  0.00     0.238 C 
HETATM    4  N3  UNL     1      11.664 -25.335  10.333  1.00  0.00    -0.073 N 
HETATM    5  C6  UNL     1      12.105 -24.724   9.108  1.00  0.00     0.272 C 
HETATM    6  C7  UNL     1      11.993 -24.457  11.452  1.00  0.00     0.272 C 
HETATM    7  C8  UNL     1      12.243 -26.631  10.513  1.00  0.00     0.261 C 
ENDROOT
BRANCH   1   8
HETATM    8  N2  UNL     1      11.438 -28.905  10.025  1.00  0.00    -0.374 N 
ATOM      9  H2  UNL     1      10.775 -29.430   9.456  1.00  0.00     0.161 HD
BRANCH   8  10
HETATM   10  C2  UNL     1      12.742 -29.406  10.298  1.00  0.00     0.066 C 
HETATM   11  C1  UNL     1      13.408 -29.298  11.611  1.00  0.00     0.088 C 
HETATM   12  N1  UNL     1      13.371 -29.987   9.344  1.00  0.00    -0.389 N 
ATOM     13  H12 UNL     1      14.305 -30.346   9.540  1.00  0.00     0.157 HD
ATOM     14  H11 UNL     1      12.911 -30.061   8.437  1.00  0.00     0.157 HD
ENDBRANCH   8  10
ENDBRANCH   1   8
TORSDOF 2
ENDMDL
MODEL 5
REMARK VINA RESULT: -4.100078723      7.034      8.836
REMARK  2 active torsions:
REMARK  status: ('A' for Active; 'I' for Inactive)
REMARK    1  A    between atoms: C2_2  and  N2_6 
REMARK    2  A    between atoms: N2_6  and  C3_8 
ROOT
HETATM    1  C3  UNL     1      10.422 -27.579  10.384  1.00  0.00     0.110 C 
HETATM    2  C4  UNL     1       9.820 -26.443   9.591  1.00  0.00     0.054 C 
HETATM    3  C5  UNL     1      10.371 -25.254  10.381  1.00  0.00     0.238 C 
HETATM    4  N3  UNL     1      11.755 -25.626  10.561  1.00  0.00    -0.073 N 
HETATM    5  C6  UNL     1      12.559 -25.076   9.503  1.00  0.00     0.272 C 
HETATM    6  C7  UNL     1      12.181 -25.052  11.834  1.00  0.00     0.272 C 
HETATM    7  C8  UNL     1      11.832 -27.055  10.593  1.00  0.00     0.261 C 
ENDROOT
BRANCH   1   8
HETATM    8  N2  UNL     1      10.400 -28.828   9.666  1.00  0.00    -0.374 N 
ATOM      9  H2  UNL     1      11.136 -29.523   9.788  1.00  0.00     0.161 HD
BRANCH   8  10
HETATM   10  C2  UNL     1       9.308 -29.050   8.782  1.00  0.00     0.066 C 
HETATM   11  C1  UNL     1       7.897 -29.108   9.213  1.00  0.00     0.088 C 
HETATM   12  N1  UNL     1       9.569 -29.206   7.537  1.00  0.00    -0.389 N 
ATOM     13  H12 UNL     1       8.786 -29.366   6.903  1.00  0.00     0.157 HD
ATOM     14  H11 UNL     1      10.544 -29.166   7.239  1.00  0.00     0.157 HD
ENDBRANCH   8  10
ENDBRANCH   1   8
TORSDOF 2
ENDMDL
