MODEL 1
REMARK VINA RESULT: -5.373028864      0.000      0.000
REMARK  2 active torsions:
REMARK  status: ('A' for Active; 'I' for Inactive)
REMARK    1  A    between atoms: N1_2  and  C3_4 
REMARK       I    between atoms: N2_5  and  C4_7 
REMARK       I    between atoms: C4_7  and  N3_9 
REMARK    2  A    between atoms: N3_9  and  C5_11 
ROOT
HETATM    1  C3  UNL     1      12.470 -25.179   9.336  1.00  0.00     0.181 C 
HETATM    2  N2  UNL     1      13.132 -24.061   9.216  1.00  0.00    -0.305 N 
ATOM      3  H2  UNL     1      13.582 -23.657  10.037  1.00  0.00     0.171 HD
HETATM    4  C4  UNL     1      13.239 -23.398   7.969  1.00  0.00     0.321 C 
HETATM    5  O1  UNL     1      14.352 -23.314   7.388  1.00  0.00    -0.247 OA
HETATM    6  N3  UNL     1      12.113 -22.810   7.333  1.00  0.00    -0.338 N 
ATOM      7  H3  UNL     1      11.208 -22.875   7.801  1.00  0.00     0.164 HD
ENDROOT
BRANCH   6   8
HETATM    8  C5  UNL     1      12.176 -22.130   6.073  1.00  0.00     0.086 A 
HETATM    9  C6  UNL     1      11.211 -20.980   5.887  1.00  0.00     0.027 A 
HETATM   10  C7  UNL     1      12.668 -20.743   5.956  1.00  0.00     0.027 A 
ENDBRANCH   6   8
BRANCH   1  11
HETATM   11  N1  UNL     1      12.355 -25.852  10.574  1.00  0.00    -0.386 N 
HETATM   12  C1  UNL     1      12.108 -25.016  11.753  1.00  0.00     0.149 C 
HETATM   13  C2  UNL     1      12.468 -27.287  10.719  1.00  0.00     0.149 C 
ENDBRANCH   1  11
TORSDOF 2
ENDMDL
MODEL 2
REMARK VINA RESULT: -5.334618989      0.075      1.074
REMARK  2 active torsions:
REMARK  status: ('A' for Active; 'I' for Inactive)
REMARK    1  A    between atoms: N1_2  and  C3_4 
REMARK       I    between atoms: N2_5  and  C4_7 
REMARK       I    between atoms: C4_7  and  N3_9 
REMARK    2  A    between atoms: N3_9  and  C5_11 
ROOT
HETATM    1  C3  UNL     1      12.473 -25.172   9.371  1.00  0.00     0.181 C 
HETATM    2  N2  UNL     1      13.126 -24.051   9.243  1.00  0.00    -0.305 N 
ATOM      3  H2  UNL     1      13.563 -23.630  10.063  1.00  0.00     0.171 HD
HETATM    4  C4  UNL     1      13.241 -23.405   7.988  1.00  0.00     0.321 C 
HETATM    5  O1  UNL     1      14.360 -23.319   7.418  1.00  0.00    -0.247 OA
HETATM    6  N3  UNL     1      12.117 -22.836   7.331  1.00  0.00    -0.338 N 
ATOM      7  H3  UNL     1      11.207 -22.903   7.788  1.00  0.00     0.164 HD
ENDROOT
BRANCH   6   8
HETATM    8  C5  UNL     1      12.188 -22.175   6.061  1.00  0.00     0.086 A 
HETATM    9  C6  UNL     1      11.250 -21.004   5.867  1.00  0.00     0.027 A 
HETATM   10  C7  UNL     1      12.712 -20.801   5.924  1.00  0.00     0.027 A 
ENDBRANCH   6   8
BRANCH   1  11
HETATM   11  N1  UNL     1      12.350 -25.829  10.618  1.00  0.00    -0.386 N 
HETATM   12  C1  UNL     1      12.446 -27.291  10.600  1.00  0.00     0.149 C 
HETATM   13  C2  UNL     1      12.140 -25.136  11.871  1.00  0.00     0.149 C 
ENDBRANCH   1  11
TORSDOF 2
ENDMDL
MODEL 3
REMARK VINA RESULT: -4.622047262      1.554      5.670
REMARK  2 active torsions:
REMARK  status: ('A' for Active; 'I' for Inactive)
REMARK    1  A    between atoms: N1_2  and  C3_4 
REMARK       I    between atoms: N2_5  and  C4_7 
REMARK       I    between atoms: C4_7  and  N3_9 
REMARK    2  A    between atoms: N3_9  and  C5_11 
ROOT
HETATM    1  C3  UNL     1      12.274 -21.102   6.467  1.00  0.00     0.181 C 
HETATM    2  N2  UNL     1      12.907 -22.215   6.219  1.00  0.00    -0.305 N 
ATOM      3  H2  UNL     1      13.186 -22.428   5.262  1.00  0.00     0.171 HD
HETATM    4  C4  UNL     1      13.216 -23.133   7.252  1.00  0.00     0.321 C 
HETATM    5  O1  UNL     1      14.412 -23.335   7.586  1.00  0.00    -0.247 OA
HETATM    6  N3  UNL     1      12.203 -23.852   7.944  1.00  0.00    -0.338 N 
ATOM      7  H3  UNL     1      11.231 -23.692   7.677  1.00  0.00     0.164 HD
ENDROOT
BRANCH   6   8
HETATM    8  C5  UNL     1      12.470 -24.789   8.995  1.00  0.00     0.086 A 
HETATM    9  C6  UNL     1      11.850 -24.477  10.338  1.00  0.00     0.027 A 
HETATM   10  C7  UNL     1      11.414 -25.653   9.558  1.00  0.00     0.027 A 
ENDBRANCH   6   8
BRANCH   1  11
HETATM   11  N1  UNL     1      11.960 -20.175   5.445  1.00  0.00    -0.386 N 
HETATM   12  C1  UNL     1      10.540 -19.855   5.266  1.00  0.00     0.149 C 
HETATM   13  C2  UNL     1      12.952 -19.551   4.597  1.00  0.00     0.149 C 
ENDBRANCH   1  11
TORSDOF 2
ENDMDL
MODEL 4
REMARK VINA RESULT: -4.565891504      1.548      5.698
REMARK  2 active torsions:
REMARK  status: ('A' for Active; 'I' for Inactive)
REMARK    1  A    between atoms: N1_2  and  C3_4 
REMARK       I    between atoms: N2_5  and  C4_7 
REMARK       I    between atoms: C4_7  and  N3_9 
REMARK    2  A    between atoms: N3_9  and  C5_11 
ROOT
HETATM    1  C3  UNL     1      12.223 -21.097   6.451  1.00  0.00     0.181 C 
HETATM    2  N2  UNL     1      12.841 -22.214   6.185  1.00  0.00    -0.305 N 
ATOM      3  H2  UNL     1      13.082 -22.434   5.219  1.00  0.00     0.171 HD
HETATM    4  C4  UNL     1      13.184 -23.129   7.211  1.00  0.00     0.321 C 
HETATM    5  O1  UNL     1      14.391 -23.335   7.500  1.00  0.00    -0.247 OA
HETATM    6  N3  UNL     1      12.195 -23.839   7.944  1.00  0.00    -0.338 N 
ATOM      7  H3  UNL     1      11.215 -23.675   7.713  1.00  0.00     0.164 HD
ENDROOT
BRANCH   6   8
HETATM    8  C5  UNL     1      12.498 -24.772   8.989  1.00  0.00     0.086 A 
HETATM    9  C6  UNL     1      11.876 -24.487  10.337  1.00  0.00     0.027 A 
HETATM   10  C7  UNL     1      11.472 -25.673   9.554  1.00  0.00     0.027 A 
ENDBRANCH   6   8
BRANCH   1  11
HETATM   11  N1  UNL     1      11.874 -20.174   5.437  1.00  0.00    -0.386 N 
HETATM   12  C1  UNL     1      12.977 -19.635   4.636  1.00  0.00     0.149 C 
HETATM   13  C2  UNL     1      10.516 -19.756   5.168  1.00  0.00     0.149 C 
ENDBRANCH   1  11
TORSDOF 2
ENDMDL
MODEL 5
REMARK VINA RESULT: -4.108407416      5.082      7.392
REMARK  2 active torsions:
REMARK  status: ('A' for Active; 'I' for Inactive)
REMARK    1  A    between atoms: N1_2  and  C3_4 
REMARK       I    between atoms: N2_5  and  C4_7 
REMARK       I    between atoms: C4_7  and  N3_9 
REMARK    2  A    between atoms: N3_9  and  C5_11 
ROOT
HETATM    1  C3  UNL     1      10.188 -27.003   9.856  1.00  0.00     0.181 C 
HETATM    2  N2  UNL     1       9.606 -27.326   8.734  1.00  0.00    -0.305 N 
ATOM      3  H2  UNL     1       9.584 -26.651   7.971  1.00  0.00     0.171 HD
HETATM    4  C4  UNL     1       9.005 -28.595   8.555  1.00  0.00     0.321 C 
HETATM    5  O1  UNL     1       9.492 -29.419   7.738  1.00  0.00    -0.247 OA
HETATM    6  N3  UNL     1       7.846 -28.985   9.280  1.00  0.00    -0.338 N 
ATOM      7  H3  UNL     1       7.447 -28.321   9.944  1.00  0.00     0.164 HD
ENDROOT
BRANCH   6   8
HETATM    8  C5  UNL     1       7.206 -30.259   9.130  1.00  0.00     0.086 A 
HETATM    9  C6  UNL     1       6.437 -30.763  10.331  1.00  0.00     0.027 A 
HETATM   10  C7  UNL     1       5.736 -30.394   9.084  1.00  0.00     0.027 A 
ENDBRANCH   6   8
BRANCH   1  11
HETATM   11  N1  UNL     1      10.793 -25.739  10.049  1.00  0.00    -0.386 N 
HETATM   12  C1  UNL     1       9.997 -24.733  10.759  1.00  0.00     0.149 C 
HETATM   13  C2  UNL     1      12.125 -25.409   9.589  1.00  0.00     0.149 C 
ENDBRANCH   1  11
TORSDOF 2
ENDMDL
