MODEL 1
REMARK VINA RESULT: -9.794831444      0.000      0.000
REMARK  10 active torsions:
REMARK  status: ('A' for Active; 'I' for Inactive)
REMARK    1  A    between atoms: C2_2  and  C5_5 
REMARK    2  A    between atoms: N2_18  and  C14_19 
REMARK    3  A    between atoms: C14_19  and  C15_20 
REMARK    4  A    between atoms: C15_20  and  C16_21 
REMARK    5  A    between atoms: C16_21  and  C17_22 
REMARK    6  A    between atoms: C17_22  and  C18_23 
REMARK    7  A    between atoms: C18_23  and  C19_24 
REMARK    8  A    between atoms: C18_23  and  N5_38 
REMARK       I    between atoms: C19_24  and  N3_26 
REMARK    9  A    between atoms: C25_32  and  C26_33 
REMARK   10  A    between atoms: C26_33  and  N4_34 
ROOT
HETATM    1  C16 UNL     1      13.794 -19.733 -15.126  1.00  0.00     0.004 C 
ENDROOT
BRANCH   1   2
HETATM    2  C15 UNL     1      12.886 -18.568 -15.344  1.00  0.00     0.020 C 
BRANCH   2   3
HETATM    3  C14 UNL     1      11.736 -18.646 -14.329  1.00  0.00     0.127 C 
BRANCH   3   4
HETATM    4  N2  UNL     1      10.574 -17.936 -14.811  1.00  0.00    -0.333 N 
HETATM    5  C8  UNL     1       9.630 -18.440 -15.769  1.00  0.00     0.051 C 
HETATM    6  C7  UNL     1       9.778 -17.595 -17.023  1.00  0.00     0.033 C 
HETATM    7  C9  UNL     1       9.726 -19.901 -16.036  1.00  0.00     0.033 C 
HETATM    8  C11 UNL     1       8.228 -18.169 -15.206  1.00  0.00     0.154 C 
HETATM    9  C6  UNL     1      10.643 -18.409 -17.992  1.00  0.00     0.008 C 
HETATM   10  C5  UNL     1       9.761 -19.492 -18.523  1.00  0.00    -0.007 C 
HETATM   11  C10 UNL     1       9.155 -20.257 -17.369  1.00  0.00     0.008 C 
HETATM   12  N1  UNL     1       7.998 -16.762 -14.978  1.00  0.00    -0.351 N 
HETATM   13  C12 UNL     1       9.012 -16.003 -14.369  1.00  0.00     0.309 C 
ATOM     14  H1  UNL     1       7.117 -16.328 -15.254  1.00  0.00     0.162 HD
HETATM   15  O1  UNL     1       8.835 -14.840 -13.898  1.00  0.00    -0.262 OA
HETATM   16  C13 UNL     1      10.349 -16.630 -14.290  1.00  0.00     0.312 C 
HETATM   17  O2  UNL     1      11.243 -15.937 -13.741  1.00  0.00    -0.262 OA
BRANCH  10  18
HETATM   18  C2  UNL     1      10.470 -20.366 -19.506  1.00  0.00    -0.048 C 
HETATM   19  C1  UNL     1      10.194 -21.828 -19.384  1.00  0.00     0.015 C 
HETATM   20  C3  UNL     1      11.970 -20.172 -19.266  1.00  0.00     0.015 C 
HETATM   21  C4  UNL     1      10.216 -19.873 -20.926  1.00  0.00     0.015 C 
ENDBRANCH  10  18
ENDBRANCH   3   4
ENDBRANCH   2   3
ENDBRANCH   1   2
BRANCH   1  22
HETATM   22  C17 UNL     1      13.630 -20.878 -16.024  1.00  0.00     0.035 C 
BRANCH  22  23
HETATM   23  C18 UNL     1      14.805 -21.641 -16.501  1.00  0.00     0.176 C 
BRANCH  23  24
HETATM   24  C19 UNL     1      14.272 -22.667 -17.473  1.00  0.00     0.247 C 
HETATM   25  O3  UNL     1      13.019 -22.934 -17.403  1.00  0.00    -0.271 OA
HETATM   26  N3  UNL     1      15.003 -23.353 -18.445  1.00  0.00    -0.318 N 
HETATM   27  C20 UNL     1      16.430 -23.161 -18.704  1.00  0.00     0.137 C 
HETATM   28  C25 UNL     1      14.348 -24.369 -19.298  1.00  0.00     0.038 C 
HETATM   29  C21 UNL     1      17.149 -24.446 -18.403  1.00  0.00     0.009 A 
HETATM   30  C22 UNL     1      17.860 -25.247 -19.392  1.00  0.00     0.012 A 
HETATM   31  C23 UNL     1      16.430 -25.638 -18.910  1.00  0.00    -0.003 A 
HETATM   32  C24 UNL     1      15.309 -25.346 -19.879  1.00  0.00     0.063 C 
BRANCH  28  33
HETATM   33  C26 UNL     1      13.294 -23.876 -20.175  1.00  0.00     0.226 C 
BRANCH  33  34
HETATM   34  N4  UNL     1      13.546 -23.101 -21.322  1.00  0.00    -0.057 N 
HETATM   35  C27 UNL     1      14.515 -23.636 -22.256  1.00  0.00     0.277 C 
HETATM   36  C28 UNL     1      12.259 -23.176 -22.075  1.00  0.00     0.277 C 
HETATM   37  C29 UNL     1      13.723 -21.684 -21.141  1.00  0.00     0.277 C 
ENDBRANCH  33  34
ENDBRANCH  28  33
ENDBRANCH  23  24
BRANCH  23  38
HETATM   38  N5  UNL     1      15.631 -22.270 -15.572  1.00  0.00    -0.380 N 
HETATM   39  C30 UNL     1      15.004 -22.933 -14.473  1.00  0.00     0.123 C 
HETATM   40  C31 UNL     1      16.124 -23.441 -13.642  1.00  0.00     0.025 C 
HETATM   41  C32 UNL     1      17.369 -22.728 -14.087  1.00  0.00     0.046 C 
HETATM   42  C33 UNL     1      16.874 -21.774 -15.170  1.00  0.00     0.059 C 
ENDBRANCH  23  38
ENDBRANCH  22  23
ENDBRANCH   1  22
TORSDOF 10
ENDMDL
MODEL 2
REMARK VINA RESULT: -9.673933223      2.456      8.197
REMARK  10 active torsions:
REMARK  status: ('A' for Active; 'I' for Inactive)
REMARK    1  A    between atoms: C2_2  and  C5_5 
REMARK    2  A    between atoms: N2_18  and  C14_19 
REMARK    3  A    between atoms: C14_19  and  C15_20 
REMARK    4  A    between atoms: C15_20  and  C16_21 
REMARK    5  A    between atoms: C16_21  and  C17_22 
REMARK    6  A    between atoms: C17_22  and  C18_23 
REMARK    7  A    between atoms: C18_23  and  C19_24 
REMARK    8  A    between atoms: C18_23  and  N5_38 
REMARK       I    between atoms: C19_24  and  N3_26 
REMARK    9  A    between atoms: C25_32  and  C26_33 
REMARK   10  A    between atoms: C26_33  and  N4_34 
ROOT
HETATM    1  C16 UNL     1      14.074 -19.673 -18.469  1.00  0.00     0.004 C 
ENDROOT
BRANCH   1   2
HETATM    2  C15 UNL     1      14.608 -21.035 -18.769  1.00  0.00     0.020 C 
BRANCH   2   3
HETATM    3  C14 UNL     1      13.968 -22.037 -17.797  1.00  0.00     0.127 C 
BRANCH   3   4
HETATM    4  N2  UNL     1      14.708 -22.098 -16.558  1.00  0.00    -0.333 N 
HETATM    5  C8  UNL     1      14.190 -21.752 -15.263  1.00  0.00     0.051 C 
HETATM    6  C7  UNL     1      14.928 -20.504 -14.810  1.00  0.00     0.033 C 
HETATM    7  C9  UNL     1      12.709 -21.611 -15.197  1.00  0.00     0.033 C 
HETATM    8  C11 UNL     1      14.584 -22.883 -14.304  1.00  0.00     0.154 C 
HETATM    9  C6  UNL     1      13.994 -19.323 -15.095  1.00  0.00     0.008 C 
HETATM   10  C5  UNL     1      12.928 -19.377 -14.049  1.00  0.00    -0.007 C 
HETATM   11  C10 UNL     1      12.289 -20.747 -14.053  1.00  0.00     0.008 C 
HETATM   12  N1  UNL     1      16.015 -23.059 -14.233  1.00  0.00    -0.351 N 
HETATM   13  C12 UNL     1      16.757 -23.042 -15.427  1.00  0.00     0.309 C 
ATOM     14  H1  UNL     1      16.479 -23.193 -13.334  1.00  0.00     0.162 HD
HETATM   15  O1  UNL     1      17.960 -23.428 -15.515  1.00  0.00    -0.262 OA
HETATM   16  C13 UNL     1      16.060 -22.538 -16.630  1.00  0.00     0.312 C 
HETATM   17  O2  UNL     1      16.738 -22.530 -17.689  1.00  0.00    -0.262 OA
BRANCH  10  18
HETATM   18  C2  UNL     1      11.942 -18.263 -14.190  1.00  0.00    -0.048 C 
HETATM   19  C1  UNL     1      12.326 -17.179 -15.141  1.00  0.00     0.015 C 
HETATM   20  C3  UNL     1      11.808 -17.619 -12.807  1.00  0.00     0.015 C 
HETATM   21  C4  UNL     1      10.561 -18.821 -14.517  1.00  0.00     0.015 C 
ENDBRANCH  10  18
ENDBRANCH   3   4
ENDBRANCH   2   3
ENDBRANCH   1   2
BRANCH   1  22
HETATM   22  C17 UNL     1      12.644 -19.573 -18.165  1.00  0.00     0.035 C 
BRANCH  22  23
HETATM   23  C18 UNL     1      11.644 -19.478 -19.251  1.00  0.00     0.176 C 
BRANCH  23  24
HETATM   24  C19 UNL     1      10.446 -18.776 -18.656  1.00  0.00     0.247 C 
HETATM   25  O3  UNL     1      10.339 -18.796 -17.378  1.00  0.00    -0.271 OA
HETATM   26  N3  UNL     1       9.442 -18.103 -19.356  1.00  0.00    -0.318 N 
HETATM   27  C20 UNL     1       9.405 -17.939 -20.809  1.00  0.00     0.137 C 
HETATM   28  C25 UNL     1       8.299 -17.501 -18.634  1.00  0.00     0.038 C 
HETATM   29  C21 UNL     1       8.190 -18.648 -21.340  1.00  0.00     0.009 A 
HETATM   30  C22 UNL     1       7.074 -17.987 -22.007  1.00  0.00     0.012 A 
HETATM   31  C23 UNL     1       6.984 -18.418 -20.512  1.00  0.00    -0.003 A 
HETATM   32  C24 UNL     1       7.104 -17.304 -19.499  1.00  0.00     0.063 C 
BRANCH  28  33
HETATM   33  C26 UNL     1       8.631 -16.425 -17.708  1.00  0.00     0.226 C 
BRANCH  33  34
HETATM   34  N4  UNL     1       7.886 -16.153 -16.546  1.00  0.00    -0.057 N 
HETATM   35  C27 UNL     1       7.360 -17.302 -15.838  1.00  0.00     0.277 C 
HETATM   36  C28 UNL     1       8.908 -15.604 -15.605  1.00  0.00     0.277 C 
HETATM   37  C29 UNL     1       6.916 -15.091 -16.611  1.00  0.00     0.277 C 
ENDBRANCH  33  34
ENDBRANCH  28  33
ENDBRANCH  23  24
BRANCH  23  38
HETATM   38  N5  UNL     1      11.225 -20.640 -19.896  1.00  0.00    -0.380 N 
HETATM   39  C30 UNL     1      10.594 -21.645 -19.101  1.00  0.00     0.123 C 
HETATM   40  C31 UNL     1      10.326 -22.763 -20.040  1.00  0.00     0.025 C 
HETATM   41  C32 UNL     1      11.153 -22.522 -21.270  1.00  0.00     0.046 C 
HETATM   42  C33 UNL     1      11.922 -21.244 -20.946  1.00  0.00     0.059 C 
ENDBRANCH  23  38
ENDBRANCH  22  23
ENDBRANCH   1  22
TORSDOF 10
ENDMDL
MODEL 3
REMARK VINA RESULT: -9.633529409      1.863      4.936
REMARK  10 active torsions:
REMARK  status: ('A' for Active; 'I' for Inactive)
REMARK    1  A    between atoms: C2_2  and  C5_5 
REMARK    2  A    between atoms: N2_18  and  C14_19 
REMARK    3  A    between atoms: C14_19  and  C15_20 
REMARK    4  A    between atoms: C15_20  and  C16_21 
REMARK    5  A    between atoms: C16_21  and  C17_22 
REMARK    6  A    between atoms: C17_22  and  C18_23 
REMARK    7  A    between atoms: C18_23  and  C19_24 
REMARK    8  A    between atoms: C18_23  and  N5_38 
REMARK       I    between atoms: C19_24  and  N3_26 
REMARK    9  A    between atoms: C25_32  and  C26_33 
REMARK   10  A    between atoms: C26_33  and  N4_34 
ROOT
HETATM    1  C16 UNL     1      11.450 -18.498 -19.092  1.00  0.00     0.004 C 
ENDROOT
BRANCH   1   2
HETATM    2  C15 UNL     1      10.087 -18.534 -18.484  1.00  0.00     0.020 C 
BRANCH   2   3
HETATM    3  C14 UNL     1       9.689 -17.106 -18.084  1.00  0.00     0.127 C 
BRANCH   3   4
HETATM    4  N2  UNL     1       9.038 -17.094 -16.794  1.00  0.00    -0.333 N 
HETATM    5  C8  UNL     1       9.704 -17.201 -15.525  1.00  0.00     0.051 C 
HETATM    6  C7  UNL     1       9.293 -18.532 -14.921  1.00  0.00     0.033 C 
HETATM    7  C9  UNL     1      11.180 -17.012 -15.574  1.00  0.00     0.033 C 
HETATM    8  C11 UNL     1       9.132 -16.099 -14.623  1.00  0.00     0.154 C 
HETATM    9  C6  UNL     1      10.446 -19.505 -15.195  1.00  0.00     0.008 C 
HETATM   10  C5  UNL     1      11.539 -19.126 -14.250  1.00  0.00    -0.007 C 
HETATM   11  C10 UNL     1      11.856 -17.658 -14.409  1.00  0.00     0.008 C 
HETATM   12  N1  UNL     1       7.705 -16.231 -14.446  1.00  0.00    -0.351 N 
HETATM   13  C12 UNL     1       6.909 -16.517 -15.568  1.00  0.00     0.309 C 
ATOM     14  H1  UNL     1       7.283 -16.119 -13.523  1.00  0.00     0.162 HD
HETATM   15  O1  UNL     1       5.647 -16.409 -15.583  1.00  0.00    -0.262 OA
HETATM   16  C13 UNL     1       7.621 -16.965 -16.785  1.00  0.00     0.312 C 
HETATM   17  O2  UNL     1       6.893 -17.215 -17.779  1.00  0.00    -0.262 OA
BRANCH  10  18
HETATM   18  C2  UNL     1      12.736 -20.009 -14.389  1.00  0.00    -0.048 C 
HETATM   19  C1  UNL     1      13.932 -19.378 -15.021  1.00  0.00     0.015 C 
HETATM   20  C3  UNL     1      12.319 -21.177 -15.287  1.00  0.00     0.015 C 
HETATM   21  C4  UNL     1      13.089 -20.634 -13.043  1.00  0.00     0.015 C 
ENDBRANCH  10  18
ENDBRANCH   3   4
ENDBRANCH   2   3
ENDBRANCH   1   2
BRANCH   1  22
HETATM   22  C17 UNL     1      12.486 -19.307 -18.446  1.00  0.00     0.035 C 
BRANCH  22  23
HETATM   23  C18 UNL     1      12.546 -20.769 -18.658  1.00  0.00     0.176 C 
BRANCH  23  24
HETATM   24  C19 UNL     1      13.994 -21.160 -18.473  1.00  0.00     0.247 C 
HETATM   25  O3  UNL     1      14.856 -20.209 -18.485  1.00  0.00    -0.271 OA
HETATM   26  N3  UNL     1      14.492 -22.451 -18.285  1.00  0.00    -0.318 N 
HETATM   27  C20 UNL     1      13.669 -23.658 -18.205  1.00  0.00     0.137 C 
HETATM   28  C25 UNL     1      15.948 -22.683 -18.165  1.00  0.00     0.038 C 
HETATM   29  C21 UNL     1      14.019 -24.553 -19.361  1.00  0.00     0.009 A 
HETATM   30  C22 UNL     1      14.615 -25.878 -19.229  1.00  0.00     0.012 A 
HETATM   31  C23 UNL     1      15.478 -24.635 -19.602  1.00  0.00    -0.003 A 
HETATM   32  C24 UNL     1      16.343 -24.080 -18.496  1.00  0.00     0.063 C 
BRANCH  28  33
HETATM   33  C26 UNL     1      16.595 -22.068 -17.012  1.00  0.00     0.226 C 
BRANCH  33  34
HETATM   34  N4  UNL     1      16.646 -22.675 -15.744  1.00  0.00    -0.057 N 
HETATM   35  C27 UNL     1      17.446 -23.878 -15.641  1.00  0.00     0.277 C 
HETATM   36  C28 UNL     1      17.403 -21.684 -14.921  1.00  0.00     0.277 C 
HETATM   37  C29 UNL     1      15.410 -22.806 -15.019  1.00  0.00     0.277 C 
ENDBRANCH  33  34
ENDBRANCH  28  33
ENDBRANCH  23  24
BRANCH  23  38
HETATM   38  N5  UNL     1      12.074 -21.304 -19.854  1.00  0.00    -0.380 N 
HETATM   39  C30 UNL     1      10.967 -22.204 -19.784  1.00  0.00     0.123 C 
HETATM   40  C31 UNL     1      10.741 -22.644 -21.183  1.00  0.00     0.025 C 
HETATM   41  C32 UNL     1      11.967 -22.279 -21.970  1.00  0.00     0.046 C 
HETATM   42  C33 UNL     1      12.895 -21.658 -20.929  1.00  0.00     0.059 C 
ENDBRANCH  23  38
ENDBRANCH  22  23
ENDBRANCH   1  22
TORSDOF 10
ENDMDL
MODEL 4
REMARK VINA RESULT: -9.447554756      2.386      9.463
REMARK  10 active torsions:
REMARK  status: ('A' for Active; 'I' for Inactive)
REMARK    1  A    between atoms: C2_2  and  C5_5 
REMARK    2  A    between atoms: N2_18  and  C14_19 
REMARK    3  A    between atoms: C14_19  and  C15_20 
REMARK    4  A    between atoms: C15_20  and  C16_21 
REMARK    5  A    between atoms: C16_21  and  C17_22 
REMARK    6  A    between atoms: C17_22  and  C18_23 
REMARK    7  A    between atoms: C18_23  and  C19_24 
REMARK    8  A    between atoms: C18_23  and  N5_38 
REMARK       I    between atoms: C19_24  and  N3_26 
REMARK    9  A    between atoms: C25_32  and  C26_33 
REMARK   10  A    between atoms: C26_33  and  N4_34 
ROOT
HETATM    1  C16 UNL     1      10.992 -20.657 -20.680  1.00  0.00     0.004 C 
ENDROOT
BRANCH   1   2
HETATM    2  C15 UNL     1      12.394 -21.162 -20.775  1.00  0.00     0.020 C 
BRANCH   2   3
HETATM    3  C14 UNL     1      12.353 -22.666 -21.085  1.00  0.00     0.127 C 
BRANCH   3   4
HETATM    4  N2  UNL     1      13.536 -23.328 -20.585  1.00  0.00    -0.333 N 
HETATM    5  C8  UNL     1      13.865 -23.507 -19.197  1.00  0.00     0.051 C 
HETATM    6  C7  UNL     1      15.095 -22.659 -18.921  1.00  0.00     0.033 C 
HETATM    7  C9  UNL     1      12.748 -23.242 -18.249  1.00  0.00     0.033 C 
HETATM    8  C11 UNL     1      14.277 -24.974 -19.018  1.00  0.00     0.154 C 
HETATM    9  C6  UNL     1      14.591 -21.371 -18.259  1.00  0.00     0.008 C 
HETATM   10  C5  UNL     1      14.223 -21.743 -16.859  1.00  0.00    -0.007 C 
HETATM   11  C10 UNL     1      13.252 -22.901 -16.885  1.00  0.00     0.008 C 
HETATM   12  N1  UNL     1      15.410 -25.322 -19.844  1.00  0.00    -0.351 N 
HETATM   13  C12 UNL     1      15.431 -24.885 -21.179  1.00  0.00     0.309 C 
ATOM     14  H1  UNL     1      16.179 -25.875 -19.465  1.00  0.00     0.162 HD
HETATM   15  O1  UNL     1      16.232 -25.330 -22.054  1.00  0.00    -0.262 OA
HETATM   16  C13 UNL     1      14.447 -23.844 -21.548  1.00  0.00     0.312 C 
HETATM   17  O2  UNL     1      14.480 -23.465 -22.747  1.00  0.00    -0.262 OA
BRANCH  10  18
HETATM   18  C2  UNL     1      13.727 -20.572 -16.076  1.00  0.00    -0.048 C 
HETATM   19  C1  UNL     1      12.576 -20.846 -15.166  1.00  0.00     0.015 C 
HETATM   20  C3  UNL     1      13.255 -19.530 -17.094  1.00  0.00     0.015 C 
HETATM   21  C4  UNL     1      14.880 -19.916 -15.324  1.00  0.00     0.015 C 
ENDBRANCH  10  18
ENDBRANCH   3   4
ENDBRANCH   2   3
ENDBRANCH   1   2
BRANCH   1  22
HETATM   22  C17 UNL     1      10.516 -20.269 -19.350  1.00  0.00     0.035 C 
BRANCH  22  23
HETATM   23  C18 UNL     1       9.974 -18.915 -19.105  1.00  0.00     0.176 C 
BRANCH  23  24
HETATM   24  C19 UNL     1       9.569 -18.883 -17.651  1.00  0.00     0.247 C 
HETATM   25  O3  UNL     1       9.759 -19.955 -16.973  1.00  0.00    -0.271 OA
HETATM   26  N3  UNL     1       9.011 -17.801 -16.964  1.00  0.00    -0.318 N 
HETATM   27  C20 UNL     1       8.753 -16.486 -17.550  1.00  0.00     0.137 C 
HETATM   28  C25 UNL     1       8.620 -17.937 -15.544  1.00  0.00     0.038 C 
HETATM   29  C21 UNL     1       7.270 -16.235 -17.527  1.00  0.00     0.009 A 
HETATM   30  C22 UNL     1       6.624 -15.173 -16.765  1.00  0.00     0.012 A 
HETATM   31  C23 UNL     1       6.639 -16.644 -16.251  1.00  0.00    -0.003 A 
HETATM   32  C24 UNL     1       7.601 -16.936 -15.124  1.00  0.00     0.063 C 
BRANCH  28  33
HETATM   33  C26 UNL     1       9.707 -18.206 -14.610  1.00  0.00     0.226 C 
BRANCH  33  34
HETATM   34  N4  UNL     1      10.722 -17.276 -14.321  1.00  0.00    -0.057 N 
HETATM   35  C27 UNL     1      10.294 -15.910 -14.096  1.00  0.00     0.277 C 
HETATM   36  C28 UNL     1      11.213 -17.711 -12.979  1.00  0.00     0.277 C 
HETATM   37  C29 UNL     1      11.915 -17.323 -15.124  1.00  0.00     0.277 C 
ENDBRANCH  33  34
ENDBRANCH  28  33
ENDBRANCH  23  24
BRANCH  23  38
HETATM   38  N5  UNL     1       8.920 -18.451 -19.888  1.00  0.00    -0.380 N 
HETATM   39  C30 UNL     1       7.675 -19.145 -19.798  1.00  0.00     0.123 C 
HETATM   40  C31 UNL     1       6.787 -18.468 -20.777  1.00  0.00     0.025 C 
HETATM   41  C32 UNL     1       7.661 -17.644 -21.678  1.00  0.00     0.046 C 
HETATM   42  C33 UNL     1       9.073 -17.934 -21.178  1.00  0.00     0.059 C 
ENDBRANCH  23  38
ENDBRANCH  22  23
ENDBRANCH   1  22
TORSDOF 10
ENDMDL
MODEL 5
REMARK VINA RESULT: -9.395534490      1.460      1.956
REMARK  10 active torsions:
REMARK  status: ('A' for Active; 'I' for Inactive)
REMARK    1  A    between atoms: C2_2  and  C5_5 
REMARK    2  A    between atoms: N2_18  and  C14_19 
REMARK    3  A    between atoms: C14_19  and  C15_20 
REMARK    4  A    between atoms: C15_20  and  C16_21 
REMARK    5  A    between atoms: C16_21  and  C17_22 
REMARK    6  A    between atoms: C17_22  and  C18_23 
REMARK    7  A    between atoms: C18_23  and  C19_24 
REMARK    8  A    between atoms: C18_23  and  N5_38 
REMARK       I    between atoms: C19_24  and  N3_26 
REMARK    9  A    between atoms: C25_32  and  C26_33 
REMARK   10  A    between atoms: C26_33  and  N4_34 
ROOT
HETATM    1  C16 UNL     1      14.464 -19.796 -17.664  1.00  0.00     0.004 C 
ENDROOT
BRANCH   1   2
HETATM    2  C15 UNL     1      13.046 -19.384 -17.879  1.00  0.00     0.020 C 
BRANCH   2   3
HETATM    3  C14 UNL     1      12.159 -20.135 -16.876  1.00  0.00     0.127 C 
BRANCH   3   4
HETATM    4  N2  UNL     1      11.254 -19.228 -16.208  1.00  0.00    -0.333 N 
HETATM    5  C8  UNL     1       9.898 -18.966 -16.602  1.00  0.00     0.051 C 
HETATM    6  C7  UNL     1       9.847 -17.525 -17.081  1.00  0.00     0.033 C 
HETATM    7  C9  UNL     1       9.333 -19.929 -17.587  1.00  0.00     0.033 C 
HETATM    8  C11 UNL     1       9.037 -19.050 -15.335  1.00  0.00     0.154 C 
HETATM    9  C6  UNL     1       9.896 -17.578 -18.612  1.00  0.00     0.008 C 
HETATM   10  C5  UNL     1       8.544 -18.037 -19.054  1.00  0.00    -0.007 C 
HETATM   11  C10 UNL     1       8.200 -19.332 -18.354  1.00  0.00     0.008 C 
HETATM   12  N1  UNL     1       9.453 -18.099 -14.332  1.00  0.00    -0.351 N 
HETATM   13  C12 UNL     1      10.827 -17.945 -14.076  1.00  0.00     0.309 C 
ATOM     14  H1  UNL     1       8.764 -17.548 -13.819  1.00  0.00     0.162 HD
HETATM   15  O1  UNL     1      11.292 -17.339 -13.067  1.00  0.00    -0.262 OA
HETATM   16  C13 UNL     1      11.752 -18.541 -15.065  1.00  0.00     0.312 C 
HETATM   17  O2  UNL     1      12.977 -18.395 -14.820  1.00  0.00    -0.262 OA
BRANCH  10  18
HETATM   18  C2  UNL     1       8.434 -18.120 -20.541  1.00  0.00    -0.048 C 
HETATM   19  C1  UNL     1       9.492 -18.923 -21.222  1.00  0.00     0.015 C 
HETATM   20  C3  UNL     1       8.547 -16.688 -21.071  1.00  0.00     0.015 C 
HETATM   21  C4  UNL     1       7.041 -18.595 -20.940  1.00  0.00     0.015 C 
ENDBRANCH  10  18
ENDBRANCH   3   4
ENDBRANCH   2   3
ENDBRANCH   1   2
BRANCH   1  22
HETATM   22  C17 UNL     1      14.735 -20.664 -16.515  1.00  0.00     0.035 C 
BRANCH  22  23
HETATM   23  C18 UNL     1      15.493 -21.923 -16.680  1.00  0.00     0.176 C 
BRANCH  23  24
HETATM   24  C19 UNL     1      14.633 -22.819 -17.540  1.00  0.00     0.247 C 
HETATM   25  O3  UNL     1      13.434 -23.033 -17.135  1.00  0.00    -0.271 OA
HETATM   26  N3  UNL     1      15.007 -23.437 -18.736  1.00  0.00    -0.318 N 
HETATM   27  C20 UNL     1      16.312 -23.287 -19.378  1.00  0.00     0.137 C 
HETATM   28  C25 UNL     1      14.064 -24.330 -19.445  1.00  0.00     0.038 C 
HETATM   29  C21 UNL     1      16.990 -24.629 -19.404  1.00  0.00     0.009 A 
HETATM   30  C22 UNL     1      17.332 -25.358 -20.620  1.00  0.00     0.012 A 
HETATM   31  C23 UNL     1      16.071 -25.728 -19.782  1.00  0.00    -0.003 A 
HETATM   32  C24 UNL     1      14.747 -25.287 -20.358  1.00  0.00     0.063 C 
BRANCH  28  33
HETATM   33  C26 UNL     1      12.845 -23.701 -19.937  1.00  0.00     0.226 C 
BRANCH  33  34
HETATM   34  N4  UNL     1      12.816 -22.845 -21.054  1.00  0.00    -0.057 N 
HETATM   35  C27 UNL     1      13.192 -23.435 -22.322  1.00  0.00     0.277 C 
HETATM   36  C28 UNL     1      11.361 -22.554 -21.224  1.00  0.00     0.277 C 
HETATM   37  C29 UNL     1      13.383 -21.532 -20.899  1.00  0.00     0.277 C 
ENDBRANCH  33  34
ENDBRANCH  28  33
ENDBRANCH  23  24
BRANCH  23  38
HETATM   38  N5  UNL     1      15.903 -22.625 -15.549  1.00  0.00    -0.380 N 
HETATM   39  C30 UNL     1      14.978 -22.730 -14.466  1.00  0.00     0.123 C 
HETATM   40  C31 UNL     1      15.712 -23.464 -13.404  1.00  0.00     0.025 C 
HETATM   41  C32 UNL     1      17.170 -23.429 -13.764  1.00  0.00     0.046 C 
HETATM   42  C33 UNL     1      17.207 -22.605 -15.048  1.00  0.00     0.059 C 
ENDBRANCH  23  38
ENDBRANCH  22  23
ENDBRANCH   1  22
TORSDOF 10
ENDMDL
