MODEL 1
REMARK VINA RESULT: -9.351463901      0.000      0.000
REMARK  10 active torsions:
REMARK  status: ('A' for Active; 'I' for Inactive)
REMARK    1  A    between atoms: C2_2  and  C3_3 
REMARK    2  A    between atoms: C3_3  and  C4_4 
REMARK    3  A    between atoms: C4_4  and  N1_5 
REMARK       I    between atoms: N1_5  and  C6_7 
REMARK    4  A    between atoms: C6_7  and  C7_9 
REMARK    5  A    between atoms: C7_9  and  C8_10 
REMARK    6  A    between atoms: C7_9  and  N2_14 
REMARK    7  A    between atoms: C8_10  and  C9_11 
REMARK       I    between atoms: N2_14  and  C12_16 
REMARK    8  A    between atoms: C12_16  and  C13_18 
REMARK       I    between atoms: N3_22  and  C17_23 
REMARK    9  A    between atoms: C17_23  and  C18_25 
REMARK   10  A    between atoms: N4_27  and  C20_28 
ROOT
HETATM    1  C13 UNL     1       8.767 -16.386 -16.092  1.00  0.00     0.096 C 
HETATM    2  C14 UNL     1       8.737 -17.399 -14.998  1.00  0.00     0.017 C 
HETATM    3  C15 UNL     1      10.167 -17.608 -14.545  1.00  0.00     0.021 C 
HETATM    4  C16 UNL     1      11.093 -17.615 -15.767  1.00  0.00     0.126 C 
HETATM    5  N3  UNL     1      10.405 -17.880 -16.995  1.00  0.00    -0.351 N 
HETATM    6  C17 UNL     1      10.796 -18.903 -17.865  1.00  0.00     0.226 C 
HETATM    7  O3  UNL     1      10.135 -19.041 -18.954  1.00  0.00    -0.273 OA
HETATM    8  C32 UNL     1       9.268 -17.039 -17.334  1.00  0.00     0.139 C 
ENDROOT
BRANCH   6   9
HETATM    9  C18 UNL     1      11.909 -19.838 -17.625  1.00  0.00     0.108 C 
HETATM   10  C19 UNL     1      12.365 -20.386 -18.931  1.00  0.00     0.252 C 
HETATM   11  N4  UNL     1      13.132 -21.593 -18.883  1.00  0.00    -0.060 N 
HETATM   12  C22 UNL     1      12.241 -22.710 -18.987  1.00  0.00     0.238 C 
HETATM   13  C31 UNL     1      14.009 -21.594 -17.779  1.00  0.00     0.224 C 
HETATM   14  C23 UNL     1      10.862 -22.484 -18.473  1.00  0.00     0.028 C 
HETATM   15  C24 UNL     1      10.715 -22.021 -17.086  1.00  0.00     0.007 C 
HETATM   16  C25 UNL     1      11.483 -20.855 -16.622  1.00  0.00     0.001 C 
HETATM   17  C26 UNL     1      12.664 -21.317 -15.752  1.00  0.00     0.014 C 
HETATM   18  C27 UNL     1      13.537 -22.236 -16.525  1.00  0.00     0.047 C 
HETATM   19  C28 UNL     1      14.846 -22.381 -15.733  1.00  0.00     0.278 C 
HETATM   20  N5  UNL     1      15.919 -22.111 -16.639  1.00  0.00     0.086 N 
HETATM   21  C29 UNL     1      16.956 -23.109 -16.421  1.00  0.00     0.310 C 
HETATM   22  C30 UNL     1      15.344 -22.270 -17.990  1.00  0.00     0.305 C 
BRANCH  11  23
HETATM   23  C20 UNL     1      13.946 -21.580 -20.114  1.00  0.00     0.233 C 
HETATM   24  C21 UNL     1      13.335 -22.282 -21.262  1.00  0.00     0.035 C 
ENDBRANCH  11  23
ENDBRANCH   6   9
BRANCH   1  25
HETATM   25  C12 UNL     1       7.414 -15.749 -16.312  1.00  0.00     0.224 C 
HETATM   26  N2  UNL     1       6.331 -16.595 -16.538  1.00  0.00    -0.347 N 
ATOM     27  H2  UNL     1       6.552 -17.591 -16.542  1.00  0.00     0.163 HD
HETATM   28  O2  UNL     1       7.400 -14.504 -16.269  1.00  0.00    -0.273 OA
BRANCH  26  29
HETATM   29  C7  UNL     1       4.943 -16.276 -16.768  1.00  0.00     0.177 C 
BRANCH  29  30
HETATM   30  C6  UNL     1       4.114 -17.475 -16.962  1.00  0.00     0.242 C 
HETATM   31  N1  UNL     1       3.917 -18.161 -18.182  1.00  0.00    -0.355 N 
HETATM   32  C5  UNL     1       4.568 -17.841 -19.443  1.00  0.00     0.152 C 
HETATM   33  O1  UNL     1       3.523 -17.947 -15.957  1.00  0.00    -0.271 OA
BRANCH  31  34
HETATM   34  C4  UNL     1       3.027 -19.311 -18.231  1.00  0.00     0.125 C 
BRANCH  34  35
HETATM   35  C3  UNL     1       3.188 -20.165 -19.431  1.00  0.00     0.019 C 
BRANCH  35  36
HETATM   36  C2  UNL     1       3.592 -21.549 -18.985  1.00  0.00    -0.003 C 
HETATM   37  C1  UNL     1       2.779 -22.583 -19.731  1.00  0.00     0.005 C 
ENDBRANCH  35  36
ENDBRANCH  34  35
ENDBRANCH  31  34
ENDBRANCH  29  30
BRANCH  29  38
HETATM   38  C8  UNL     1       4.426 -15.220 -15.871  1.00  0.00     0.038 C 
BRANCH  38  39
HETATM   39  C9  UNL     1       3.256 -14.421 -16.201  1.00  0.00    -0.020 C 
HETATM   40  C10 UNL     1       2.197 -14.786 -15.128  1.00  0.00     0.009 C 
HETATM   41  C11 UNL     1       3.336 -12.945 -16.174  1.00  0.00     0.009 C 
ENDBRANCH  38  39
ENDBRANCH  29  38
ENDBRANCH  26  29
ENDBRANCH   1  25
TORSDOF 10
ENDMDL
MODEL 2
REMARK VINA RESULT: -8.897809108      5.219     12.467
REMARK  10 active torsions:
REMARK  status: ('A' for Active; 'I' for Inactive)
REMARK    1  A    between atoms: C2_2  and  C3_3 
REMARK    2  A    between atoms: C3_3  and  C4_4 
REMARK    3  A    between atoms: C4_4  and  N1_5 
REMARK       I    between atoms: N1_5  and  C6_7 
REMARK    4  A    between atoms: C6_7  and  C7_9 
REMARK    5  A    between atoms: C7_9  and  C8_10 
REMARK    6  A    between atoms: C7_9  and  N2_14 
REMARK    7  A    between atoms: C8_10  and  C9_11 
REMARK       I    between atoms: N2_14  and  C12_16 
REMARK    8  A    between atoms: C12_16  and  C13_18 
REMARK       I    between atoms: N3_22  and  C17_23 
REMARK    9  A    between atoms: C17_23  and  C18_25 
REMARK   10  A    between atoms: N4_27  and  C20_28 
ROOT
HETATM    1  C13 UNL     1      16.779 -24.768 -19.123  1.00  0.00     0.096 C 
HETATM    2  C14 UNL     1      15.478 -25.487 -19.235  1.00  0.00     0.017 C 
HETATM    3  C15 UNL     1      14.720 -24.861 -20.387  1.00  0.00     0.021 C 
HETATM    4  C16 UNL     1      14.921 -23.341 -20.364  1.00  0.00     0.126 C 
HETATM    5  N3  UNL     1      15.349 -22.848 -19.089  1.00  0.00    -0.351 N 
HETATM    6  C17 UNL     1      14.670 -21.827 -18.418  1.00  0.00     0.226 C 
HETATM    7  O3  UNL     1      15.150 -21.433 -17.296  1.00  0.00    -0.273 OA
HETATM    8  C32 UNL     1      16.538 -23.438 -18.495  1.00  0.00     0.139 C 
ENDROOT
BRANCH   6   9
HETATM    9  C18 UNL     1      13.443 -21.167 -18.899  1.00  0.00     0.108 C 
HETATM   10  C19 UNL     1      13.153 -19.997 -18.026  1.00  0.00     0.252 C 
HETATM   11  N4  UNL     1      11.817 -19.489 -18.065  1.00  0.00    -0.060 N 
HETATM   12  C22 UNL     1      11.045 -20.143 -17.050  1.00  0.00     0.238 C 
HETATM   13  C31 UNL     1      11.294 -19.532 -19.373  1.00  0.00     0.224 C 
HETATM   14  C23 UNL     1      11.488 -21.518 -16.691  1.00  0.00     0.028 C 
HETATM   15  C24 UNL     1      11.596 -22.509 -17.772  1.00  0.00     0.007 C 
HETATM   16  C25 UNL     1      12.352 -22.178 -18.991  1.00  0.00     0.001 C 
HETATM   17  C26 UNL     1      11.381 -21.856 -20.139  1.00  0.00     0.014 C 
HETATM   18  C27 UNL     1      10.497 -20.726 -19.757  1.00  0.00     0.047 C 
HETATM   19  C28 UNL     1       9.807 -20.244 -21.043  1.00  0.00     0.278 C 
HETATM   20  N5  UNL     1      10.008 -18.831 -21.124  1.00  0.00     0.086 N 
HETATM   21  C29 UNL     1       8.748 -18.217 -21.521  1.00  0.00     0.310 C 
HETATM   22  C30 UNL     1      10.366 -18.403 -19.757  1.00  0.00     0.305 C 
BRANCH  11  23
HETATM   23  C20 UNL     1      11.933 -18.073 -17.665  1.00  0.00     0.233 C 
HETATM   24  C21 UNL     1      11.652 -17.812 -16.238  1.00  0.00     0.035 C 
ENDBRANCH  11  23
ENDBRANCH   6   9
BRANCH   1  25
HETATM   25  C12 UNL     1      17.803 -25.565 -18.348  1.00  0.00     0.224 C 
HETATM   26  N2  UNL     1      17.677 -25.604 -16.961  1.00  0.00    -0.347 N 
ATOM     27  H2  UNL     1      16.892 -25.074 -16.583  1.00  0.00     0.163 HD
HETATM   28  O2  UNL     1      18.678 -26.121 -19.040  1.00  0.00    -0.273 OA
BRANCH  26  29
HETATM   29  C7  UNL     1      18.490 -26.280 -15.980  1.00  0.00     0.177 C 
BRANCH  29  30
HETATM   30  C6  UNL     1      17.974 -26.117 -14.613  1.00  0.00     0.242 C 
HETATM   31  N1  UNL     1      17.452 -24.925 -14.059  1.00  0.00    -0.355 N 
HETATM   32  C5  UNL     1      17.264 -23.674 -14.776  1.00  0.00     0.152 C 
HETATM   33  O1  UNL     1      17.987 -27.121 -13.858  1.00  0.00    -0.271 OA
BRANCH  31  34
HETATM   34  C4  UNL     1      17.020 -24.901 -12.670  1.00  0.00     0.125 C 
BRANCH  34  35
HETATM   35  C3  UNL     1      17.716 -23.903 -11.824  1.00  0.00     0.019 C 
BRANCH  35  36
HETATM   36  C2  UNL     1      18.612 -24.635 -10.855  1.00  0.00    -0.003 C 
HETATM   37  C1  UNL     1      17.992 -25.964 -10.490  1.00  0.00     0.005 C 
ENDBRANCH  35  36
ENDBRANCH  34  35
ENDBRANCH  31  34
ENDBRANCH  29  30
BRANCH  29  38
HETATM   38  C8  UNL     1      18.911 -27.634 -16.398  1.00  0.00     0.038 C 
BRANCH  38  39
HETATM   39  C9  UNL     1      20.303 -28.057 -16.379  1.00  0.00    -0.020 C 
HETATM   40  C10 UNL     1      20.329 -29.332 -15.494  1.00  0.00     0.009 C 
HETATM   41  C11 UNL     1      20.975 -28.450 -17.635  1.00  0.00     0.009 C 
ENDBRANCH  38  39
ENDBRANCH  29  38
ENDBRANCH  26  29
ENDBRANCH   1  25
TORSDOF 10
ENDMDL
MODEL 3
REMARK VINA RESULT: -8.863221928      3.212     10.891
REMARK  10 active torsions:
REMARK  status: ('A' for Active; 'I' for Inactive)
REMARK    1  A    between atoms: C2_2  and  C3_3 
REMARK    2  A    between atoms: C3_3  and  C4_4 
REMARK    3  A    between atoms: C4_4  and  N1_5 
REMARK       I    between atoms: N1_5  and  C6_7 
REMARK    4  A    between atoms: C6_7  and  C7_9 
REMARK    5  A    between atoms: C7_9  and  C8_10 
REMARK    6  A    between atoms: C7_9  and  N2_14 
REMARK    7  A    between atoms: C8_10  and  C9_11 
REMARK       I    between atoms: N2_14  and  C12_16 
REMARK    8  A    between atoms: C12_16  and  C13_18 
REMARK       I    between atoms: N3_22  and  C17_23 
REMARK    9  A    between atoms: C17_23  and  C18_25 
REMARK   10  A    between atoms: N4_27  and  C20_28 
ROOT
HETATM    1  C13 UNL     1      12.876 -21.536 -20.392  1.00  0.00     0.096 C 
HETATM    2  C14 UNL     1      11.581 -22.186 -20.039  1.00  0.00     0.017 C 
HETATM    3  C15 UNL     1      10.477 -21.231 -20.445  1.00  0.00     0.021 C 
HETATM    4  C16 UNL     1      10.896 -19.796 -20.107  1.00  0.00     0.126 C 
HETATM    5  N3  UNL     1      11.942 -19.728 -19.131  1.00  0.00    -0.351 N 
HETATM    6  C17 UNL     1      11.824 -18.971 -17.961  1.00  0.00     0.226 C 
HETATM    7  O3  UNL     1      12.827 -18.949 -17.164  1.00  0.00    -0.273 OA
HETATM    8  C32 UNL     1      13.164 -20.472 -19.389  1.00  0.00     0.139 C 
ENDROOT
BRANCH   6   9
HETATM    9  C18 UNL     1      10.632 -18.196 -17.571  1.00  0.00     0.108 C 
HETATM   10  C19 UNL     1      10.897 -17.531 -16.267  1.00  0.00     0.252 C 
HETATM   11  N4  UNL     1       9.752 -17.088 -15.532  1.00  0.00    -0.060 N 
HETATM   12  C22 UNL     1       9.337 -18.137 -14.650  1.00  0.00     0.238 C 
HETATM   13  C31 UNL     1       8.766 -16.568 -16.394  1.00  0.00     0.224 C 
HETATM   14  C23 UNL     1       9.653 -19.521 -15.100  1.00  0.00     0.028 C 
HETATM   15  C24 UNL     1       9.170 -19.937 -16.425  1.00  0.00     0.007 C 
HETATM   16  C25 UNL     1       9.440 -19.091 -17.598  1.00  0.00     0.001 C 
HETATM   17  C26 UNL     1       8.168 -18.323 -17.994  1.00  0.00     0.014 C 
HETATM   18  C27 UNL     1       7.698 -17.493 -16.856  1.00  0.00     0.047 C 
HETATM   19  C28 UNL     1       6.655 -16.515 -17.418  1.00  0.00     0.278 C 
HETATM   20  N5  UNL     1       7.037 -15.203 -16.995  1.00  0.00     0.086 N 
HETATM   21  C29 UNL     1       5.840 -14.508 -16.542  1.00  0.00     0.310 C 
HETATM   22  C30 UNL     1       7.960 -15.407 -15.860  1.00  0.00     0.305 C 
BRANCH  11  23
HETATM   23  C20 UNL     1      10.245 -15.986 -14.683  1.00  0.00     0.233 C 
HETATM   24  C21 UNL     1      11.312 -16.370 -13.736  1.00  0.00     0.035 C 
ENDBRANCH  11  23
ENDBRANCH   6   9
BRANCH   1  25
HETATM   25  C12 UNL     1      14.007 -22.534 -20.477  1.00  0.00     0.224 C 
HETATM   26  N2  UNL     1      14.818 -22.688 -19.355  1.00  0.00    -0.347 N 
ATOM     27  H2  UNL     1      14.576 -22.097 -18.561  1.00  0.00     0.163 HD
HETATM   28  O2  UNL     1      14.106 -23.133 -21.565  1.00  0.00    -0.273 OA
BRANCH  26  29
HETATM   29  C7  UNL     1      15.950 -23.559 -19.148  1.00  0.00     0.177 C 
BRANCH  29  30
HETATM   30  C6  UNL     1      16.777 -23.143 -18.006  1.00  0.00     0.242 C 
HETATM   31  N1  UNL     1      16.299 -22.684 -16.757  1.00  0.00    -0.355 N 
HETATM   32  C5  UNL     1      14.901 -22.620 -16.361  1.00  0.00     0.152 C 
HETATM   33  O1  UNL     1      18.026 -23.201 -18.136  1.00  0.00    -0.271 OA
BRANCH  31  34
HETATM   34  C4  UNL     1      17.242 -22.261 -15.732  1.00  0.00     0.125 C 
BRANCH  34  35
HETATM   35  C3  UNL     1      16.714 -22.313 -14.349  1.00  0.00     0.019 C 
BRANCH  35  36
HETATM   36  C2  UNL     1      17.371 -23.463 -13.627  1.00  0.00    -0.003 C 
HETATM   37  C1  UNL     1      16.317 -24.432 -13.143  1.00  0.00     0.005 C 
ENDBRANCH  35  36
ENDBRANCH  34  35
ENDBRANCH  31  34
ENDBRANCH  29  30
BRANCH  29  38
HETATM   38  C8  UNL     1      15.617 -24.994 -19.269  1.00  0.00     0.038 C 
BRANCH  38  39
HETATM   39  C9  UNL     1      16.508 -25.948 -19.911  1.00  0.00    -0.020 C 
HETATM   40  C10 UNL     1      16.925 -25.282 -21.249  1.00  0.00     0.009 C 
HETATM   41  C11 UNL     1      17.780 -26.327 -19.260  1.00  0.00     0.009 C 
ENDBRANCH  38  39
ENDBRANCH  29  38
ENDBRANCH  26  29
ENDBRANCH   1  25
TORSDOF 10
ENDMDL
MODEL 4
REMARK VINA RESULT: -8.843507402      1.262      3.796
REMARK  10 active torsions:
REMARK  status: ('A' for Active; 'I' for Inactive)
REMARK    1  A    between atoms: C2_2  and  C3_3 
REMARK    2  A    between atoms: C3_3  and  C4_4 
REMARK    3  A    between atoms: C4_4  and  N1_5 
REMARK       I    between atoms: N1_5  and  C6_7 
REMARK    4  A    between atoms: C6_7  and  C7_9 
REMARK    5  A    between atoms: C7_9  and  C8_10 
REMARK    6  A    between atoms: C7_9  and  N2_14 
REMARK    7  A    between atoms: C8_10  and  C9_11 
REMARK       I    between atoms: N2_14  and  C12_16 
REMARK    8  A    between atoms: C12_16  and  C13_18 
REMARK       I    between atoms: N3_22  and  C17_23 
REMARK    9  A    between atoms: C17_23  and  C18_25 
REMARK   10  A    between atoms: N4_27  and  C20_28 
ROOT
HETATM    1  C13 UNL     1       7.783 -17.193 -15.767  1.00  0.00     0.096 C 
HETATM    2  C14 UNL     1       7.875 -18.315 -14.788  1.00  0.00     0.017 C 
HETATM    3  C15 UNL     1       9.312 -18.377 -14.315  1.00  0.00     0.021 C 
HETATM    4  C16 UNL     1      10.251 -18.125 -15.501  1.00  0.00     0.126 C 
HETATM    5  N3  UNL     1       9.626 -18.344 -16.771  1.00  0.00    -0.351 N 
HETATM    6  C17 UNL     1      10.169 -19.203 -17.732  1.00  0.00     0.226 C 
HETATM    7  O3  UNL     1       9.552 -19.309 -18.849  1.00  0.00    -0.273 OA
HETATM    8  C32 UNL     1       8.391 -17.632 -17.054  1.00  0.00     0.139 C 
ENDROOT
BRANCH   6   9
HETATM    9  C18 UNL     1      11.397 -20.000 -17.557  1.00  0.00     0.108 C 
HETATM   10  C19 UNL     1      11.923 -20.371 -18.899  1.00  0.00     0.252 C 
HETATM   11  N4  UNL     1      12.843 -21.465 -18.942  1.00  0.00    -0.060 N 
HETATM   12  C22 UNL     1      12.108 -22.677 -19.152  1.00  0.00     0.238 C 
HETATM   13  C31 UNL     1      13.712 -21.444 -17.832  1.00  0.00     0.224 C 
HETATM   14  C23 UNL     1      10.711 -22.680 -18.638  1.00  0.00     0.028 C 
HETATM   15  C24 UNL     1      10.502 -22.359 -17.218  1.00  0.00     0.007 C 
HETATM   16  C25 UNL     1      11.108 -21.145 -16.648  1.00  0.00     0.001 C 
HETATM   17  C26 UNL     1      12.339 -21.520 -15.806  1.00  0.00     0.014 C 
HETATM   18  C27 UNL     1      13.327 -22.247 -16.642  1.00  0.00     0.047 C 
HETATM   19  C28 UNL     1      14.642 -22.283 -15.849  1.00  0.00     0.278 C 
HETATM   20  N5  UNL     1      15.671 -21.799 -16.716  1.00  0.00     0.086 N 
HETATM   21  C29 UNL     1      16.832 -22.666 -16.569  1.00  0.00     0.310 C 
HETATM   22  C30 UNL     1      15.125 -21.917 -18.082  1.00  0.00     0.305 C 
BRANCH  11  23
HETATM   23  C20 UNL     1      13.649 -21.240 -20.158  1.00  0.00     0.233 C 
HETATM   24  C21 UNL     1      13.315 -22.128 -21.291  1.00  0.00     0.035 C 
ENDBRANCH  11  23
ENDBRANCH   6   9
BRANCH   1  25
HETATM   25  C12 UNL     1       6.360 -16.725 -15.961  1.00  0.00     0.224 C 
HETATM   26  N2  UNL     1       5.518 -17.519 -16.737  1.00  0.00    -0.347 N 
ATOM     27  H2  UNL     1       5.948 -18.360 -17.119  1.00  0.00     0.163 HD
HETATM   28  O2  UNL     1       6.071 -15.651 -15.396  1.00  0.00    -0.273 OA
BRANCH  26  29
HETATM   29  C7  UNL     1       4.130 -17.330 -17.082  1.00  0.00     0.177 C 
BRANCH  29  30
HETATM   30  C6  UNL     1       3.842 -15.957 -17.523  1.00  0.00     0.242 C 
HETATM   31  N1  UNL     1       3.099 -14.992 -16.804  1.00  0.00    -0.355 N 
HETATM   32  C5  UNL     1       2.559 -15.170 -15.465  1.00  0.00     0.152 C 
HETATM   33  O1  UNL     1       4.295 -15.592 -18.637  1.00  0.00    -0.271 OA
BRANCH  31  34
HETATM   34  C4  UNL     1       2.853 -13.684 -17.391  1.00  0.00     0.125 C 
BRANCH  34  35
HETATM   35  C3  UNL     1       2.552 -12.615 -16.410  1.00  0.00     0.019 C 
BRANCH  35  36
HETATM   36  C2  UNL     1       3.677 -11.610 -16.433  1.00  0.00    -0.003 C 
HETATM   37  C1  UNL     1       3.360 -10.510 -17.420  1.00  0.00     0.005 C 
ENDBRANCH  35  36
ENDBRANCH  34  35
ENDBRANCH  31  34
ENDBRANCH  29  30
BRANCH  29  38
HETATM   38  C8  UNL     1       3.566 -18.440 -17.878  1.00  0.00     0.038 C 
BRANCH  38  39
HETATM   39  C9  UNL     1       4.298 -19.068 -18.967  1.00  0.00    -0.020 C 
HETATM   40  C10 UNL     1       3.663 -20.475 -19.128  1.00  0.00     0.009 C 
HETATM   41  C11 UNL     1       4.264 -18.476 -20.321  1.00  0.00     0.009 C 
ENDBRANCH  38  39
ENDBRANCH  29  38
ENDBRANCH  26  29
ENDBRANCH   1  25
TORSDOF 10
ENDMDL
MODEL 5
REMARK VINA RESULT: -8.804897183      0.977      1.241
REMARK  10 active torsions:
REMARK  status: ('A' for Active; 'I' for Inactive)
REMARK    1  A    between atoms: C2_2  and  C3_3 
REMARK    2  A    between atoms: C3_3  and  C4_4 
REMARK    3  A    between atoms: C4_4  and  N1_5 
REMARK       I    between atoms: N1_5  and  C6_7 
REMARK    4  A    between atoms: C6_7  and  C7_9 
REMARK    5  A    between atoms: C7_9  and  C8_10 
REMARK    6  A    between atoms: C7_9  and  N2_14 
REMARK    7  A    between atoms: C8_10  and  C9_11 
REMARK       I    between atoms: N2_14  and  C12_16 
REMARK    8  A    between atoms: C12_16  and  C13_18 
REMARK       I    between atoms: N3_22  and  C17_23 
REMARK    9  A    between atoms: C17_23  and  C18_25 
REMARK   10  A    between atoms: N4_27  and  C20_28 
ROOT
HETATM    1  C13 UNL     1       8.756 -16.597 -16.439  1.00  0.00     0.096 C 
HETATM    2  C14 UNL     1       8.668 -17.609 -15.347  1.00  0.00     0.017 C 
HETATM    3  C15 UNL     1      10.066 -17.794 -14.797  1.00  0.00     0.021 C 
HETATM    4  C16 UNL     1      11.073 -17.789 -15.953  1.00  0.00     0.126 C 
HETATM    5  N3  UNL     1      10.474 -18.067 -17.224  1.00  0.00    -0.351 N 
HETATM    6  C17 UNL     1      10.940 -19.084 -18.063  1.00  0.00     0.226 C 
HETATM    7  O3  UNL     1      10.357 -19.234 -19.194  1.00  0.00    -0.273 OA
HETATM    8  C32 UNL     1       9.351 -17.244 -17.642  1.00  0.00     0.139 C 
ENDROOT
BRANCH   6   9
HETATM    9  C18 UNL     1      12.049 -20.001 -17.745  1.00  0.00     0.108 C 
HETATM   10  C19 UNL     1      12.510 -20.649 -19.003  1.00  0.00     0.252 C 
HETATM   11  N4  UNL     1      13.274 -21.851 -18.858  1.00  0.00    -0.060 N 
HETATM   12  C22 UNL     1      12.380 -22.970 -18.883  1.00  0.00     0.238 C 
HETATM   13  C31 UNL     1      14.144 -21.770 -17.753  1.00  0.00     0.224 C 
HETATM   14  C23 UNL     1      10.999 -22.702 -18.396  1.00  0.00     0.028 C 
HETATM   15  C24 UNL     1      10.845 -22.133 -17.049  1.00  0.00     0.007 C 
HETATM   16  C25 UNL     1      11.614 -20.937 -16.670  1.00  0.00     0.001 C 
HETATM   17  C26 UNL     1      12.788 -21.335 -15.761  1.00  0.00     0.014 C 
HETATM   18  C27 UNL     1      13.663 -22.313 -16.456  1.00  0.00     0.047 C 
HETATM   19  C28 UNL     1      14.966 -22.400 -15.647  1.00  0.00     0.278 C 
HETATM   20  N5  UNL     1      16.045 -22.203 -16.565  1.00  0.00     0.086 N 
HETATM   21  C29 UNL     1      17.079 -23.185 -16.265  1.00  0.00     0.310 C 
HETATM   22  C30 UNL     1      15.478 -22.464 -17.903  1.00  0.00     0.305 C 
BRANCH  11  23
HETATM   23  C20 UNL     1      14.094 -21.934 -20.082  1.00  0.00     0.233 C 
HETATM   24  C21 UNL     1      13.340 -22.275 -21.306  1.00  0.00     0.035 C 
ENDBRANCH  11  23
ENDBRANCH   6   9
BRANCH   1  25
HETATM   25  C12 UNL     1       7.411 -15.982 -16.752  1.00  0.00     0.224 C 
HETATM   26  N2  UNL     1       6.349 -16.846 -17.007  1.00  0.00    -0.347 N 
ATOM     27  H2  UNL     1       6.579 -17.839 -16.966  1.00  0.00     0.163 HD
HETATM   28  O2  UNL     1       7.384 -14.736 -16.751  1.00  0.00    -0.273 OA
BRANCH  26  29
HETATM   29  C7  UNL     1       4.973 -16.549 -17.321  1.00  0.00     0.177 C 
BRANCH  29  30
HETATM   30  C6  UNL     1       4.497 -17.276 -18.508  1.00  0.00     0.242 C 
HETATM   31  N1  UNL     1       3.210 -17.171 -19.085  1.00  0.00    -0.355 N 
HETATM   32  C5  UNL     1       2.161 -16.264 -18.647  1.00  0.00     0.152 C 
HETATM   33  O1  UNL     1       5.298 -18.062 -19.073  1.00  0.00    -0.271 OA
BRANCH  31  34
HETATM   34  C4  UNL     1       2.865 -17.991 -20.236  1.00  0.00     0.125 C 
BRANCH  34  35
HETATM   35  C3  UNL     1       1.948 -19.116 -19.939  1.00  0.00     0.019 C 
BRANCH  35  36
HETATM   36  C2  UNL     1       2.643 -20.409 -20.292  1.00  0.00    -0.003 C 
HETATM   37  C1  UNL     1       3.392 -20.931 -19.088  1.00  0.00     0.005 C 
ENDBRANCH  35  36
ENDBRANCH  34  35
ENDBRANCH  31  34
ENDBRANCH  29  30
BRANCH  29  38
HETATM   38  C8  UNL     1       4.092 -16.520 -16.134  1.00  0.00     0.038 C 
BRANCH  38  39
HETATM   39  C9  UNL     1       3.758 -15.284 -15.443  1.00  0.00    -0.020 C 
HETATM   40  C10 UNL     1       4.014 -14.156 -16.477  1.00  0.00     0.009 C 
HETATM   41  C11 UNL     1       2.380 -15.055 -14.960  1.00  0.00     0.009 C 
ENDBRANCH  38  39
ENDBRANCH  29  38
ENDBRANCH  26  29
ENDBRANCH   1  25
TORSDOF 10
ENDMDL
