MODEL 1
REMARK VINA RESULT: -9.335052033      0.000      0.000
REMARK  10 active torsions:
REMARK  status: ('A' for Active; 'I' for Inactive)
REMARK    1  A    between atoms: C2_2  and  N1_3 
REMARK    2  A    between atoms: C4_6  and  C5_7 
REMARK       I    between atoms: C5_7  and  N2_9 
REMARK       I    between atoms: N3_15  and  C10_16 
REMARK    3  A    between atoms: C10_16  and  C11_18 
REMARK    4  A    between atoms: C11_18  and  C12_19 
REMARK    5  A    between atoms: C12_19  and  C13_20 
REMARK    6  A    between atoms: C13_20  and  C14_21 
REMARK    7  A    between atoms: C14_21  and  C15_22 
REMARK    8  A    between atoms: C15_22  and  C16_23 
REMARK    9  A    between atoms: C16_23  and  C17_24 
REMARK       I    between atoms: C17_24  and  N4_26 
REMARK   10  A    between atoms: C25_34  and  C26_35 
REMARK       I    between atoms: C26_35  and  N5_37 
ROOT
HETATM    1  N1  UNL     1      16.648 -23.227 -17.574  1.00  0.00    -0.338 N 
HETATM    2  C3  UNL     1      17.437 -22.598 -16.577  1.00  0.00     0.234 C 
HETATM    3  O1  UNL     1      18.664 -22.414 -16.789  1.00  0.00    -0.272 OA
HETATM    4  C4  UNL     1      16.797 -22.169 -15.296  1.00  0.00     0.178 C 
HETATM    5  C7  UNL     1      15.364 -21.724 -15.508  1.00  0.00    -0.014 C 
HETATM    6  C8  UNL     1      15.421 -20.277 -15.986  1.00  0.00     0.030 C 
HETATM    7  C9  UNL     1      14.889 -19.325 -14.904  1.00  0.00     0.126 C 
HETATM    8  N3  UNL     1      13.551 -19.739 -14.559  1.00  0.00    -0.352 N 
HETATM    9  C10 UNL     1      12.461 -18.845 -14.499  1.00  0.00     0.219 C 
HETATM   10  O3  UNL     1      12.737 -17.623 -14.756  1.00  0.00    -0.273 OA
HETATM   11  C22 UNL     1      13.332 -21.138 -14.257  1.00  0.00     0.126 C 
HETATM   12  C23 UNL     1      14.686 -21.789 -14.131  1.00  0.00     0.030 C 
HETATM   13  C24 UNL     1      14.561 -22.583 -16.416  1.00  0.00     0.046 C 
HETATM   14  C25 UNL     1      15.202 -23.051 -17.676  1.00  0.00     0.180 C 
ENDROOT
BRANCH   4  15
HETATM   15  C5  UNL     1      16.964 -23.145 -14.210  1.00  0.00     0.231 C 
HETATM   16  O2  UNL     1      17.922 -23.051 -13.366  1.00  0.00    -0.273 OA
HETATM   17  N2  UNL     1      16.081 -24.239 -14.035  1.00  0.00    -0.365 N 
HETATM   18  C6  UNL     1      16.245 -25.198 -12.965  1.00  0.00     0.149 C 
ATOM     19  H2  UNL     1      15.302 -24.353 -14.684  1.00  0.00     0.161 HD
ENDBRANCH   4  15
BRANCH  14  20
HETATM   20  C26 UNL     1      14.847 -22.254 -18.867  1.00  0.00     0.242 C 
HETATM   21  O5  UNL     1      15.220 -21.036 -18.880  1.00  0.00    -0.271 OA
HETATM   22  N5  UNL     1      14.139 -22.735 -19.975  1.00  0.00    -0.350 N 
HETATM   23  C27 UNL     1      13.717 -24.106 -20.041  1.00  0.00     0.126 C 
HETATM   24  C31 UNL     1      13.788 -21.886 -21.107  1.00  0.00     0.126 C 
HETATM   25  C28 UNL     1      13.976 -24.677 -21.406  1.00  0.00     0.020 C 
HETATM   26  C29 UNL     1      13.354 -23.845 -22.484  1.00  0.00     0.003 C 
HETATM   27  C30 UNL     1      12.717 -22.586 -21.920  1.00  0.00     0.020 C 
ENDBRANCH  14  20
BRANCH   1  28
HETATM   28  C2  UNL     1      17.304 -24.092 -18.544  1.00  0.00     0.122 C 
HETATM   29  C1  UNL     1      17.537 -25.470 -17.967  1.00  0.00     0.026 C 
ENDBRANCH   1  28
BRANCH   9  30
HETATM   30  C11 UNL     1      11.089 -19.242 -14.173  1.00  0.00     0.103 C 
BRANCH  30  31
HETATM   31  C12 UNL     1      10.183 -18.050 -14.056  1.00  0.00     0.009 C 
BRANCH  31  32
HETATM   32  C13 UNL     1       8.790 -18.442 -14.500  1.00  0.00     0.000 C 
BRANCH  32  33
HETATM   33  C14 UNL     1       8.219 -17.436 -15.474  1.00  0.00     0.000 C 
BRANCH  33  34
HETATM   34  C15 UNL     1       9.323 -16.678 -16.132  1.00  0.00     0.009 C 
BRANCH  34  35
HETATM   35  C16 UNL     1       9.524 -17.077 -17.553  1.00  0.00     0.103 C 
BRANCH  35  36
HETATM   36  C17 UNL     1      10.791 -17.787 -17.774  1.00  0.00     0.219 C 
HETATM   37  O4  UNL     1      11.919 -17.198 -17.869  1.00  0.00    -0.273 OA
HETATM   38  N4  UNL     1      10.750 -19.214 -17.886  1.00  0.00    -0.352 N 
HETATM   39  C18 UNL     1      11.887 -20.093 -18.105  1.00  0.00     0.126 C 
HETATM   40  C21 UNL     1       9.542 -20.012 -17.783  1.00  0.00     0.126 C 
HETATM   41  C19 UNL     1      11.511 -21.370 -17.372  1.00  0.00     0.021 C 
HETATM   42  C20 UNL     1      10.004 -21.332 -17.188  1.00  0.00     0.021 C 
ENDBRANCH  35  36
ENDBRANCH  34  35
ENDBRANCH  33  34
ENDBRANCH  32  33
ENDBRANCH  31  32
ENDBRANCH  30  31
ENDBRANCH   9  30
TORSDOF 10
ENDMDL
MODEL 2
REMARK VINA RESULT: -8.966824026      2.072      8.215
REMARK  10 active torsions:
REMARK  status: ('A' for Active; 'I' for Inactive)
REMARK    1  A    between atoms: C2_2  and  N1_3 
REMARK    2  A    between atoms: C4_6  and  C5_7 
REMARK       I    between atoms: C5_7  and  N2_9 
REMARK       I    between atoms: N3_15  and  C10_16 
REMARK    3  A    between atoms: C10_16  and  C11_18 
REMARK    4  A    between atoms: C11_18  and  C12_19 
REMARK    5  A    between atoms: C12_19  and  C13_20 
REMARK    6  A    between atoms: C13_20  and  C14_21 
REMARK    7  A    between atoms: C14_21  and  C15_22 
REMARK    8  A    between atoms: C15_22  and  C16_23 
REMARK    9  A    between atoms: C16_23  and  C17_24 
REMARK       I    between atoms: C17_24  and  N4_26 
REMARK   10  A    between atoms: C25_34  and  C26_35 
REMARK       I    between atoms: C26_35  and  N5_37 
ROOT
HETATM    1  N1  UNL     1       9.575 -18.491 -19.068  1.00  0.00    -0.338 N 
HETATM    2  C3  UNL     1      10.646 -18.837 -19.932  1.00  0.00     0.234 C 
HETATM    3  O1  UNL     1      10.828 -18.171 -20.984  1.00  0.00    -0.272 OA
HETATM    4  C4  UNL     1      11.535 -19.986 -19.578  1.00  0.00     0.178 C 
HETATM    5  C7  UNL     1      11.711 -20.115 -18.078  1.00  0.00    -0.014 C 
HETATM    6  C8  UNL     1      12.800 -19.125 -17.678  1.00  0.00     0.030 C 
HETATM    7  C9  UNL     1      14.078 -19.865 -17.254  1.00  0.00     0.126 C 
HETATM    8  N3  UNL     1      13.739 -20.772 -16.186  1.00  0.00    -0.352 N 
HETATM    9  C10 UNL     1      14.467 -20.845 -14.979  1.00  0.00     0.219 C 
HETATM   10  O3  UNL     1      15.471 -20.058 -14.894  1.00  0.00    -0.273 OA
HETATM   11  C22 UNL     1      12.601 -21.647 -16.375  1.00  0.00     0.126 C 
HETATM   12  C23 UNL     1      12.196 -21.550 -17.825  1.00  0.00     0.030 C 
HETATM   13  C24 UNL     1      10.472 -19.939 -17.276  1.00  0.00     0.046 C 
HETATM   14  C25 UNL     1       9.558 -18.824 -17.646  1.00  0.00     0.180 C 
ENDROOT
BRANCH   4  15
HETATM   15  C5  UNL     1      11.153 -21.240 -20.244  1.00  0.00     0.231 C 
HETATM   16  O2  UNL     1      10.020 -21.795 -20.027  1.00  0.00    -0.273 OA
HETATM   17  N2  UNL     1      12.010 -21.901 -21.157  1.00  0.00    -0.365 N 
HETATM   18  C6  UNL     1      11.633 -23.134 -21.812  1.00  0.00     0.149 C 
ATOM     19  H2  UNL     1      12.924 -21.494 -21.360  1.00  0.00     0.161 HD
ENDBRANCH   4  15
BRANCH  14  20
HETATM   20  C26 UNL     1       9.717 -17.612 -16.816  1.00  0.00     0.242 C 
HETATM   21  O5  UNL     1      10.883 -17.105 -16.751  1.00  0.00    -0.271 OA
HETATM   22  N5  UNL     1       8.687 -16.985 -16.104  1.00  0.00    -0.350 N 
HETATM   23  C27 UNL     1       7.342 -17.486 -16.159  1.00  0.00     0.126 C 
HETATM   24  C31 UNL     1       8.916 -15.809 -15.272  1.00  0.00     0.126 C 
HETATM   25  C28 UNL     1       6.361 -16.359 -16.317  1.00  0.00     0.020 C 
HETATM   26  C29 UNL     1       6.532 -15.320 -15.252  1.00  0.00     0.003 C 
HETATM   27  C30 UNL     1       7.721 -15.628 -14.357  1.00  0.00     0.020 C 
ENDBRANCH  14  20
BRANCH   1  28
HETATM   28  C2  UNL     1       8.435 -17.772 -19.618  1.00  0.00     0.122 C 
HETATM   29  C1  UNL     1       7.223 -18.672 -19.707  1.00  0.00     0.026 C 
ENDBRANCH   1  28
BRANCH   9  30
HETATM   30  C11 UNL     1      14.132 -21.741 -13.870  1.00  0.00     0.103 C 
BRANCH  30  31
HETATM   31  C12 UNL     1      14.723 -23.108 -14.067  1.00  0.00     0.009 C 
BRANCH  31  32
HETATM   32  C13 UNL     1      16.210 -23.049 -13.790  1.00  0.00     0.000 C 
BRANCH  32  33
HETATM   33  C14 UNL     1      17.001 -23.719 -14.891  1.00  0.00     0.000 C 
BRANCH  33  34
HETATM   34  C15 UNL     1      17.285 -22.743 -15.983  1.00  0.00     0.009 C 
BRANCH  34  35
HETATM   35  C16 UNL     1      16.450 -22.981 -17.194  1.00  0.00     0.103 C 
BRANCH  35  36
HETATM   36  C17 UNL     1      17.209 -23.574 -18.304  1.00  0.00     0.219 C 
HETATM   37  O4  UNL     1      18.468 -23.774 -18.267  1.00  0.00    -0.273 OA
HETATM   38  N4  UNL     1      16.488 -23.947 -19.485  1.00  0.00    -0.352 N 
HETATM   39  C18 UNL     1      17.054 -24.544 -20.683  1.00  0.00     0.126 C 
HETATM   40  C21 UNL     1      15.057 -23.792 -19.657  1.00  0.00     0.126 C 
HETATM   41  C19 UNL     1      15.940 -25.433 -21.211  1.00  0.00     0.021 C 
HETATM   42  C20 UNL     1      14.655 -24.935 -20.574  1.00  0.00     0.021 C 
ENDBRANCH  35  36
ENDBRANCH  34  35
ENDBRANCH  33  34
ENDBRANCH  32  33
ENDBRANCH  31  32
ENDBRANCH  30  31
ENDBRANCH   9  30
TORSDOF 10
ENDMDL
MODEL 3
REMARK VINA RESULT: -8.824841521      1.491      2.214
REMARK  10 active torsions:
REMARK  status: ('A' for Active; 'I' for Inactive)
REMARK    1  A    between atoms: C2_2  and  N1_3 
REMARK    2  A    between atoms: C4_6  and  C5_7 
REMARK       I    between atoms: C5_7  and  N2_9 
REMARK       I    between atoms: N3_15  and  C10_16 
REMARK    3  A    between atoms: C10_16  and  C11_18 
REMARK    4  A    between atoms: C11_18  and  C12_19 
REMARK    5  A    between atoms: C12_19  and  C13_20 
REMARK    6  A    between atoms: C13_20  and  C14_21 
REMARK    7  A    between atoms: C14_21  and  C15_22 
REMARK    8  A    between atoms: C15_22  and  C16_23 
REMARK    9  A    between atoms: C16_23  and  C17_24 
REMARK       I    between atoms: C17_24  and  N4_26 
REMARK   10  A    between atoms: C25_34  and  C26_35 
REMARK       I    between atoms: C26_35  and  N5_37 
ROOT
HETATM    1  N1  UNL     1      16.577 -23.242 -17.566  1.00  0.00    -0.338 N 
HETATM    2  C3  UNL     1      17.392 -22.618 -16.586  1.00  0.00     0.234 C 
HETATM    3  O1  UNL     1      18.617 -22.454 -16.821  1.00  0.00    -0.272 OA
HETATM    4  C4  UNL     1      16.781 -22.172 -15.297  1.00  0.00     0.178 C 
HETATM    5  C7  UNL     1      15.351 -21.709 -15.487  1.00  0.00    -0.014 C 
HETATM    6  C8  UNL     1      15.419 -20.266 -15.975  1.00  0.00     0.030 C 
HETATM    7  C9  UNL     1      14.920 -19.299 -14.889  1.00  0.00     0.126 C 
HETATM    8  N3  UNL     1      13.583 -19.693 -14.519  1.00  0.00    -0.352 N 
HETATM    9  C10 UNL     1      12.507 -18.783 -14.445  1.00  0.00     0.219 C 
HETATM   10  O3  UNL     1      12.796 -17.567 -14.715  1.00  0.00    -0.273 OA
HETATM   11  C22 UNL     1      13.350 -21.086 -14.205  1.00  0.00     0.126 C 
HETATM   12  C23 UNL     1      14.696 -21.756 -14.098  1.00  0.00     0.030 C 
HETATM   13  C24 UNL     1      14.520 -22.561 -16.376  1.00  0.00     0.046 C 
HETATM   14  C25 UNL     1      15.132 -23.046 -17.643  1.00  0.00     0.180 C 
ENDROOT
BRANCH   4  15
HETATM   15  C5  UNL     1      16.953 -23.145 -14.208  1.00  0.00     0.231 C 
HETATM   16  O2  UNL     1      17.923 -23.056 -13.378  1.00  0.00    -0.273 OA
HETATM   17  N2  UNL     1      16.062 -24.229 -14.016  1.00  0.00    -0.365 N 
HETATM   18  C6  UNL     1      16.232 -25.185 -12.944  1.00  0.00     0.149 C 
ATOM     19  H2  UNL     1      15.274 -24.339 -14.654  1.00  0.00     0.161 HD
ENDBRANCH   4  15
BRANCH  14  20
HETATM   20  C26 UNL     1      14.767 -22.251 -18.834  1.00  0.00     0.242 C 
HETATM   21  O5  UNL     1      15.069 -21.013 -18.816  1.00  0.00    -0.271 OA
HETATM   22  N5  UNL     1      14.122 -22.753 -19.970  1.00  0.00    -0.350 N 
HETATM   23  C27 UNL     1      13.782 -24.145 -20.069  1.00  0.00     0.126 C 
HETATM   24  C31 UNL     1      13.757 -21.907 -21.100  1.00  0.00     0.126 C 
HETATM   25  C28 UNL     1      14.114 -24.678 -21.433  1.00  0.00     0.020 C 
HETATM   26  C29 UNL     1      13.478 -23.865 -22.518  1.00  0.00     0.003 C 
HETATM   27  C30 UNL     1      12.753 -22.654 -21.955  1.00  0.00     0.020 C 
ENDBRANCH  14  20
BRANCH   1  28
HETATM   28  C2  UNL     1      17.203 -24.122 -18.542  1.00  0.00     0.122 C 
HETATM   29  C1  UNL     1      17.611 -25.430 -17.904  1.00  0.00     0.026 C 
ENDBRANCH   1  28
BRANCH   9  30
HETATM   30  C11 UNL     1      11.136 -19.158 -14.093  1.00  0.00     0.103 C 
BRANCH  30  31
HETATM   31  C12 UNL     1      10.137 -18.546 -15.034  1.00  0.00     0.009 C 
BRANCH  31  32
HETATM   32  C13 UNL     1      10.386 -19.073 -16.431  1.00  0.00     0.000 C 
BRANCH  32  33
HETATM   33  C14 UNL     1       9.630 -20.359 -16.676  1.00  0.00     0.000 C 
BRANCH  33  34
HETATM   34  C15 UNL     1      10.586 -21.495 -16.822  1.00  0.00     0.009 C 
BRANCH  34  35
HETATM   35  C16 UNL     1      11.398 -21.403 -18.068  1.00  0.00     0.103 C 
BRANCH  35  36
HETATM   36  C17 UNL     1      10.592 -21.556 -19.288  1.00  0.00     0.219 C 
HETATM   37  O4  UNL     1       9.972 -22.629 -19.590  1.00  0.00    -0.273 OA
HETATM   38  N4  UNL     1      10.503 -20.437 -20.177  1.00  0.00    -0.352 N 
HETATM   39  C18 UNL     1       9.761 -20.389 -21.426  1.00  0.00     0.126 C 
HETATM   40  C21 UNL     1      11.143 -19.155 -19.951  1.00  0.00     0.126 C 
HETATM   41  C19 UNL     1       9.316 -18.940 -21.534  1.00  0.00     0.021 C 
HETATM   42  C20 UNL     1      10.217 -18.144 -20.608  1.00  0.00     0.021 C 
ENDBRANCH  35  36
ENDBRANCH  34  35
ENDBRANCH  33  34
ENDBRANCH  32  33
ENDBRANCH  31  32
ENDBRANCH  30  31
ENDBRANCH   9  30
TORSDOF 10
ENDMDL
MODEL 4
REMARK VINA RESULT: -8.721765776      3.207      6.436
REMARK  10 active torsions:
REMARK  status: ('A' for Active; 'I' for Inactive)
REMARK    1  A    between atoms: C2_2  and  N1_3 
REMARK    2  A    between atoms: C4_6  and  C5_7 
REMARK       I    between atoms: C5_7  and  N2_9 
REMARK       I    between atoms: N3_15  and  C10_16 
REMARK    3  A    between atoms: C10_16  and  C11_18 
REMARK    4  A    between atoms: C11_18  and  C12_19 
REMARK    5  A    between atoms: C12_19  and  C13_20 
REMARK    6  A    between atoms: C13_20  and  C14_21 
REMARK    7  A    between atoms: C14_21  and  C15_22 
REMARK    8  A    between atoms: C15_22  and  C16_23 
REMARK    9  A    between atoms: C16_23  and  C17_24 
REMARK       I    between atoms: C17_24  and  N4_26 
REMARK   10  A    between atoms: C25_34  and  C26_35 
REMARK       I    between atoms: C26_35  and  N5_37 
ROOT
HETATM    1  N1  UNL     1      11.835 -21.713 -19.144  1.00  0.00    -0.338 N 
HETATM    2  C3  UNL     1      10.428 -21.644 -19.310  1.00  0.00     0.234 C 
HETATM    3  O1  UNL     1       9.806 -22.661 -19.714  1.00  0.00    -0.272 OA
HETATM    4  C4  UNL     1       9.714 -20.367 -19.006  1.00  0.00     0.178 C 
HETATM    5  C7  UNL     1      10.371 -19.617 -17.865  1.00  0.00    -0.014 C 
HETATM    6  C8  UNL     1       9.848 -20.238 -16.574  1.00  0.00     0.030 C 
HETATM    7  C9  UNL     1       8.915 -19.263 -15.840  1.00  0.00     0.126 C 
HETATM    8  N3  UNL     1       9.639 -18.038 -15.608  1.00  0.00    -0.352 N 
HETATM    9  C10 UNL     1       9.690 -17.402 -14.349  1.00  0.00     0.219 C 
HETATM   10  O3  UNL     1       9.033 -17.977 -13.415  1.00  0.00    -0.273 OA
HETATM   11  C22 UNL     1      10.334 -17.439 -16.727  1.00  0.00     0.126 C 
HETATM   12  C23 UNL     1       9.889 -18.162 -17.973  1.00  0.00     0.030 C 
HETATM   13  C24 UNL     1      11.855 -19.574 -17.904  1.00  0.00     0.046 C 
HETATM   14  C25 UNL     1      12.577 -20.831 -18.248  1.00  0.00     0.180 C 
ENDROOT
BRANCH   4  15
HETATM   15  C5  UNL     1       9.468 -19.543 -20.199  1.00  0.00     0.231 C 
HETATM   16  O2  UNL     1      10.370 -19.371 -21.091  1.00  0.00    -0.273 OA
HETATM   17  N2  UNL     1       8.229 -18.895 -20.428  1.00  0.00    -0.365 N 
HETATM   18  C6  UNL     1       7.989 -18.085 -21.601  1.00  0.00     0.149 C 
ATOM     19  H2  UNL     1       7.482 -19.004 -19.742  1.00  0.00     0.161 HD
ENDBRANCH   4  15
BRANCH  14  20
HETATM   20  C26 UNL     1      13.089 -21.572 -17.077  1.00  0.00     0.242 C 
HETATM   21  O5  UNL     1      12.244 -21.887 -16.178  1.00  0.00    -0.271 OA
HETATM   22  N5  UNL     1      14.423 -21.953 -16.887  1.00  0.00    -0.350 N 
HETATM   23  C27 UNL     1      15.422 -21.658 -17.877  1.00  0.00     0.126 C 
HETATM   24  C31 UNL     1      14.873 -22.654 -15.691  1.00  0.00     0.126 C 
HETATM   25  C28 UNL     1      16.317 -22.843 -18.098  1.00  0.00     0.020 C 
HETATM   26  C29 UNL     1      16.921 -23.330 -16.817  1.00  0.00     0.003 C 
HETATM   27  C30 UNL     1      16.384 -22.564 -15.620  1.00  0.00     0.020 C 
ENDBRANCH  14  20
BRANCH   1  28
HETATM   28  C2  UNL     1      12.582 -22.707 -19.902  1.00  0.00     0.122 C 
HETATM   29  C1  UNL     1      13.213 -22.088 -21.128  1.00  0.00     0.026 C 
ENDBRANCH   1  28
BRANCH   9  30
HETATM   30  C11 UNL     1      10.434 -16.169 -14.080  1.00  0.00     0.103 C 
BRANCH  30  31
HETATM   31  C12 UNL     1       9.643 -14.951 -14.465  1.00  0.00     0.009 C 
BRANCH  31  32
HETATM   32  C13 UNL     1       8.168 -15.247 -14.298  1.00  0.00     0.000 C 
BRANCH  32  33
HETATM   33  C14 UNL     1       7.407 -14.985 -15.578  1.00  0.00     0.000 C 
BRANCH  33  34
HETATM   34  C15 UNL     1       6.521 -16.144 -15.892  1.00  0.00     0.009 C 
BRANCH  34  35
HETATM   35  C16 UNL     1       5.512 -15.824 -16.941  1.00  0.00     0.103 C 
BRANCH  35  36
HETATM   36  C17 UNL     1       5.706 -16.598 -18.175  1.00  0.00     0.219 C 
HETATM   37  O4  UNL     1       6.744 -16.502 -18.909  1.00  0.00    -0.273 OA
HETATM   38  N4  UNL     1       4.669 -17.506 -18.567  1.00  0.00    -0.352 N 
HETATM   39  C18 UNL     1       4.672 -18.355 -19.747  1.00  0.00     0.126 C 
HETATM   40  C21 UNL     1       3.445 -17.726 -17.821  1.00  0.00     0.126 C 
HETATM   41  C19 UNL     1       3.891 -19.585 -19.315  1.00  0.00     0.021 C 
HETATM   42  C20 UNL     1       3.084 -19.177 -18.096  1.00  0.00     0.021 C 
ENDBRANCH  35  36
ENDBRANCH  34  35
ENDBRANCH  33  34
ENDBRANCH  32  33
ENDBRANCH  31  32
ENDBRANCH  30  31
ENDBRANCH   9  30
TORSDOF 10
ENDMDL
MODEL 5
REMARK VINA RESULT: -8.708722796      1.197      1.500
REMARK  10 active torsions:
REMARK  status: ('A' for Active; 'I' for Inactive)
REMARK    1  A    between atoms: C2_2  and  N1_3 
REMARK    2  A    between atoms: C4_6  and  C5_7 
REMARK       I    between atoms: C5_7  and  N2_9 
REMARK       I    between atoms: N3_15  and  C10_16 
REMARK    3  A    between atoms: C10_16  and  C11_18 
REMARK    4  A    between atoms: C11_18  and  C12_19 
REMARK    5  A    between atoms: C12_19  and  C13_20 
REMARK    6  A    between atoms: C13_20  and  C14_21 
REMARK    7  A    between atoms: C14_21  and  C15_22 
REMARK    8  A    between atoms: C15_22  and  C16_23 
REMARK    9  A    between atoms: C16_23  and  C17_24 
REMARK       I    between atoms: C17_24  and  N4_26 
REMARK   10  A    between atoms: C25_34  and  C26_35 
REMARK       I    between atoms: C26_35  and  N5_37 
ROOT
HETATM    1  N1  UNL     1      16.544 -23.191 -17.512  1.00  0.00    -0.338 N 
HETATM    2  C3  UNL     1      17.321 -22.564 -16.503  1.00  0.00     0.234 C 
HETATM    3  O1  UNL     1      18.552 -22.385 -16.699  1.00  0.00    -0.272 OA
HETATM    4  C4  UNL     1      16.666 -22.132 -15.232  1.00  0.00     0.178 C 
HETATM    5  C7  UNL     1      15.237 -21.683 -15.464  1.00  0.00    -0.014 C 
HETATM    6  C8  UNL     1      15.305 -20.236 -15.942  1.00  0.00     0.030 C 
HETATM    7  C9  UNL     1      14.762 -19.282 -14.867  1.00  0.00     0.126 C 
HETATM    8  N3  UNL     1      13.418 -19.692 -14.541  1.00  0.00    -0.352 N 
HETATM    9  C10 UNL     1      12.330 -18.794 -14.496  1.00  0.00     0.219 C 
HETATM   10  O3  UNL     1      12.614 -17.574 -14.750  1.00  0.00    -0.273 OA
HETATM   11  C22 UNL     1      13.190 -21.090 -14.241  1.00  0.00     0.126 C 
HETATM   12  C23 UNL     1      14.540 -21.746 -14.096  1.00  0.00     0.030 C 
HETATM   13  C24 UNL     1      14.444 -22.539 -16.382  1.00  0.00     0.046 C 
HETATM   14  C25 UNL     1      15.101 -23.011 -17.633  1.00  0.00     0.180 C 
ENDROOT
BRANCH   4  15
HETATM   15  C5  UNL     1      16.815 -23.109 -14.143  1.00  0.00     0.231 C 
HETATM   16  O2  UNL     1      17.716 -22.977 -13.244  1.00  0.00    -0.273 OA
HETATM   17  N2  UNL     1      15.975 -24.244 -14.027  1.00  0.00    -0.365 N 
HETATM   18  C6  UNL     1      16.122 -25.204 -12.955  1.00  0.00     0.149 C 
ATOM     19  H2  UNL     1      15.243 -24.389 -14.722  1.00  0.00     0.161 HD
ENDBRANCH   4  15
BRANCH  14  20
HETATM   20  C26 UNL     1      14.764 -22.212 -18.830  1.00  0.00     0.242 C 
HETATM   21  O5  UNL     1      15.138 -20.995 -18.836  1.00  0.00    -0.271 OA
HETATM   22  N5  UNL     1      14.073 -22.693 -19.948  1.00  0.00    -0.350 N 
HETATM   23  C27 UNL     1      13.650 -24.064 -20.021  1.00  0.00     0.126 C 
HETATM   24  C31 UNL     1      13.740 -21.843 -21.085  1.00  0.00     0.126 C 
HETATM   25  C28 UNL     1      13.930 -24.635 -21.382  1.00  0.00     0.020 C 
HETATM   26  C29 UNL     1      13.325 -23.801 -22.469  1.00  0.00     0.003 C 
HETATM   27  C30 UNL     1      12.681 -22.542 -21.914  1.00  0.00     0.020 C 
ENDBRANCH  14  20
BRANCH   1  28
HETATM   28  C2  UNL     1      17.211 -24.059 -18.472  1.00  0.00     0.122 C 
HETATM   29  C1  UNL     1      17.607 -25.369 -17.830  1.00  0.00     0.026 C 
ENDBRANCH   1  28
BRANCH   9  30
HETATM   30  C11 UNL     1      10.953 -19.187 -14.188  1.00  0.00     0.103 C 
BRANCH  30  31
HETATM   31  C12 UNL     1      10.042 -17.994 -14.117  1.00  0.00     0.009 C 
BRANCH  31  32
HETATM   32  C13 UNL     1       8.619 -18.442 -14.376  1.00  0.00     0.000 C 
BRANCH  32  33
HETATM   33  C14 UNL     1       7.861 -17.418 -15.192  1.00  0.00     0.000 C 
BRANCH  33  34
HETATM   34  C15 UNL     1       8.815 -16.576 -15.970  1.00  0.00     0.009 C 
BRANCH  34  35
HETATM   35  C16 UNL     1       8.587 -16.664 -17.440  1.00  0.00     0.103 C 
BRANCH  35  36
HETATM   36  C17 UNL     1       9.610 -17.463 -18.130  1.00  0.00     0.219 C 
HETATM   37  O4  UNL     1      10.660 -17.905 -17.558  1.00  0.00    -0.273 OA
HETATM   38  N4  UNL     1       9.406 -17.757 -19.518  1.00  0.00    -0.352 N 
HETATM   39  C18 UNL     1      10.296 -18.527 -20.372  1.00  0.00     0.126 C 
HETATM   40  C21 UNL     1       8.253 -17.332 -20.287  1.00  0.00     0.126 C 
HETATM   41  C19 UNL     1       9.361 -19.208 -21.357  1.00  0.00     0.021 C 
HETATM   42  C20 UNL     1       8.059 -18.428 -21.323  1.00  0.00     0.021 C 
ENDBRANCH  35  36
ENDBRANCH  34  35
ENDBRANCH  33  34
ENDBRANCH  32  33
ENDBRANCH  31  32
ENDBRANCH  30  31
ENDBRANCH   9  30
TORSDOF 10
ENDMDL
