MODEL 1
REMARK VINA RESULT: -11.020994060      0.000      0.000
REMARK  12 active torsions:
REMARK  status: ('A' for Active; 'I' for Inactive)
REMARK    1  A    between atoms: C3_3  and  C5_5 
REMARK    2  A    between atoms: C5_5  and  N1_7 
REMARK    3  A    between atoms: C8_9  and  C9_10 
REMARK    4  A    between atoms: C9_10  and  O1_11 
REMARK    5  A    between atoms: C9_10  and  N2_13 
REMARK    6  A    between atoms: C12_16  and  C13_17 
REMARK    7  A    between atoms: C13_17  and  C14_18 
REMARK    8  A    between atoms: C17_21  and  C19_23 
REMARK       I    between atoms: C19_23  and  N3_25 
REMARK    9  A    between atoms: C27_33  and  C28_34 
REMARK       I    between atoms: C28_34  and  N4_36 
REMARK   10  A    between atoms: N4_36  and  C29_38 
REMARK   11  A    between atoms: C29_38  and  C30_39 
REMARK   12  A    between atoms: C30_39  and  C31_40 
ROOT
HETATM    1  C1  UNL     1      17.283 -23.823 -18.361  1.00  0.00     0.012 C 
HETATM    2  C2  UNL     1      16.655 -24.006 -19.353  1.00  0.00    -0.111 C 
HETATM    3  C3  UNL     1      15.901 -24.222 -20.582  1.00  0.00     0.082 C 
HETATM    4  C4  UNL     1      16.556 -25.342 -21.358  1.00  0.00     0.025 C 
ENDROOT
BRANCH   3   5
HETATM    5  C5  UNL     1      14.460 -24.548 -20.295  1.00  0.00     0.098 C 
HETATM    6  C6  UNL     1      14.291 -25.728 -19.398  1.00  0.00     0.034 C 
BRANCH   5   7
HETATM    7  N1  UNL     1      13.774 -23.418 -19.703  1.00  0.00    -0.345 N 
HETATM    8  C7  UNL     1      13.350 -23.292 -18.327  1.00  0.00     0.140 C 
HETATM    9  C8  UNL     1      12.226 -22.320 -18.378  1.00  0.00     0.100 C 
HETATM   10  C27 UNL     1      12.570 -21.372 -19.493  1.00  0.00     0.183 C 
HETATM   11  C33 UNL     1      13.407 -22.238 -20.378  1.00  0.00     0.234 C 
HETATM   12  O4  UNL     1      13.700 -21.877 -21.568  1.00  0.00    -0.272 OA
BRANCH   9  13
HETATM   13  C9  UNL     1      11.795 -21.719 -17.127  1.00  0.00     0.120 C 
BRANCH  13  14
HETATM   14  O1  UNL     1      10.639 -22.110 -16.655  1.00  0.00    -0.349 OA
ATOM     15  H1  UNL     1       9.874 -21.904 -17.178  1.00  0.00     0.219 HD
ENDBRANCH  13  14
BRANCH  13  16
HETATM   16  N2  UNL     1      12.440 -20.757 -16.318  1.00  0.00    -0.365 N 
HETATM   17  C10 UNL     1      12.839 -20.997 -14.973  1.00  0.00     0.125 C 
HETATM   18  C11 UNL     1      12.772 -19.756 -14.099  1.00  0.00     0.024 C 
HETATM   19  C12 UNL     1      11.803 -18.811 -14.790  1.00  0.00    -0.011 C 
HETATM   20  C25 UNL     1      12.501 -18.306 -15.997  1.00  0.00     0.024 C 
HETATM   21  C26 UNL     1      12.705 -19.445 -16.963  1.00  0.00     0.125 C 
BRANCH  19  22
HETATM   22  C13 UNL     1      11.169 -17.821 -13.907  1.00  0.00     0.009 C 
BRANCH  22  23
HETATM   23  C14 UNL     1       9.728 -17.604 -13.919  1.00  0.00    -0.013 C 
HETATM   24  C15 UNL     1       8.826 -18.667 -14.377  1.00  0.00     0.006 C 
HETATM   25  C16 UNL     1       7.575 -17.874 -14.769  1.00  0.00     0.019 C 
HETATM   26  C17 UNL     1       8.171 -16.772 -15.600  1.00  0.00     0.038 C 
HETATM   27  C18 UNL     1       8.487 -17.447 -16.958  1.00  0.00     0.025 C 
HETATM   28  C24 UNL     1       9.449 -16.450 -14.893  1.00  0.00     0.023 C 
BRANCH  26  29
HETATM   29  C19 UNL     1       7.304 -15.622 -15.830  1.00  0.00     0.228 C 
HETATM   30  O2  UNL     1       7.868 -14.471 -15.791  1.00  0.00    -0.273 OA
HETATM   31  N3  UNL     1       5.932 -15.662 -16.083  1.00  0.00    -0.351 N 
HETATM   32  C20 UNL     1       5.132 -14.437 -16.290  1.00  0.00     0.126 C 
HETATM   33  C23 UNL     1       5.069 -16.790 -16.197  1.00  0.00     0.126 C 
HETATM   34  C21 UNL     1       3.743 -14.799 -15.880  1.00  0.00     0.021 C 
HETATM   35  C22 UNL     1       3.666 -16.299 -15.867  1.00  0.00     0.021 C 
ENDBRANCH  26  29
ENDBRANCH  22  23
ENDBRANCH  19  22
ENDBRANCH  13  16
ENDBRANCH   9  13
BRANCH  10  36
HETATM   36  C28 UNL     1      11.314 -21.034 -20.248  1.00  0.00     0.231 C 
HETATM   37  O3  UNL     1      10.562 -21.969 -20.574  1.00  0.00    -0.273 OA
HETATM   38  N4  UNL     1      10.980 -19.708 -20.582  1.00  0.00    -0.360 N 
ATOM     39  H4  UNL     1      11.594 -18.938 -20.316  1.00  0.00     0.162 HD
BRANCH  38  40
HETATM   40  C29 UNL     1       9.754 -19.451 -21.306  1.00  0.00     0.122 C 
BRANCH  40  41
HETATM   41  C30 UNL     1       9.034 -18.318 -20.614  1.00  0.00     0.019 C 
BRANCH  41  42
HETATM   42  C31 UNL     1       7.863 -17.933 -21.499  1.00  0.00    -0.003 C 
HETATM   43  C32 UNL     1       6.582 -18.188 -20.738  1.00  0.00     0.005 C 
ENDBRANCH  41  42
ENDBRANCH  40  41
ENDBRANCH  38  40
ENDBRANCH  10  36
ENDBRANCH   5   7
ENDBRANCH   3   5
TORSDOF 12
ENDMDL
MODEL 2
REMARK VINA RESULT: -10.541737509      2.743      6.444
REMARK  12 active torsions:
REMARK  status: ('A' for Active; 'I' for Inactive)
REMARK    1  A    between atoms: C3_3  and  C5_5 
REMARK    2  A    between atoms: C5_5  and  N1_7 
REMARK    3  A    between atoms: C8_9  and  C9_10 
REMARK    4  A    between atoms: C9_10  and  O1_11 
REMARK    5  A    between atoms: C9_10  and  N2_13 
REMARK    6  A    between atoms: C12_16  and  C13_17 
REMARK    7  A    between atoms: C13_17  and  C14_18 
REMARK    8  A    between atoms: C17_21  and  C19_23 
REMARK       I    between atoms: C19_23  and  N3_25 
REMARK    9  A    between atoms: C27_33  and  C28_34 
REMARK       I    between atoms: C28_34  and  N4_36 
REMARK   10  A    between atoms: N4_36  and  C29_38 
REMARK   11  A    between atoms: C29_38  and  C30_39 
REMARK   12  A    between atoms: C30_39  and  C31_40 
ROOT
HETATM    1  C1  UNL     1      11.172 -22.609 -17.828  1.00  0.00     0.012 C 
HETATM    2  C2  UNL     1      11.540 -22.794 -18.942  1.00  0.00    -0.111 C 
HETATM    3  C3  UNL     1      11.973 -23.033 -20.313  1.00  0.00     0.082 C 
HETATM    4  C4  UNL     1      11.022 -22.323 -21.250  1.00  0.00     0.025 C 
ENDROOT
BRANCH   3   5
HETATM    5  C5  UNL     1      13.386 -22.564 -20.535  1.00  0.00     0.098 C 
HETATM    6  C6  UNL     1      13.494 -21.086 -20.705  1.00  0.00     0.034 C 
BRANCH   5   7
HETATM    7  N1  UNL     1      14.250 -22.967 -19.446  1.00  0.00    -0.345 N 
HETATM    8  C7  UNL     1      14.741 -22.125 -18.378  1.00  0.00     0.140 C 
HETATM    9  C8  UNL     1      15.991 -22.793 -17.931  1.00  0.00     0.100 C 
HETATM   10  C27 UNL     1      15.745 -24.265 -18.119  1.00  0.00     0.183 C 
HETATM   11  C33 UNL     1      14.758 -24.264 -19.241  1.00  0.00     0.234 C 
HETATM   12  O4  UNL     1      14.475 -25.339 -19.871  1.00  0.00    -0.272 OA
BRANCH   9  13
HETATM   13  C9  UNL     1      16.552 -22.390 -16.652  1.00  0.00     0.120 C 
BRANCH  13  14
HETATM   14  O1  UNL     1      17.851 -22.476 -16.527  1.00  0.00    -0.349 OA
ATOM     15  H1  UNL     1      18.340 -21.663 -16.583  1.00  0.00     0.219 HD
ENDBRANCH  13  14
BRANCH  13  16
HETATM   16  N2  UNL     1      15.904 -21.907 -15.493  1.00  0.00    -0.365 N 
HETATM   17  C10 UNL     1      15.234 -22.743 -14.557  1.00  0.00     0.125 C 
HETATM   18  C11 UNL     1      14.039 -22.070 -13.901  1.00  0.00     0.024 C 
HETATM   19  C12 UNL     1      13.630 -20.945 -14.837  1.00  0.00    -0.011 C 
HETATM   20  C25 UNL     1      14.678 -19.902 -14.721  1.00  0.00     0.024 C 
HETATM   21  C26 UNL     1      15.971 -20.437 -15.283  1.00  0.00     0.125 C 
BRANCH  19  22
HETATM   22  C13 UNL     1      12.229 -20.517 -14.713  1.00  0.00     0.009 C 
BRANCH  22  23
HETATM   23  C14 UNL     1      11.769 -19.251 -15.270  1.00  0.00    -0.013 C 
HETATM   24  C15 UNL     1      11.375 -18.154 -14.380  1.00  0.00     0.006 C 
HETATM   25  C16 UNL     1      10.465 -17.319 -15.287  1.00  0.00     0.019 C 
HETATM   26  C17 UNL     1       9.571 -18.381 -15.868  1.00  0.00     0.038 C 
HETATM   27  C18 UNL     1       8.575 -18.705 -14.727  1.00  0.00     0.025 C 
HETATM   28  C24 UNL     1      10.491 -19.542 -16.071  1.00  0.00     0.023 C 
BRANCH  26  29
HETATM   29  C19 UNL     1       8.825 -17.989 -17.056  1.00  0.00     0.228 C 
HETATM   30  O2  UNL     1       7.610 -17.623 -16.868  1.00  0.00    -0.273 OA
HETATM   31  N3  UNL     1       9.307 -17.980 -18.367  1.00  0.00    -0.351 N 
HETATM   32  C20 UNL     1       8.466 -17.578 -19.514  1.00  0.00     0.126 C 
HETATM   33  C23 UNL     1      10.603 -18.316 -18.853  1.00  0.00     0.126 C 
HETATM   34  C21 UNL     1       9.044 -18.288 -20.693  1.00  0.00     0.021 C 
HETATM   35  C22 UNL     1      10.431 -18.720 -20.310  1.00  0.00     0.021 C 
ENDBRANCH  26  29
ENDBRANCH  22  23
ENDBRANCH  19  22
ENDBRANCH  13  16
ENDBRANCH   9  13
BRANCH  10  36
HETATM   36  C28 UNL     1      17.007 -24.907 -18.627  1.00  0.00     0.231 C 
HETATM   37  O3  UNL     1      17.796 -24.201 -19.281  1.00  0.00    -0.273 OA
HETATM   38  N4  UNL     1      17.307 -26.259 -18.379  1.00  0.00    -0.360 N 
ATOM     39  H4  UNL     1      16.663 -26.841 -17.843  1.00  0.00     0.162 HD
BRANCH  38  40
HETATM   40  C29 UNL     1      18.541 -26.813 -18.893  1.00  0.00     0.122 C 
BRANCH  40  41
HETATM   41  C30 UNL     1      19.102 -27.747 -17.846  1.00  0.00     0.019 C 
BRANCH  41  42
HETATM   42  C31 UNL     1      19.117 -26.982 -16.535  1.00  0.00    -0.003 C 
HETATM   43  C32 UNL     1      19.107 -27.978 -15.398  1.00  0.00     0.005 C 
ENDBRANCH  41  42
ENDBRANCH  40  41
ENDBRANCH  38  40
ENDBRANCH  10  36
ENDBRANCH   5   7
ENDBRANCH   3   5
TORSDOF 12
ENDMDL
MODEL 3
REMARK VINA RESULT: -10.227754762      2.580      6.916
REMARK  12 active torsions:
REMARK  status: ('A' for Active; 'I' for Inactive)
REMARK    1  A    between atoms: C3_3  and  C5_5 
REMARK    2  A    between atoms: C5_5  and  N1_7 
REMARK    3  A    between atoms: C8_9  and  C9_10 
REMARK    4  A    between atoms: C9_10  and  O1_11 
REMARK    5  A    between atoms: C9_10  and  N2_13 
REMARK    6  A    between atoms: C12_16  and  C13_17 
REMARK    7  A    between atoms: C13_17  and  C14_18 
REMARK    8  A    between atoms: C17_21  and  C19_23 
REMARK       I    between atoms: C19_23  and  N3_25 
REMARK    9  A    between atoms: C27_33  and  C28_34 
REMARK       I    between atoms: C28_34  and  N4_36 
REMARK   10  A    between atoms: N4_36  and  C29_38 
REMARK   11  A    between atoms: C29_38  and  C30_39 
REMARK   12  A    between atoms: C30_39  and  C31_40 
ROOT
HETATM    1  C1  UNL     1      13.806 -20.594 -18.746  1.00  0.00     0.012 C 
HETATM    2  C2  UNL     1      12.950 -20.856 -19.527  1.00  0.00    -0.111 C 
HETATM    3  C3  UNL     1      11.914 -21.175 -20.502  1.00  0.00     0.082 C 
HETATM    4  C4  UNL     1      12.250 -22.501 -21.146  1.00  0.00     0.025 C 
ENDROOT
BRANCH   3   5
HETATM    5  C5  UNL     1      10.552 -21.226 -19.863  1.00  0.00     0.098 C 
HETATM    6  C6  UNL     1      10.559 -21.863 -18.514  1.00  0.00     0.034 C 
BRANCH   5   7
HETATM    7  N1  UNL     1       9.979 -19.902 -19.744  1.00  0.00    -0.345 N 
HETATM    8  C7  UNL     1       9.973 -19.067 -18.563  1.00  0.00     0.140 C 
HETATM    9  C8  UNL     1       8.805 -18.168 -18.755  1.00  0.00     0.100 C 
HETATM   10  C27 UNL     1       8.719 -17.940 -20.239  1.00  0.00     0.183 C 
HETATM   11  C33 UNL     1       9.326 -19.197 -20.774  1.00  0.00     0.234 C 
HETATM   12  O4  UNL     1       9.219 -19.508 -22.008  1.00  0.00    -0.272 OA
BRANCH   9  13
HETATM   13  C9  UNL     1       8.716 -16.987 -17.913  1.00  0.00     0.120 C 
BRANCH  13  14
HETATM   14  O1  UNL     1       8.752 -15.829 -18.520  1.00  0.00    -0.349 OA
ATOM     15  H1  UNL     1       8.704 -15.057 -17.969  1.00  0.00     0.219 HD
ENDBRANCH  13  14
BRANCH  13  16
HETATM   16  N2  UNL     1       8.594 -16.886 -16.509  1.00  0.00    -0.365 N 
HETATM   17  C10 UNL     1       8.853 -15.692 -15.779  1.00  0.00     0.125 C 
HETATM   18  C11 UNL     1       9.407 -15.951 -14.387  1.00  0.00     0.024 C 
HETATM   19  C12 UNL     1      10.005 -17.347 -14.431  1.00  0.00    -0.011 C 
HETATM   20  C25 UNL     1       8.863 -18.290 -14.491  1.00  0.00     0.024 C 
HETATM   21  C26 UNL     1       8.152 -18.121 -15.810  1.00  0.00     0.125 C 
BRANCH  19  22
HETATM   22  C13 UNL     1      11.046 -17.604 -13.425  1.00  0.00     0.009 C 
BRANCH  22  23
HETATM   23  C14 UNL     1      12.331 -18.187 -13.792  1.00  0.00    -0.013 C 
HETATM   24  C15 UNL     1      12.777 -18.166 -15.189  1.00  0.00     0.006 C 
HETATM   25  C16 UNL     1      13.790 -19.315 -15.216  1.00  0.00     0.019 C 
HETATM   26  C17 UNL     1      13.018 -20.407 -14.528  1.00  0.00     0.038 C 
HETATM   27  C18 UNL     1      12.026 -20.909 -15.606  1.00  0.00     0.025 C 
HETATM   28  C24 UNL     1      12.266 -19.684 -13.456  1.00  0.00     0.023 C 
BRANCH  26  29
HETATM   29  C19 UNL     1      13.814 -21.531 -14.051  1.00  0.00     0.228 C 
HETATM   30  O2  UNL     1      13.330 -22.189 -13.061  1.00  0.00    -0.273 OA
HETATM   31  N3  UNL     1      15.041 -21.950 -14.566  1.00  0.00    -0.351 N 
HETATM   32  C20 UNL     1      15.782 -23.099 -14.004  1.00  0.00     0.126 C 
HETATM   33  C23 UNL     1      15.788 -21.421 -15.658  1.00  0.00     0.126 C 
HETATM   34  C21 UNL     1      17.216 -22.837 -14.326  1.00  0.00     0.021 C 
HETATM   35  C22 UNL     1      17.241 -21.807 -15.420  1.00  0.00     0.021 C 
ENDBRANCH  26  29
ENDBRANCH  22  23
ENDBRANCH  19  22
ENDBRANCH  13  16
ENDBRANCH   9  13
BRANCH  10  36
HETATM   36  C28 UNL     1       7.271 -17.930 -20.645  1.00  0.00     0.231 C 
HETATM   37  O3  UNL     1       6.969 -17.356 -21.707  1.00  0.00    -0.273 OA
HETATM   38  N4  UNL     1       6.274 -18.546 -19.866  1.00  0.00    -0.360 N 
ATOM     39  H4  UNL     1       6.518 -19.018 -18.995  1.00  0.00     0.162 HD
BRANCH  38  40
HETATM   40  C29 UNL     1       4.900 -18.503 -20.316  1.00  0.00     0.122 C 
BRANCH  40  41
HETATM   41  C30 UNL     1       4.145 -17.558 -19.411  1.00  0.00     0.019 C 
BRANCH  41  42
HETATM   42  C31 UNL     1       4.927 -17.469 -18.114  1.00  0.00    -0.003 C 
HETATM   43  C32 UNL     1       5.088 -16.011 -17.750  1.00  0.00     0.005 C 
ENDBRANCH  41  42
ENDBRANCH  40  41
ENDBRANCH  38  40
ENDBRANCH  10  36
ENDBRANCH   5   7
ENDBRANCH   3   5
TORSDOF 12
ENDMDL
MODEL 4
REMARK VINA RESULT: -10.207031252      1.687      5.321
REMARK  12 active torsions:
REMARK  status: ('A' for Active; 'I' for Inactive)
REMARK    1  A    between atoms: C3_3  and  C5_5 
REMARK    2  A    between atoms: C5_5  and  N1_7 
REMARK    3  A    between atoms: C8_9  and  C9_10 
REMARK    4  A    between atoms: C9_10  and  O1_11 
REMARK    5  A    between atoms: C9_10  and  N2_13 
REMARK    6  A    between atoms: C12_16  and  C13_17 
REMARK    7  A    between atoms: C13_17  and  C14_18 
REMARK    8  A    between atoms: C17_21  and  C19_23 
REMARK       I    between atoms: C19_23  and  N3_25 
REMARK    9  A    between atoms: C27_33  and  C28_34 
REMARK       I    between atoms: C28_34  and  N4_36 
REMARK   10  A    between atoms: N4_36  and  C29_38 
REMARK   11  A    between atoms: C29_38  and  C30_39 
REMARK   12  A    between atoms: C30_39  and  C31_40 
ROOT
HETATM    1  C1  UNL     1       7.763 -18.123 -21.426  1.00  0.00     0.012 C 
HETATM    2  C2  UNL     1       8.777 -18.638 -21.082  1.00  0.00    -0.111 C 
HETATM    3  C3  UNL     1      10.028 -19.269 -20.679  1.00  0.00     0.082 C 
HETATM    4  C4  UNL     1      11.140 -18.252 -20.798  1.00  0.00     0.025 C 
ENDROOT
BRANCH   3   5
HETATM    5  C5  UNL     1       9.948 -19.806 -19.275  1.00  0.00     0.098 C 
HETATM    6  C6  UNL     1       8.603 -20.350 -18.930  1.00  0.00     0.034 C 
BRANCH   5   7
HETATM    7  N1  UNL     1      10.935 -20.842 -19.054  1.00  0.00    -0.345 N 
HETATM    8  C7  UNL     1      11.834 -20.949 -17.926  1.00  0.00     0.140 C 
HETATM    9  C8  UNL     1      12.978 -21.743 -18.445  1.00  0.00     0.100 C 
HETATM   10  C27 UNL     1      12.381 -22.696 -19.444  1.00  0.00     0.183 C 
HETATM   11  C33 UNL     1      11.183 -21.933 -19.908  1.00  0.00     0.234 C 
HETATM   12  O4  UNL     1      10.533 -22.294 -20.948  1.00  0.00    -0.272 OA
BRANCH   9  13
HETATM   13  C9  UNL     1      13.897 -22.315 -17.475  1.00  0.00     0.120 C 
BRANCH  13  14
HETATM   14  O1  UNL     1      14.453 -23.456 -17.795  1.00  0.00    -0.349 OA
ATOM     15  H1  UNL     1      15.354 -23.423 -18.093  1.00  0.00     0.219 HD
ENDBRANCH  13  14
BRANCH  13  16
HETATM   16  N2  UNL     1      14.298 -21.826 -16.212  1.00  0.00    -0.365 N 
HETATM   17  C10 UNL     1      14.066 -22.515 -14.989  1.00  0.00     0.125 C 
HETATM   18  C11 UNL     1      13.847 -21.582 -13.809  1.00  0.00     0.024 C 
HETATM   19  C12 UNL     1      13.412 -20.254 -14.404  1.00  0.00    -0.011 C 
HETATM   20  C25 UNL     1      14.615 -19.669 -15.044  1.00  0.00     0.024 C 
HETATM   21  C26 UNL     1      15.011 -20.522 -16.223  1.00  0.00     0.125 C 
BRANCH  19  22
HETATM   22  C13 UNL     1      12.639 -19.393 -13.496  1.00  0.00     0.009 C 
BRANCH  22  23
HETATM   23  C14 UNL     1      11.958 -18.198 -13.977  1.00  0.00    -0.013 C 
HETATM   24  C15 UNL     1      11.002 -17.497 -13.113  1.00  0.00     0.006 C 
HETATM   25  C16 UNL     1      10.149 -16.736 -14.134  1.00  0.00     0.019 C 
HETATM   26  C17 UNL     1       9.844 -17.820 -15.131  1.00  0.00     0.038 C 
HETATM   27  C18 UNL     1       8.740 -18.665 -14.448  1.00  0.00     0.025 C 
HETATM   28  C24 UNL     1      11.112 -18.611 -15.190  1.00  0.00     0.023 C 
BRANCH  26  29
HETATM   29  C19 UNL     1       9.360 -17.361 -16.427  1.00  0.00     0.228 C 
HETATM   30  O2  UNL     1      10.239 -17.253 -17.355  1.00  0.00    -0.273 OA
HETATM   31  N3  UNL     1       8.042 -17.030 -16.744  1.00  0.00    -0.351 N 
HETATM   32  C20 UNL     1       7.649 -16.558 -18.089  1.00  0.00     0.126 C 
HETATM   33  C23 UNL     1       6.879 -17.074 -15.923  1.00  0.00     0.126 C 
HETATM   34  C21 UNL     1       6.428 -15.727 -17.873  1.00  0.00     0.021 C 
HETATM   35  C22 UNL     1       5.889 -16.081 -16.516  1.00  0.00     0.021 C 
ENDBRANCH  26  29
ENDBRANCH  22  23
ENDBRANCH  19  22
ENDBRANCH  13  16
ENDBRANCH   9  13
BRANCH  10  36
HETATM   36  C28 UNL     1      13.318 -22.822 -20.613  1.00  0.00     0.231 C 
HETATM   37  O3  UNL     1      13.402 -21.860 -21.397  1.00  0.00    -0.273 OA
HETATM   38  N4  UNL     1      14.087 -23.981 -20.830  1.00  0.00    -0.360 N 
ATOM     39  H4  UNL     1      14.022 -24.772 -20.190  1.00  0.00     0.162 HD
BRANCH  38  40
HETATM   40  C29 UNL     1      14.972 -24.035 -21.973  1.00  0.00     0.122 C 
BRANCH  40  41
HETATM   41  C30 UNL     1      16.249 -24.716 -21.540  1.00  0.00     0.019 C 
BRANCH  41  42
HETATM   42  C31 UNL     1      15.925 -25.502 -20.281  1.00  0.00    -0.003 C 
HETATM   43  C32 UNL     1      17.218 -25.806 -19.559  1.00  0.00     0.005 C 
ENDBRANCH  41  42
ENDBRANCH  40  41
ENDBRANCH  38  40
ENDBRANCH  10  36
ENDBRANCH   5   7
ENDBRANCH   3   5
TORSDOF 12
ENDMDL
MODEL 5
REMARK VINA RESULT: -10.161415383      2.960      7.338
REMARK  12 active torsions:
REMARK  status: ('A' for Active; 'I' for Inactive)
REMARK    1  A    between atoms: C3_3  and  C5_5 
REMARK    2  A    between atoms: C5_5  and  N1_7 
REMARK    3  A    between atoms: C8_9  and  C9_10 
REMARK    4  A    between atoms: C9_10  and  O1_11 
REMARK    5  A    between atoms: C9_10  and  N2_13 
REMARK    6  A    between atoms: C12_16  and  C13_17 
REMARK    7  A    between atoms: C13_17  and  C14_18 
REMARK    8  A    between atoms: C17_21  and  C19_23 
REMARK       I    between atoms: C19_23  and  N3_25 
REMARK    9  A    between atoms: C27_33  and  C28_34 
REMARK       I    between atoms: C28_34  and  N4_36 
REMARK   10  A    between atoms: N4_36  and  C29_38 
REMARK   11  A    between atoms: C29_38  and  C30_39 
REMARK   12  A    between atoms: C30_39  and  C31_40 
ROOT
HETATM    1  C1  UNL     1      12.850 -20.462 -12.630  1.00  0.00     0.012 C 
HETATM    2  C2  UNL     1      13.390 -20.668 -13.669  1.00  0.00    -0.111 C 
HETATM    3  C3  UNL     1      14.035 -20.912 -14.952  1.00  0.00     0.082 C 
HETATM    4  C4  UNL     1      14.472 -19.585 -15.532  1.00  0.00     0.025 C 
ENDROOT
BRANCH   3   5
HETATM    5  C5  UNL     1      15.211 -21.841 -14.811  1.00  0.00     0.098 C 
HETATM    6  C6  UNL     1      14.927 -23.021 -13.945  1.00  0.00     0.034 C 
BRANCH   5   7
HETATM    7  N1  UNL     1      15.663 -22.315 -16.102  1.00  0.00    -0.345 N 
HETATM    8  C7  UNL     1      14.844 -22.536 -17.274  1.00  0.00     0.140 C 
HETATM    9  C8  UNL     1      15.600 -23.545 -18.063  1.00  0.00     0.100 C 
HETATM   10  C27 UNL     1      17.051 -23.251 -17.799  1.00  0.00     0.183 C 
HETATM   11  C33 UNL     1      16.992 -22.638 -16.437  1.00  0.00     0.234 C 
HETATM   12  O4  UNL     1      18.051 -22.469 -15.743  1.00  0.00    -0.272 OA
BRANCH   9  13
HETATM   13  C9  UNL     1      15.221 -23.737 -19.452  1.00  0.00     0.120 C 
BRANCH  13  14
HETATM   14  O1  UNL     1      16.192 -23.961 -20.300  1.00  0.00    -0.349 OA
ATOM     15  H1  UNL     1      16.034 -23.717 -21.204  1.00  0.00     0.219 HD
ENDBRANCH  13  14
BRANCH  13  16
HETATM   16  N2  UNL     1      13.941 -23.721 -20.051  1.00  0.00    -0.365 N 
HETATM   17  C10 UNL     1      13.723 -23.520 -21.442  1.00  0.00     0.125 C 
HETATM   18  C11 UNL     1      12.421 -22.797 -21.746  1.00  0.00     0.024 C 
HETATM   19  C12 UNL     1      12.051 -22.056 -20.472  1.00  0.00    -0.011 C 
HETATM   20  C25 UNL     1      11.615 -23.087 -19.500  1.00  0.00     0.024 C 
HETATM   21  C26 UNL     1      12.796 -23.947 -19.130  1.00  0.00     0.125 C 
BRANCH  19  22
HETATM   22  C13 UNL     1      11.173 -20.892 -20.668  1.00  0.00     0.009 C 
BRANCH  22  23
HETATM   23  C14 UNL     1      11.245 -19.730 -19.792  1.00  0.00    -0.013 C 
HETATM   24  C15 UNL     1      12.341 -19.602 -18.825  1.00  0.00     0.006 C 
HETATM   25  C16 UNL     1      11.745 -18.638 -17.794  1.00  0.00     0.019 C 
HETATM   26  C17 UNL     1      10.394 -19.255 -17.557  1.00  0.00     0.038 C 
HETATM   27  C18 UNL     1      10.687 -20.469 -16.640  1.00  0.00     0.025 C 
HETATM   28  C24 UNL     1       9.987 -19.742 -18.912  1.00  0.00     0.023 C 
BRANCH  26  29
HETATM   29  C19 UNL     1       9.416 -18.392 -16.909  1.00  0.00     0.228 C 
HETATM   30  O2  UNL     1       8.301 -18.238 -17.523  1.00  0.00    -0.273 OA
HETATM   31  N3  UNL     1       9.583 -17.723 -15.694  1.00  0.00    -0.351 N 
HETATM   32  C20 UNL     1       8.533 -16.855 -15.121  1.00  0.00     0.126 C 
HETATM   33  C23 UNL     1      10.697 -17.732 -14.807  1.00  0.00     0.126 C 
HETATM   34  C21 UNL     1       9.261 -15.871 -14.267  1.00  0.00     0.021 C 
HETATM   35  C22 UNL     1      10.628 -16.437 -14.009  1.00  0.00     0.021 C 
ENDBRANCH  26  29
ENDBRANCH  22  23
ENDBRANCH  19  22
ENDBRANCH  13  16
ENDBRANCH   9  13
BRANCH  10  36
HETATM   36  C28 UNL     1      17.795 -24.552 -17.677  1.00  0.00     0.231 C 
HETATM   37  O3  UNL     1      18.455 -24.939 -18.658  1.00  0.00    -0.273 OA
HETATM   38  N4  UNL     1      17.762 -25.322 -16.499  1.00  0.00    -0.360 N 
ATOM     39  H4  UNL     1      17.223 -25.009 -15.692  1.00  0.00     0.162 HD
BRANCH  38  40
HETATM   40  C29 UNL     1      18.504 -26.563 -16.447  1.00  0.00     0.122 C 
BRANCH  40  41
HETATM   41  C30 UNL     1      18.555 -27.013 -15.006  1.00  0.00     0.019 C 
BRANCH  41  42
HETATM   42  C31 UNL     1      17.976 -25.886 -14.171  1.00  0.00    -0.003 C 
HETATM   43  C32 UNL     1      17.205 -26.490 -13.018  1.00  0.00     0.005 C 
ENDBRANCH  41  42
ENDBRANCH  40  41
ENDBRANCH  38  40
ENDBRANCH  10  36
ENDBRANCH   5   7
ENDBRANCH   3   5
TORSDOF 12
ENDMDL
