MODEL 1
REMARK VINA RESULT: -9.698121640      0.000      0.000
REMARK  12 active torsions:
REMARK  status: ('A' for Active; 'I' for Inactive)
REMARK    1  A    between atoms: C2_2  and  C3_3 
REMARK    2  A    between atoms: C3_3  and  C4_4 
REMARK    3  A    between atoms: C4_4  and  N1_5 
REMARK    4  A    between atoms: N1_5  and  C5_6 
REMARK    5  A    between atoms: N1_5  and  C26_35 
REMARK    6  A    between atoms: C5_6  and  O1_7 
REMARK    7  A    between atoms: C5_6  and  C6_9 
REMARK    8  A    between atoms: C6_9  and  C7_10 
REMARK    9  A    between atoms: C6_9  and  N2_17 
REMARK   10  A    between atoms: C7_10  and  C8_11 
REMARK       I    between atoms: N2_17  and  C14_19 
REMARK   11  A    between atoms: C14_19  and  C15_21 
REMARK       I    between atoms: N3_24  and  C18_25 
REMARK   12  A    between atoms: C18_25  and  C19_27 
ROOT
HETATM    1  C6  UNL     1      14.568 -19.916 -16.653  1.00  0.00     0.082 C 
ENDROOT
BRANCH   1   2
HETATM    2  C5  UNL     1      14.305 -20.519 -17.889  1.00  0.00     0.165 C 
BRANCH   2   3
HETATM    3  N1  UNL     1      13.746 -21.671 -18.448  1.00  0.00    -0.355 N 
BRANCH   3   4
HETATM    4  C4  UNL     1      12.310 -21.888 -18.342  1.00  0.00     0.125 C 
BRANCH   4   5
HETATM    5  C3  UNL     1      11.445 -20.960 -19.085  1.00  0.00     0.020 C 
BRANCH   5   6
HETATM    6  C2  UNL     1      11.520 -20.951 -20.568  1.00  0.00    -0.003 C 
HETATM    7  C1  UNL     1      11.231 -22.343 -21.148  1.00  0.00     0.005 C 
ENDBRANCH   5   6
ENDBRANCH   4   5
ENDBRANCH   3   4
BRANCH   3   8
HETATM    8  C26 UNL     1      14.546 -22.683 -19.063  1.00  0.00     0.089 C 
HETATM    9  C27 UNL     1      13.975 -24.070 -19.076  1.00  0.00     0.053 C 
HETATM   10  C28 UNL     1      14.874 -24.920 -19.917  1.00  0.00     0.238 C 
HETATM   11  N5  UNL     1      16.261 -24.796 -19.754  1.00  0.00    -0.075 N 
HETATM   12  C29 UNL     1      16.779 -26.093 -19.274  1.00  0.00     0.272 C 
HETATM   13  C30 UNL     1      16.856 -24.699 -21.105  1.00  0.00     0.272 C 
HETATM   14  C31 UNL     1      16.802 -23.768 -18.949  1.00  0.00     0.238 C 
HETATM   15  C32 UNL     1      15.829 -22.903 -18.220  1.00  0.00     0.053 C 
ENDBRANCH   3   8
ENDBRANCH   2   3
BRANCH   2  16
HETATM   16  O1  UNL     1      14.725 -19.709 -18.899  1.00  0.00    -0.344 OA
ATOM     17  H1  UNL     1      14.592 -18.805 -18.636  1.00  0.00     0.219 HD
ENDBRANCH   2  16
ENDBRANCH   1   2
BRANCH   1  18
HETATM   18  C7  UNL     1      15.421 -20.184 -15.533  1.00  0.00     0.012 C 
BRANCH  18  19
HETATM   19  C8  UNL     1      15.782 -21.546 -15.094  1.00  0.00     0.010 C 
HETATM   20  C9  UNL     1      17.170 -21.926 -14.804  1.00  0.00     0.008 C 
HETATM   21  C10 UNL     1      17.255 -23.468 -14.745  1.00  0.00     0.001 C 
HETATM   22  C11 UNL     1      16.412 -23.941 -13.608  1.00  0.00     0.000 C 
HETATM   23  C12 UNL     1      14.980 -23.468 -13.809  1.00  0.00     0.001 C 
HETATM   24  C13 UNL     1      14.943 -21.959 -13.867  1.00  0.00     0.008 C 
ENDBRANCH  18  19
ENDBRANCH   1  18
BRANCH   1  25
HETATM   25  N2  UNL     1      13.351 -19.186 -16.213  1.00  0.00    -0.323 N 
HETATM   26  C14 UNL     1      12.295 -19.744 -15.491  1.00  0.00     0.226 C 
HETATM   27  O2  UNL     1      12.356 -20.963 -15.182  1.00  0.00    -0.273 OA
ATOM     28  H2  UNL     1      13.282 -18.198 -16.458  1.00  0.00     0.169 HD
BRANCH  26  29
HETATM   29  C15 UNL     1      11.117 -18.968 -15.075  1.00  0.00     0.081 C 
HETATM   30  C16 UNL     1       9.941 -19.411 -15.925  1.00  0.00     0.034 C 
HETATM   31  C17 UNL     1       9.420 -18.192 -16.651  1.00  0.00     0.126 C 
HETATM   32  N3  UNL     1       9.022 -17.238 -15.649  1.00  0.00    -0.350 N 
HETATM   33  C18 UNL     1       7.728 -16.706 -15.609  1.00  0.00     0.253 C 
HETATM   34  C24 UNL     1      10.012 -16.839 -14.675  1.00  0.00     0.126 C 
HETATM   35  O3  UNL     1       7.440 -15.864 -14.706  1.00  0.00    -0.271 OA
HETATM   36  C25 UNL     1      11.335 -17.476 -15.097  1.00  0.00     0.034 C 
BRANCH  33  37
HETATM   37  C19 UNL     1       6.647 -17.061 -16.565  1.00  0.00     0.313 C 
HETATM   38  C20 UNL     1       5.291 -17.093 -15.899  1.00  0.00     0.047 C 
HETATM   39  C21 UNL     1       4.953 -15.605 -15.802  1.00  0.00     0.033 C 
HETATM   40  C22 UNL     1       5.723 -14.957 -16.932  1.00  0.00     0.273 C 
HETATM   41  N4  UNL     1       6.453 -16.023 -17.558  1.00  0.00     0.098 N 
HETATM   42  C23 UNL     1       7.659 -15.593 -18.201  1.00  0.00     0.310 C 
ENDBRANCH  33  37
ENDBRANCH  26  29
ENDBRANCH   1  25
TORSDOF 12
ENDMDL
MODEL 2
REMARK VINA RESULT: -9.609491997      1.108      1.419
REMARK  12 active torsions:
REMARK  status: ('A' for Active; 'I' for Inactive)
REMARK    1  A    between atoms: C2_2  and  C3_3 
REMARK    2  A    between atoms: C3_3  and  C4_4 
REMARK    3  A    between atoms: C4_4  and  N1_5 
REMARK    4  A    between atoms: N1_5  and  C5_6 
REMARK    5  A    between atoms: N1_5  and  C26_35 
REMARK    6  A    between atoms: C5_6  and  O1_7 
REMARK    7  A    between atoms: C5_6  and  C6_9 
REMARK    8  A    between atoms: C6_9  and  C7_10 
REMARK    9  A    between atoms: C6_9  and  N2_17 
REMARK   10  A    between atoms: C7_10  and  C8_11 
REMARK       I    between atoms: N2_17  and  C14_19 
REMARK   11  A    between atoms: C14_19  and  C15_21 
REMARK       I    between atoms: N3_24  and  C18_25 
REMARK   12  A    between atoms: C18_25  and  C19_27 
ROOT
HETATM    1  C6  UNL     1      14.045 -20.007 -17.006  1.00  0.00     0.082 C 
ENDROOT
BRANCH   1   2
HETATM    2  C5  UNL     1      14.191 -20.619 -18.257  1.00  0.00     0.165 C 
BRANCH   2   3
HETATM    3  N1  UNL     1      13.800 -21.754 -18.972  1.00  0.00    -0.355 N 
BRANCH   3   4
HETATM    4  C4  UNL     1      12.402 -21.907 -19.353  1.00  0.00     0.125 C 
BRANCH   4   5
HETATM    5  C3  UNL     1      12.072 -21.658 -20.764  1.00  0.00     0.020 C 
BRANCH   5   6
HETATM    6  C2  UNL     1      11.631 -22.801 -21.603  1.00  0.00    -0.003 C 
HETATM    7  C1  UNL     1      12.802 -23.391 -22.402  1.00  0.00     0.005 C 
ENDBRANCH   5   6
ENDBRANCH   4   5
ENDBRANCH   3   4
BRANCH   3   8
HETATM    8  C26 UNL     1      14.713 -22.807 -19.286  1.00  0.00     0.089 C 
HETATM    9  C27 UNL     1      14.200 -24.207 -19.119  1.00  0.00     0.053 C 
HETATM   10  C28 UNL     1      15.237 -25.135 -19.670  1.00  0.00     0.238 C 
HETATM   11  N5  UNL     1      16.583 -24.900 -19.358  1.00  0.00    -0.075 N 
HETATM   12  C29 UNL     1      17.079 -26.059 -18.589  1.00  0.00     0.272 C 
HETATM   13  C30 UNL     1      17.351 -25.006 -20.618  1.00  0.00     0.272 C 
HETATM   14  C31 UNL     1      16.971 -23.716 -18.692  1.00  0.00     0.238 C 
HETATM   15  C32 UNL     1      15.876 -22.798 -18.262  1.00  0.00     0.053 C 
ENDBRANCH   3   8
ENDBRANCH   2   3
BRANCH   2  16
HETATM   16  O1  UNL     1      14.972 -19.848 -19.061  1.00  0.00    -0.344 OA
ATOM     17  H1  UNL     1      15.432 -20.415 -19.670  1.00  0.00     0.219 HD
ENDBRANCH   2  16
ENDBRANCH   1   2
BRANCH   1  18
HETATM   18  C7  UNL     1      14.687 -20.102 -15.727  1.00  0.00     0.012 C 
BRANCH  18  19
HETATM   19  C8  UNL     1      15.361 -21.323 -15.245  1.00  0.00     0.010 C 
HETATM   20  C9  UNL     1      16.794 -21.345 -14.928  1.00  0.00     0.008 C 
HETATM   21  C10 UNL     1      17.251 -22.819 -14.823  1.00  0.00     0.001 C 
HETATM   22  C11 UNL     1      16.528 -23.454 -13.684  1.00  0.00     0.000 C 
HETATM   23  C12 UNL     1      15.028 -23.350 -13.915  1.00  0.00     0.001 C 
HETATM   24  C13 UNL     1      14.625 -21.898 -14.017  1.00  0.00     0.008 C 
ENDBRANCH  18  19
ENDBRANCH   1  18
BRANCH   1  25
HETATM   25  N2  UNL     1      12.629 -19.592 -16.843  1.00  0.00    -0.323 N 
HETATM   26  C14 UNL     1      11.613 -20.387 -16.308  1.00  0.00     0.226 C 
HETATM   27  O2  UNL     1      11.898 -21.553 -15.932  1.00  0.00    -0.273 OA
ATOM     28  H2  UNL     1      12.378 -18.651 -17.146  1.00  0.00     0.169 HD
BRANCH  26  29
HETATM   29  C15 UNL     1      10.227 -19.917 -16.164  1.00  0.00     0.081 C 
HETATM   30  C16 UNL     1       9.807 -19.289 -17.480  1.00  0.00     0.034 C 
HETATM   31  C17 UNL     1       9.414 -17.858 -17.194  1.00  0.00     0.126 C 
HETATM   32  N3  UNL     1       8.326 -17.895 -16.253  1.00  0.00    -0.350 N 
HETATM   33  C18 UNL     1       7.099 -17.275 -16.517  1.00  0.00     0.253 C 
HETATM   34  C24 UNL     1       8.543 -18.597 -15.009  1.00  0.00     0.126 C 
HETATM   35  O3  UNL     1       6.183 -17.337 -15.644  1.00  0.00    -0.271 OA
HETATM   36  C25 UNL     1      10.014 -19.008 -14.979  1.00  0.00     0.034 C 
BRANCH  33  37
HETATM   37  C19 UNL     1       6.786 -16.536 -17.768  1.00  0.00     0.313 C 
HETATM   38  C20 UNL     1       6.258 -17.451 -18.848  1.00  0.00     0.047 C 
HETATM   39  C21 UNL     1       4.809 -17.657 -18.404  1.00  0.00     0.033 C 
HETATM   40  C22 UNL     1       4.468 -16.420 -17.602  1.00  0.00     0.273 C 
HETATM   41  N4  UNL     1       5.669 -15.632 -17.586  1.00  0.00     0.098 N 
HETATM   42  C23 UNL     1       5.781 -14.781 -16.439  1.00  0.00     0.310 C 
ENDBRANCH  33  37
ENDBRANCH  26  29
ENDBRANCH   1  25
TORSDOF 12
ENDMDL
MODEL 3
REMARK VINA RESULT: -9.499007917      1.965      4.982
REMARK  12 active torsions:
REMARK  status: ('A' for Active; 'I' for Inactive)
REMARK    1  A    between atoms: C2_2  and  C3_3 
REMARK    2  A    between atoms: C3_3  and  C4_4 
REMARK    3  A    between atoms: C4_4  and  N1_5 
REMARK    4  A    between atoms: N1_5  and  C5_6 
REMARK    5  A    between atoms: N1_5  and  C26_35 
REMARK    6  A    between atoms: C5_6  and  O1_7 
REMARK    7  A    between atoms: C5_6  and  C6_9 
REMARK    8  A    between atoms: C6_9  and  C7_10 
REMARK    9  A    between atoms: C6_9  and  N2_17 
REMARK   10  A    between atoms: C7_10  and  C8_11 
REMARK       I    between atoms: N2_17  and  C14_19 
REMARK   11  A    between atoms: C14_19  and  C15_21 
REMARK       I    between atoms: N3_24  and  C18_25 
REMARK   12  A    between atoms: C18_25  and  C19_27 
ROOT
HETATM    1  C6  UNL     1      13.626 -22.777 -17.905  1.00  0.00     0.082 C 
ENDROOT
BRANCH   1   2
HETATM    2  C5  UNL     1      14.647 -22.067 -17.262  1.00  0.00     0.165 C 
BRANCH   2   3
HETATM    3  N1  UNL     1      15.116 -21.739 -15.988  1.00  0.00    -0.355 N 
BRANCH   3   4
HETATM    4  C4  UNL     1      15.050 -20.354 -15.541  1.00  0.00     0.125 C 
BRANCH   4   5
HETATM    5  C3  UNL     1      13.729 -19.709 -15.583  1.00  0.00     0.020 C 
BRANCH   5   6
HETATM    6  C2  UNL     1      12.654 -20.232 -14.704  1.00  0.00    -0.003 C 
HETATM    7  C1  UNL     1      13.018 -20.068 -13.221  1.00  0.00     0.005 C 
ENDBRANCH   5   6
ENDBRANCH   4   5
ENDBRANCH   3   4
BRANCH   3   8
HETATM    8  C26 UNL     1      15.724 -22.706 -15.129  1.00  0.00     0.089 C 
HETATM    9  C27 UNL     1      14.945 -23.096 -13.908  1.00  0.00     0.053 C 
HETATM   10  C28 UNL     1      15.666 -24.236 -13.258  1.00  0.00     0.238 C 
HETATM   11  N5  UNL     1      17.061 -24.167 -13.139  1.00  0.00    -0.075 N 
HETATM   12  C29 UNL     1      17.394 -24.160 -11.700  1.00  0.00     0.272 C 
HETATM   13  C30 UNL     1      17.605 -25.470 -13.582  1.00  0.00     0.272 C 
HETATM   14  C31 UNL     1      17.788 -23.135 -13.775  1.00  0.00     0.238 C 
HETATM   15  C32 UNL     1      16.992 -22.090 -14.483  1.00  0.00     0.053 C 
ENDBRANCH   3   8
ENDBRANCH   2   3
BRANCH   2  16
HETATM   16  O1  UNL     1      15.476 -21.509 -18.186  1.00  0.00    -0.344 OA
ATOM     17  H1  UNL     1      14.947 -21.038 -18.820  1.00  0.00     0.219 HD
ENDBRANCH   2  16
ENDBRANCH   1   2
BRANCH   1  18
HETATM   18  C7  UNL     1      13.551 -23.856 -18.846  1.00  0.00     0.012 C 
BRANCH  18  19
HETATM   19  C8  UNL     1      14.717 -24.362 -19.597  1.00  0.00     0.010 C 
HETATM   20  C9  UNL     1      15.331 -25.660 -19.294  1.00  0.00     0.008 C 
HETATM   21  C10 UNL     1      16.718 -25.719 -19.976  1.00  0.00     0.001 C 
HETATM   22  C11 UNL     1      16.517 -25.650 -21.452  1.00  0.00     0.000 C 
HETATM   23  C12 UNL     1      15.777 -24.368 -21.802  1.00  0.00     0.001 C 
HETATM   24  C13 UNL     1      14.432 -24.348 -21.112  1.00  0.00     0.008 C 
ENDBRANCH  18  19
ENDBRANCH   1  18
BRANCH   1  25
HETATM   25  N2  UNL     1      12.444 -21.888 -18.045  1.00  0.00    -0.323 N 
HETATM   26  C14 UNL     1      12.223 -21.003 -19.101  1.00  0.00     0.226 C 
HETATM   27  O2  UNL     1      13.083 -20.933 -20.017  1.00  0.00    -0.273 OA
ATOM     28  H2  UNL     1      11.738 -21.928 -17.309  1.00  0.00     0.169 HD
BRANCH  26  29
HETATM   29  C15 UNL     1      11.027 -20.151 -19.188  1.00  0.00     0.081 C 
HETATM   30  C16 UNL     1      11.280 -18.903 -18.364  1.00  0.00     0.034 C 
HETATM   31  C17 UNL     1      10.202 -18.831 -17.306  1.00  0.00     0.126 C 
HETATM   32  N3  UNL     1       8.938 -18.767 -17.992  1.00  0.00    -0.350 N 
HETATM   33  C18 UNL     1       8.028 -17.728 -17.767  1.00  0.00     0.253 C 
HETATM   34  C24 UNL     1       8.631 -19.824 -18.928  1.00  0.00     0.126 C 
HETATM   35  O3  UNL     1       6.928 -17.732 -18.396  1.00  0.00    -0.271 OA
HETATM   36  C25 UNL     1       9.749 -20.859 -18.814  1.00  0.00     0.034 C 
BRANCH  33  37
HETATM   37  C19 UNL     1       8.260 -16.600 -16.827  1.00  0.00     0.313 C 
HETATM   38  C20 UNL     1       7.621 -15.320 -17.312  1.00  0.00     0.047 C 
HETATM   39  C21 UNL     1       6.152 -15.545 -16.950  1.00  0.00     0.033 C 
HETATM   40  C22 UNL     1       6.183 -16.507 -15.783  1.00  0.00     0.273 C 
HETATM   41  N4  UNL     1       7.571 -16.805 -15.570  1.00  0.00     0.098 N 
HETATM   42  C23 UNL     1       7.798 -18.091 -14.978  1.00  0.00     0.310 C 
ENDBRANCH  33  37
ENDBRANCH  26  29
ENDBRANCH   1  25
TORSDOF 12
ENDMDL
MODEL 4
REMARK VINA RESULT: -9.432399807      0.572      1.315
REMARK  12 active torsions:
REMARK  status: ('A' for Active; 'I' for Inactive)
REMARK    1  A    between atoms: C2_2  and  C3_3 
REMARK    2  A    between atoms: C3_3  and  C4_4 
REMARK    3  A    between atoms: C4_4  and  N1_5 
REMARK    4  A    between atoms: N1_5  and  C5_6 
REMARK    5  A    between atoms: N1_5  and  C26_35 
REMARK    6  A    between atoms: C5_6  and  O1_7 
REMARK    7  A    between atoms: C5_6  and  C6_9 
REMARK    8  A    between atoms: C6_9  and  C7_10 
REMARK    9  A    between atoms: C6_9  and  N2_17 
REMARK   10  A    between atoms: C7_10  and  C8_11 
REMARK       I    between atoms: N2_17  and  C14_19 
REMARK   11  A    between atoms: C14_19  and  C15_21 
REMARK       I    between atoms: N3_24  and  C18_25 
REMARK   12  A    between atoms: C18_25  and  C19_27 
ROOT
HETATM    1  C6  UNL     1      14.246 -20.043 -16.584  1.00  0.00     0.082 C 
ENDROOT
BRANCH   1   2
HETATM    2  C5  UNL     1      13.909 -20.865 -17.666  1.00  0.00     0.165 C 
BRANCH   2   3
HETATM    3  N1  UNL     1      13.556 -22.182 -17.972  1.00  0.00    -0.355 N 
BRANCH   3   4
HETATM    4  C4  UNL     1      12.170 -22.600 -17.815  1.00  0.00     0.125 C 
BRANCH   4   5
HETATM    5  C3  UNL     1      11.147 -21.737 -18.423  1.00  0.00     0.020 C 
BRANCH   5   6
HETATM    6  C2  UNL     1      10.444 -22.215 -19.639  1.00  0.00    -0.003 C 
HETATM    7  C1  UNL     1      11.204 -21.820 -20.914  1.00  0.00     0.005 C 
ENDBRANCH   5   6
ENDBRANCH   4   5
ENDBRANCH   3   4
BRANCH   3   8
HETATM    8  C26 UNL     1      14.523 -23.156 -18.369  1.00  0.00     0.089 C 
HETATM    9  C27 UNL     1      15.906 -22.648 -18.649  1.00  0.00     0.053 C 
HETATM   10  C28 UNL     1      16.789 -23.837 -18.864  1.00  0.00     0.238 C 
HETATM   11  N5  UNL     1      16.315 -24.889 -19.660  1.00  0.00    -0.075 N 
HETATM   12  C29 UNL     1      17.199 -25.001 -20.838  1.00  0.00     0.272 C 
HETATM   13  C30 UNL     1      16.595 -26.149 -18.936  1.00  0.00     0.272 C 
HETATM   14  C31 UNL     1      14.973 -24.911 -20.100  1.00  0.00     0.238 C 
HETATM   15  C32 UNL     1      14.134 -23.725 -19.758  1.00  0.00     0.053 C 
ENDBRANCH   3   8
ENDBRANCH   2   3
BRANCH   2  16
HETATM   16  O1  UNL     1      13.917 -20.141 -18.818  1.00  0.00    -0.344 OA
ATOM     17  H1  UNL     1      14.796 -19.813 -18.963  1.00  0.00     0.219 HD
ENDBRANCH   2  16
ENDBRANCH   1   2
BRANCH   1  18
HETATM   18  C7  UNL     1      15.202 -20.080 -15.516  1.00  0.00     0.012 C 
BRANCH  18  19
HETATM   19  C8  UNL     1      15.577 -21.317 -14.804  1.00  0.00     0.010 C 
HETATM   20  C9  UNL     1      14.714 -22.504 -14.803  1.00  0.00     0.008 C 
HETATM   21  C10 UNL     1      15.195 -23.460 -13.687  1.00  0.00     0.001 C 
HETATM   22  C11 UNL     1      16.578 -23.910 -14.018  1.00  0.00     0.000 C 
HETATM   23  C12 UNL     1      17.487 -22.697 -14.144  1.00  0.00     0.001 C 
HETATM   24  C13 UNL     1      16.980 -21.787 -15.239  1.00  0.00     0.008 C 
ENDBRANCH  18  19
ENDBRANCH   1  18
BRANCH   1  25
HETATM   25  N2  UNL     1      13.039 -19.284 -16.171  1.00  0.00    -0.323 N 
HETATM   26  C14 UNL     1      12.032 -19.766 -15.334  1.00  0.00     0.226 C 
HETATM   27  O2  UNL     1      12.133 -20.937 -14.885  1.00  0.00    -0.273 OA
ATOM     28  H2  UNL     1      12.937 -18.333 -16.528  1.00  0.00     0.169 HD
BRANCH  26  29
HETATM   29  C15 UNL     1      10.860 -18.962 -14.952  1.00  0.00     0.081 C 
HETATM   30  C16 UNL     1       9.692 -19.401 -15.814  1.00  0.00     0.034 C 
HETATM   31  C17 UNL     1       9.204 -18.186 -16.571  1.00  0.00     0.126 C 
HETATM   32  N3  UNL     1       8.805 -17.208 -15.594  1.00  0.00    -0.350 N 
HETATM   33  C18 UNL     1       7.521 -16.654 -15.586  1.00  0.00     0.253 C 
HETATM   34  C24 UNL     1       9.785 -16.808 -14.610  1.00  0.00     0.126 C 
HETATM   35  O3  UNL     1       7.232 -15.791 -14.704  1.00  0.00    -0.271 OA
HETATM   36  C25 UNL     1      11.104 -17.475 -14.998  1.00  0.00     0.034 C 
BRANCH  33  37
HETATM   37  C19 UNL     1       6.449 -17.007 -16.554  1.00  0.00     0.313 C 
HETATM   38  C20 UNL     1       5.085 -17.027 -15.906  1.00  0.00     0.047 C 
HETATM   39  C21 UNL     1       4.756 -15.536 -15.823  1.00  0.00     0.033 C 
HETATM   40  C22 UNL     1       5.544 -14.901 -16.947  1.00  0.00     0.273 C 
HETATM   41  N4  UNL     1       6.276 -15.975 -17.556  1.00  0.00     0.098 N 
HETATM   42  C23 UNL     1       7.493 -15.557 -18.186  1.00  0.00     0.310 C 
ENDBRANCH  33  37
ENDBRANCH  26  29
ENDBRANCH   1  25
TORSDOF 12
ENDMDL
MODEL 5
REMARK VINA RESULT: -9.407903479      1.567      3.721
REMARK  12 active torsions:
REMARK  status: ('A' for Active; 'I' for Inactive)
REMARK    1  A    between atoms: C2_2  and  C3_3 
REMARK    2  A    between atoms: C3_3  and  C4_4 
REMARK    3  A    between atoms: C4_4  and  N1_5 
REMARK    4  A    between atoms: N1_5  and  C5_6 
REMARK    5  A    between atoms: N1_5  and  C26_35 
REMARK    6  A    between atoms: C5_6  and  O1_7 
REMARK    7  A    between atoms: C5_6  and  C6_9 
REMARK    8  A    between atoms: C6_9  and  C7_10 
REMARK    9  A    between atoms: C6_9  and  N2_17 
REMARK   10  A    between atoms: C7_10  and  C8_11 
REMARK       I    between atoms: N2_17  and  C14_19 
REMARK   11  A    between atoms: C14_19  and  C15_21 
REMARK       I    between atoms: N3_24  and  C18_25 
REMARK   12  A    between atoms: C18_25  and  C19_27 
ROOT
HETATM    1  C6  UNL     1      13.482 -21.016 -16.349  1.00  0.00     0.082 C 
ENDROOT
BRANCH   1   2
HETATM    2  C5  UNL     1      13.747 -20.764 -17.701  1.00  0.00     0.165 C 
BRANCH   2   3
HETATM    3  N1  UNL     1      13.260 -21.038 -18.981  1.00  0.00    -0.355 N 
BRANCH   3   4
HETATM    4  C4  UNL     1      13.999 -21.952 -19.842  1.00  0.00     0.125 C 
BRANCH   4   5
HETATM    5  C3  UNL     1      13.506 -22.106 -21.219  1.00  0.00     0.020 C 
BRANCH   5   6
HETATM    6  C2  UNL     1      13.790 -23.373 -21.938  1.00  0.00    -0.003 C 
HETATM    7  C1  UNL     1      14.483 -24.391 -21.020  1.00  0.00     0.005 C 
ENDBRANCH   5   6
ENDBRANCH   4   5
ENDBRANCH   3   4
BRANCH   3   8
HETATM    8  C26 UNL     1      12.093 -20.400 -19.504  1.00  0.00     0.089 C 
HETATM    9  C27 UNL     1      11.772 -19.042 -18.953  1.00  0.00     0.053 C 
HETATM   10  C28 UNL     1      10.638 -18.486 -19.757  1.00  0.00     0.238 C 
HETATM   11  N5  UNL     1       9.561 -19.327 -20.069  1.00  0.00    -0.075 N 
HETATM   12  C29 UNL     1       8.352 -18.771 -19.430  1.00  0.00     0.272 C 
HETATM   13  C30 UNL     1       9.267 -19.149 -21.508  1.00  0.00     0.272 C 
HETATM   14  C31 UNL     1       9.623 -20.711 -19.790  1.00  0.00     0.238 C 
HETATM   15  C32 UNL     1      10.837 -21.197 -19.069  1.00  0.00     0.053 C 
ENDBRANCH   3   8
ENDBRANCH   2   3
BRANCH   2  16
HETATM   16  O1  UNL     1      14.851 -19.976 -17.817  1.00  0.00    -0.344 OA
ATOM     17  H1  UNL     1      15.536 -20.478 -18.243  1.00  0.00     0.219 HD
ENDBRANCH   2  16
ENDBRANCH   1   2
BRANCH   1  18
HETATM   18  C7  UNL     1      13.728 -22.087 -15.429  1.00  0.00     0.012 C 
BRANCH  18  19
HETATM   19  C8  UNL     1      15.080 -22.500 -15.004  1.00  0.00     0.010 C 
HETATM   20  C9  UNL     1      16.193 -21.546 -14.927  1.00  0.00     0.008 C 
HETATM   21  C10 UNL     1      17.515 -22.342 -14.826  1.00  0.00     0.001 C 
HETATM   22  C11 UNL     1      17.499 -23.120 -13.553  1.00  0.00     0.000 C 
HETATM   23  C12 UNL     1      16.289 -24.042 -13.539  1.00  0.00     0.001 C 
HETATM   24  C13 UNL     1      15.021 -23.227 -13.645  1.00  0.00     0.008 C 
ENDBRANCH  18  19
ENDBRANCH   1  18
BRANCH   1  25
HETATM   25  N2  UNL     1      12.257 -20.272 -15.960  1.00  0.00    -0.323 N 
HETATM   26  C14 UNL     1      12.186 -19.308 -14.953  1.00  0.00     0.226 C 
HETATM   27  O2  UNL     1      13.231 -19.035 -14.307  1.00  0.00    -0.273 OA
ATOM     28  H2  UNL     1      11.398 -20.483 -16.469  1.00  0.00     0.169 HD
BRANCH  26  29
HETATM   29  C15 UNL     1      10.942 -18.598 -14.616  1.00  0.00     0.081 C 
HETATM   30  C16 UNL     1       9.853 -19.097 -15.546  1.00  0.00     0.034 C 
HETATM   31  C17 UNL     1       9.319 -17.901 -16.303  1.00  0.00     0.126 C 
HETATM   32  N3  UNL     1       8.803 -16.977 -15.328  1.00  0.00    -0.350 N 
HETATM   33  C18 UNL     1       7.483 -16.514 -15.375  1.00  0.00     0.253 C 
HETATM   34  C24 UNL     1       9.701 -16.532 -14.287  1.00  0.00     0.126 C 
HETATM   35  O3  UNL     1       7.091 -15.694 -14.492  1.00  0.00    -0.271 OA
HETATM   36  C25 UNL     1      11.083 -17.096 -14.619  1.00  0.00     0.034 C 
BRANCH  33  37
HETATM   37  C19 UNL     1       6.490 -16.918 -16.405  1.00  0.00     0.313 C 
HETATM   38  C20 UNL     1       5.090 -16.987 -15.842  1.00  0.00     0.047 C 
HETATM   39  C21 UNL     1       4.697 -15.510 -15.796  1.00  0.00     0.033 C 
HETATM   40  C22 UNL     1       5.529 -14.853 -16.876  1.00  0.00     0.273 C 
HETATM   41  N4  UNL     1       6.339 -15.903 -17.426  1.00  0.00     0.098 N 
HETATM   42  C23 UNL     1       7.576 -15.441 -17.984  1.00  0.00     0.310 C 
ENDBRANCH  33  37
ENDBRANCH  26  29
ENDBRANCH   1  25
TORSDOF 12
ENDMDL
