MODEL 1
REMARK VINA RESULT: -9.767346475      0.000      0.000
REMARK  11 active torsions:
REMARK  status: ('A' for Active; 'I' for Inactive)
REMARK    1  A    between atoms: C2_2  and  C3_3 
REMARK    2  A    between atoms: C3_3  and  C4_4 
REMARK    3  A    between atoms: C4_4  and  N1_5 
REMARK    4  A    between atoms: C5_7  and  C6_9 
REMARK       I    between atoms: C6_9  and  N3_11 
REMARK    5  A    between atoms: N4_14  and  C8_15 
REMARK    6  A    between atoms: C8_15  and  C9_16 
REMARK    7  A    between atoms: C16_23  and  C17_24 
REMARK       I    between atoms: C17_24  and  N5_26 
REMARK    8  A    between atoms: N5_26  and  C18_27 
REMARK    9  A    between atoms: N5_26  and  C25_36 
REMARK   10  A    between atoms: C18_27  and  C19_28 
REMARK       I    between atoms: C19_28  and  N6_30 
REMARK   11  A    between atoms: C25_36  and  C26_37 
ROOT
HETATM    1  C6  UNL     1      11.638 -22.719 -20.774  1.00  0.00     0.293 C 
HETATM    2  O1  UNL     1      10.445 -22.821 -21.267  1.00  0.00    -0.264 OA
HETATM    3  N3  UNL     1      11.766 -22.169 -19.493  1.00  0.00    -0.248 N 
HETATM    4  C7  UNL     1      12.909 -21.870 -18.708  1.00  0.00     0.328 C 
HETATM    5  O2  UNL     1      14.014 -21.439 -19.131  1.00  0.00    -0.247 OA
HETATM    6  N4  UNL     1      12.576 -22.146 -17.354  1.00  0.00    -0.331 N 
HETATM    7  C15 UNL     1      11.093 -22.098 -17.281  1.00  0.00     0.163 C 
HETATM    8  C16 UNL     1      10.603 -21.739 -18.658  1.00  0.00     0.208 C 
ENDROOT
BRANCH   8   9
HETATM    9  C17 UNL     1      10.424 -20.298 -18.893  1.00  0.00     0.245 C 
HETATM   10  O3  UNL     1      10.787 -19.833 -20.044  1.00  0.00    -0.271 OA
HETATM   11  N5  UNL     1       9.889 -19.346 -17.997  1.00  0.00    -0.341 N 
BRANCH  11  12
HETATM   12  C18 UNL     1       9.797 -17.945 -18.468  1.00  0.00     0.228 C 
BRANCH  12  13
HETATM   13  C19 UNL     1       8.351 -17.640 -18.766  1.00  0.00     0.237 C 
HETATM   14  O4  UNL     1       7.748 -18.339 -19.606  1.00  0.00    -0.272 OA
HETATM   15  N6  UNL     1       7.646 -16.592 -18.129  1.00  0.00    -0.351 N 
HETATM   16  C20 UNL     1       6.253 -16.308 -18.417  1.00  0.00     0.126 C 
HETATM   17  C24 UNL     1       8.276 -15.726 -17.138  1.00  0.00     0.126 C 
HETATM   18  C21 UNL     1       5.475 -16.681 -17.163  1.00  0.00     0.020 C 
HETATM   19  C22 UNL     1       6.398 -16.930 -15.983  1.00  0.00     0.003 C 
HETATM   20  C23 UNL     1       7.465 -15.850 -15.872  1.00  0.00     0.020 C 
ENDBRANCH  12  13
ENDBRANCH  11  12
BRANCH  11  21
HETATM   21  C25 UNL     1       9.372 -19.596 -16.691  1.00  0.00     0.131 C 
BRANCH  21  22
HETATM   22  C26 UNL     1       9.870 -18.650 -15.671  1.00  0.00     0.004 C 
HETATM   23  C27 UNL     1      11.333 -18.972 -15.389  1.00  0.00     0.006 C 
HETATM   24  C28 UNL     1      12.014 -18.071 -14.450  1.00  0.00     0.000 C 
HETATM   25  C29 UNL     1      11.188 -17.544 -13.324  1.00  0.00     0.000 C 
HETATM   26  C30 UNL     1       9.742 -17.435 -13.597  1.00  0.00     0.000 C 
HETATM   27  C31 UNL     1       9.174 -18.646 -14.344  1.00  0.00     0.006 C 
ENDBRANCH  21  22
ENDBRANCH  11  21
ENDBRANCH   8   9
BRANCH   1  28
HETATM   28  C5  UNL     1      12.682 -23.199 -21.636  1.00  0.00     0.181 C 
HETATM   29  N1  UNL     1      13.876 -23.379 -21.133  1.00  0.00    -0.374 N 
ATOM     30  H1  UNL     1      14.024 -23.185 -20.143  1.00  0.00     0.160 HD
HETATM   31  N2  UNL     1      12.543 -23.484 -23.013  1.00  0.00    -0.077 NA
BRANCH  29  32
HETATM   32  C4  UNL     1      14.992 -23.842 -21.922  1.00  0.00     0.121 C 
BRANCH  32  33
HETATM   33  C3  UNL     1      15.550 -25.081 -21.214  1.00  0.00     0.019 C 
BRANCH  33  34
HETATM   34  C2  UNL     1      17.035 -24.911 -21.157  1.00  0.00    -0.003 C 
HETATM   35  C1  UNL     1      17.619 -25.271 -19.814  1.00  0.00     0.005 C 
ENDBRANCH  33  34
ENDBRANCH  32  33
ENDBRANCH  29  32
ENDBRANCH   1  28
BRANCH   6  36
HETATM   36  C8  UNL     1      13.433 -22.405 -16.215  1.00  0.00     0.132 C 
BRANCH  36  37
HETATM   37  C9  UNL     1      13.751 -21.269 -15.333  1.00  0.00     0.004 C 
HETATM   38  C10 UNL     1      14.661 -20.222 -15.855  1.00  0.00     0.006 C 
HETATM   39  C11 UNL     1      16.112 -20.632 -15.966  1.00  0.00     0.000 C 
HETATM   40  C12 UNL     1      16.613 -21.355 -14.759  1.00  0.00     0.000 C 
HETATM   41  C13 UNL     1      15.667 -22.450 -14.315  1.00  0.00     0.000 C 
HETATM   42  C14 UNL     1      14.340 -21.842 -14.041  1.00  0.00     0.006 C 
ENDBRANCH  36  37
ENDBRANCH   6  36
TORSDOF 11
ENDMDL
MODEL 2
REMARK VINA RESULT: -9.595438423      2.641      5.496
REMARK  11 active torsions:
REMARK  status: ('A' for Active; 'I' for Inactive)
REMARK    1  A    between atoms: C2_2  and  C3_3 
REMARK    2  A    between atoms: C3_3  and  C4_4 
REMARK    3  A    between atoms: C4_4  and  N1_5 
REMARK    4  A    between atoms: C5_7  and  C6_9 
REMARK       I    between atoms: C6_9  and  N3_11 
REMARK    5  A    between atoms: N4_14  and  C8_15 
REMARK    6  A    between atoms: C8_15  and  C9_16 
REMARK    7  A    between atoms: C16_23  and  C17_24 
REMARK       I    between atoms: C17_24  and  N5_26 
REMARK    8  A    between atoms: N5_26  and  C18_27 
REMARK    9  A    between atoms: N5_26  and  C25_36 
REMARK   10  A    between atoms: C18_27  and  C19_28 
REMARK       I    between atoms: C19_28  and  N6_30 
REMARK   11  A    between atoms: C25_36  and  C26_37 
ROOT
HETATM    1  C6  UNL     1      16.504 -21.443 -15.386  1.00  0.00     0.293 C 
HETATM    2  O1  UNL     1      16.963 -20.476 -14.656  1.00  0.00    -0.264 OA
HETATM    3  N3  UNL     1      15.453 -21.151 -16.264  1.00  0.00    -0.248 N 
HETATM    4  C7  UNL     1      14.702 -21.977 -17.137  1.00  0.00     0.328 C 
HETATM    5  O2  UNL     1      14.347 -23.166 -16.922  1.00  0.00    -0.247 OA
HETATM    6  N4  UNL     1      14.421 -21.214 -18.303  1.00  0.00    -0.331 N 
HETATM    7  C15 UNL     1      14.545 -19.790 -17.897  1.00  0.00     0.163 C 
HETATM    8  C16 UNL     1      14.869 -19.785 -16.428  1.00  0.00     0.208 C 
ENDROOT
BRANCH   8   9
HETATM    9  C17 UNL     1      13.701 -19.715 -15.538  1.00  0.00     0.245 C 
HETATM   10  O3  UNL     1      13.803 -20.273 -14.376  1.00  0.00    -0.271 OA
HETATM   11  N5  UNL     1      12.459 -19.094 -15.804  1.00  0.00    -0.341 N 
BRANCH  11  12
HETATM   12  C18 UNL     1      11.431 -19.145 -14.740  1.00  0.00     0.228 C 
BRANCH  12  13
HETATM   13  C19 UNL     1      11.060 -17.730 -14.373  1.00  0.00     0.237 C 
HETATM   14  O4  UNL     1      11.970 -16.921 -14.095  1.00  0.00    -0.272 OA
HETATM   15  N6  UNL     1       9.720 -17.279 -14.333  1.00  0.00    -0.351 N 
HETATM   16  C20 UNL     1       9.371 -15.915 -13.985  1.00  0.00     0.126 C 
HETATM   17  C24 UNL     1       8.599 -18.160 -14.641  1.00  0.00     0.126 C 
HETATM   18  C21 UNL     1       8.835 -15.275 -15.257  1.00  0.00     0.020 C 
HETATM   19  C22 UNL     1       8.576 -16.309 -16.339  1.00  0.00     0.003 C 
HETATM   20  C23 UNL     1       7.847 -17.524 -15.784  1.00  0.00     0.020 C 
ENDBRANCH  12  13
ENDBRANCH  11  12
BRANCH  11  21
HETATM   21  C25 UNL     1      12.099 -18.371 -16.979  1.00  0.00     0.131 C 
BRANCH  21  22
HETATM   22  C26 UNL     1      10.838 -18.835 -17.593  1.00  0.00     0.004 C 
HETATM   23  C27 UNL     1      10.936 -20.340 -17.815  1.00  0.00     0.006 C 
HETATM   24  C28 UNL     1       9.729 -20.986 -18.348  1.00  0.00     0.000 C 
HETATM   25  C29 UNL     1       8.931 -20.188 -19.326  1.00  0.00     0.000 C 
HETATM   26  C30 UNL     1       9.029 -18.723 -19.177  1.00  0.00     0.000 C 
HETATM   27  C31 UNL     1      10.457 -18.237 -18.913  1.00  0.00     0.006 C 
ENDBRANCH  21  22
ENDBRANCH  11  21
ENDBRANCH   8   9
BRANCH   1  28
HETATM   28  C5  UNL     1      17.161 -22.704 -15.184  1.00  0.00     0.181 C 
HETATM   29  N1  UNL     1      17.147 -23.580 -16.156  1.00  0.00    -0.374 N 
ATOM     30  H1  UNL     1      16.681 -23.334 -17.029  1.00  0.00     0.160 HD
HETATM   31  N2  UNL     1      17.820 -23.106 -14.000  1.00  0.00    -0.077 NA
BRANCH  29  32
HETATM   32  C4  UNL     1      17.764 -24.880 -16.043  1.00  0.00     0.121 C 
BRANCH  32  33
HETATM   33  C3  UNL     1      18.230 -25.271 -17.448  1.00  0.00     0.019 C 
BRANCH  33  34
HETATM   34  C2  UNL     1      17.399 -24.486 -18.411  1.00  0.00    -0.003 C 
HETATM   35  C1  UNL     1      17.497 -24.995 -19.828  1.00  0.00     0.005 C 
ENDBRANCH  33  34
ENDBRANCH  32  33
ENDBRANCH  29  32
ENDBRANCH   1  28
BRANCH   6  36
HETATM   36  C8  UNL     1      14.058 -21.645 -19.638  1.00  0.00     0.132 C 
BRANCH  36  37
HETATM   37  C9  UNL     1      13.655 -23.051 -19.811  1.00  0.00     0.004 C 
HETATM   38  C10 UNL     1      14.267 -23.815 -20.923  1.00  0.00     0.006 C 
HETATM   39  C11 UNL     1      13.782 -23.434 -22.304  1.00  0.00     0.000 C 
HETATM   40  C12 UNL     1      12.298 -23.284 -22.386  1.00  0.00     0.000 C 
HETATM   41  C13 UNL     1      11.745 -22.443 -21.254  1.00  0.00     0.000 C 
HETATM   42  C14 UNL     1      12.131 -23.075 -19.967  1.00  0.00     0.006 C 
ENDBRANCH  36  37
ENDBRANCH   6  36
TORSDOF 11
ENDMDL
MODEL 3
REMARK VINA RESULT: -9.559651098      2.790      5.946
REMARK  11 active torsions:
REMARK  status: ('A' for Active; 'I' for Inactive)
REMARK    1  A    between atoms: C2_2  and  C3_3 
REMARK    2  A    between atoms: C3_3  and  C4_4 
REMARK    3  A    between atoms: C4_4  and  N1_5 
REMARK    4  A    between atoms: C5_7  and  C6_9 
REMARK       I    between atoms: C6_9  and  N3_11 
REMARK    5  A    between atoms: N4_14  and  C8_15 
REMARK    6  A    between atoms: C8_15  and  C9_16 
REMARK    7  A    between atoms: C16_23  and  C17_24 
REMARK       I    between atoms: C17_24  and  N5_26 
REMARK    8  A    between atoms: N5_26  and  C18_27 
REMARK    9  A    between atoms: N5_26  and  C25_36 
REMARK   10  A    between atoms: C18_27  and  C19_28 
REMARK       I    between atoms: C19_28  and  N6_30 
REMARK   11  A    between atoms: C25_36  and  C26_37 
ROOT
HETATM    1  C6  UNL     1      16.259 -21.282 -15.441  1.00  0.00     0.293 C 
HETATM    2  O1  UNL     1      16.711 -20.297 -14.729  1.00  0.00    -0.264 OA
HETATM    3  N3  UNL     1      15.191 -21.020 -16.307  1.00  0.00    -0.248 N 
HETATM    4  C7  UNL     1      14.442 -21.871 -17.159  1.00  0.00     0.328 C 
HETATM    5  O2  UNL     1      14.112 -23.063 -16.923  1.00  0.00    -0.247 OA
HETATM    6  N4  UNL     1      14.132 -21.128 -18.330  1.00  0.00    -0.331 N 
HETATM    7  C15 UNL     1      14.236 -19.696 -17.945  1.00  0.00     0.163 C 
HETATM    8  C16 UNL     1      14.581 -19.666 -16.480  1.00  0.00     0.208 C 
ENDROOT
BRANCH   8   9
HETATM    9  C17 UNL     1      13.423 -19.605 -15.575  1.00  0.00     0.245 C 
HETATM   10  O3  UNL     1      13.539 -20.179 -14.421  1.00  0.00    -0.271 OA
HETATM   11  N5  UNL     1      12.180 -18.978 -15.817  1.00  0.00    -0.341 N 
BRANCH  11  12
HETATM   12  C18 UNL     1      11.165 -19.040 -14.740  1.00  0.00     0.228 C 
BRANCH  12  13
HETATM   13  C19 UNL     1      10.805 -17.630 -14.349  1.00  0.00     0.237 C 
HETATM   14  O4  UNL     1      11.718 -16.842 -14.024  1.00  0.00    -0.272 OA
HETATM   15  N6  UNL     1       9.471 -17.159 -14.336  1.00  0.00    -0.351 N 
HETATM   16  C20 UNL     1       9.132 -15.799 -13.963  1.00  0.00     0.126 C 
HETATM   17  C24 UNL     1       8.346 -18.015 -14.697  1.00  0.00     0.126 C 
HETATM   18  C21 UNL     1       8.643 -15.119 -15.234  1.00  0.00     0.020 C 
HETATM   19  C22 UNL     1       8.399 -16.122 -16.348  1.00  0.00     0.003 C 
HETATM   20  C23 UNL     1       7.637 -17.340 -15.845  1.00  0.00     0.020 C 
ENDBRANCH  12  13
ENDBRANCH  11  12
BRANCH  11  21
HETATM   21  C25 UNL     1      11.808 -18.238 -16.978  1.00  0.00     0.131 C 
BRANCH  21  22
HETATM   22  C26 UNL     1      11.145 -19.060 -18.012  1.00  0.00     0.004 C 
HETATM   23  C27 UNL     1      11.132 -18.272 -19.317  1.00  0.00     0.006 C 
HETATM   24  C28 UNL     1      10.578 -18.976 -20.481  1.00  0.00     0.000 C 
HETATM   25  C29 UNL     1       9.435 -19.898 -20.212  1.00  0.00     0.000 C 
HETATM   26  C30 UNL     1       9.399 -20.484 -18.859  1.00  0.00     0.000 C 
HETATM   27  C31 UNL     1       9.729 -19.475 -17.754  1.00  0.00     0.006 C 
ENDBRANCH  21  22
ENDBRANCH  11  21
ENDBRANCH   8   9
BRANCH   1  28
HETATM   28  C5  UNL     1      16.940 -22.529 -15.232  1.00  0.00     0.181 C 
HETATM   29  N1  UNL     1      16.655 -23.226 -14.163  1.00  0.00    -0.374 N 
ATOM     30  H1  UNL     1      15.950 -22.868 -13.519  1.00  0.00     0.160 HD
HETATM   31  N2  UNL     1      17.926 -23.078 -16.082  1.00  0.00    -0.077 NA
BRANCH  29  32
HETATM   32  C4  UNL     1      17.297 -24.482 -13.857  1.00  0.00     0.121 C 
BRANCH  32  33
HETATM   33  C3  UNL     1      16.876 -24.859 -12.433  1.00  0.00     0.019 C 
BRANCH  33  34
HETATM   34  C2  UNL     1      16.703 -26.344 -12.415  1.00  0.00    -0.003 C 
HETATM   35  C1  UNL     1      15.292 -26.770 -12.098  1.00  0.00     0.005 C 
ENDBRANCH  33  34
ENDBRANCH  32  33
ENDBRANCH  29  32
ENDBRANCH   1  28
BRANCH   6  36
HETATM   36  C8  UNL     1      13.758 -21.582 -19.654  1.00  0.00     0.132 C 
BRANCH  36  37
HETATM   37  C9  UNL     1      13.348 -22.989 -19.798  1.00  0.00     0.004 C 
HETATM   38  C10 UNL     1      14.088 -23.831 -20.767  1.00  0.00     0.006 C 
HETATM   39  C11 UNL     1      13.808 -23.530 -22.222  1.00  0.00     0.000 C 
HETATM   40  C12 UNL     1      12.354 -23.361 -22.518  1.00  0.00     0.000 C 
HETATM   41  C13 UNL     1      11.671 -22.442 -21.527  1.00  0.00     0.000 C 
HETATM   42  C14 UNL     1      11.861 -22.999 -20.163  1.00  0.00     0.006 C 
ENDBRANCH  36  37
ENDBRANCH   6  36
TORSDOF 11
ENDMDL
MODEL 4
REMARK VINA RESULT: -9.500425542      2.775      5.773
REMARK  11 active torsions:
REMARK  status: ('A' for Active; 'I' for Inactive)
REMARK    1  A    between atoms: C2_2  and  C3_3 
REMARK    2  A    between atoms: C3_3  and  C4_4 
REMARK    3  A    between atoms: C4_4  and  N1_5 
REMARK    4  A    between atoms: C5_7  and  C6_9 
REMARK       I    between atoms: C6_9  and  N3_11 
REMARK    5  A    between atoms: N4_14  and  C8_15 
REMARK    6  A    between atoms: C8_15  and  C9_16 
REMARK    7  A    between atoms: C16_23  and  C17_24 
REMARK       I    between atoms: C17_24  and  N5_26 
REMARK    8  A    between atoms: N5_26  and  C18_27 
REMARK    9  A    between atoms: N5_26  and  C25_36 
REMARK   10  A    between atoms: C18_27  and  C19_28 
REMARK       I    between atoms: C19_28  and  N6_30 
REMARK   11  A    between atoms: C25_36  and  C26_37 
ROOT
HETATM    1  C6  UNL     1      15.917 -20.966 -15.467  1.00  0.00     0.293 C 
HETATM    2  O1  UNL     1      16.465 -19.864 -15.064  1.00  0.00    -0.264 OA
HETATM    3  N3  UNL     1      14.694 -20.874 -16.141  1.00  0.00    -0.248 N 
HETATM    4  C7  UNL     1      13.822 -21.872 -16.647  1.00  0.00     0.328 C 
HETATM    5  O2  UNL     1      13.582 -22.991 -16.123  1.00  0.00    -0.247 OA
HETATM    6  N4  UNL     1      13.268 -21.374 -17.857  1.00  0.00    -0.331 N 
HETATM    7  C15 UNL     1      13.398 -19.895 -17.787  1.00  0.00     0.163 C 
HETATM    8  C16 UNL     1      14.018 -19.578 -16.453  1.00  0.00     0.208 C 
ENDROOT
BRANCH   8   9
HETATM    9  C17 UNL     1      13.056 -19.331 -15.368  1.00  0.00     0.245 C 
HETATM   10  O3  UNL     1      13.310 -19.859 -14.216  1.00  0.00    -0.271 OA
HETATM   11  N5  UNL     1      11.870 -18.566 -15.435  1.00  0.00    -0.341 N 
BRANCH  11  12
HETATM   12  C18 UNL     1      11.063 -18.451 -14.198  1.00  0.00     0.228 C 
BRANCH  12  13
HETATM   13  C19 UNL     1      10.576 -17.029 -14.083  1.00  0.00     0.237 C 
HETATM   14  O4  UNL     1      11.414 -16.116 -13.924  1.00  0.00    -0.272 OA
HETATM   15  N6  UNL     1       9.206 -16.684 -14.148  1.00  0.00    -0.351 N 
HETATM   16  C20 UNL     1       8.746 -15.313 -14.041  1.00  0.00     0.126 C 
HETATM   17  C24 UNL     1       8.164 -17.689 -14.327  1.00  0.00     0.126 C 
HETATM   18  C21 UNL     1       8.208 -14.937 -15.414  1.00  0.00     0.020 C 
HETATM   19  C22 UNL     1       8.062 -16.153 -16.312  1.00  0.00     0.003 C 
HETATM   20  C23 UNL     1       7.407 -17.314 -15.577  1.00  0.00     0.020 C 
ENDBRANCH  12  13
ENDBRANCH  11  12
BRANCH  11  21
HETATM   21  C25 UNL     1      11.382 -17.841 -16.563  1.00  0.00     0.131 C 
BRANCH  21  22
HETATM   22  C26 UNL     1      10.689 -18.691 -17.554  1.00  0.00     0.004 C 
HETATM   23  C27 UNL     1       9.945 -17.784 -18.527  1.00  0.00     0.006 C 
HETATM   24  C28 UNL     1       9.261 -18.463 -19.636  1.00  0.00     0.000 C 
HETATM   25  C29 UNL     1       8.658 -19.793 -19.323  1.00  0.00     0.000 C 
HETATM   26  C30 UNL     1       9.312 -20.544 -18.234  1.00  0.00     0.000 C 
HETATM   27  C31 UNL     1       9.681 -19.669 -17.032  1.00  0.00     0.006 C 
ENDBRANCH  21  22
ENDBRANCH  11  21
ENDBRANCH   8   9
BRANCH   1  28
HETATM   28  C5  UNL     1      16.666 -22.152 -15.155  1.00  0.00     0.181 C 
HETATM   29  N1  UNL     1      16.198 -22.966 -14.245  1.00  0.00    -0.374 N 
ATOM     30  H1  UNL     1      15.312 -22.739 -13.794  1.00  0.00     0.160 HD
HETATM   31  N2  UNL     1      17.898 -22.522 -15.740  1.00  0.00    -0.077 NA
BRANCH  29  32
HETATM   32  C4  UNL     1      16.885 -24.173 -13.851  1.00  0.00     0.121 C 
BRANCH  32  33
HETATM   33  C3  UNL     1      15.949 -24.925 -12.900  1.00  0.00     0.019 C 
BRANCH  33  34
HETATM   34  C2  UNL     1      16.585 -26.251 -12.631  1.00  0.00    -0.003 C 
HETATM   35  C1  UNL     1      17.765 -26.533 -13.527  1.00  0.00     0.005 C 
ENDBRANCH  33  34
ENDBRANCH  32  33
ENDBRANCH  29  32
ENDBRANCH   1  28
BRANCH   6  36
HETATM   36  C8  UNL     1      12.660 -22.079 -18.968  1.00  0.00     0.132 C 
BRANCH  36  37
HETATM   37  C9  UNL     1      12.563 -21.366 -20.253  1.00  0.00     0.004 C 
HETATM   38  C10 UNL     1      11.330 -21.549 -21.054  1.00  0.00     0.006 C 
HETATM   39  C11 UNL     1      11.191 -22.901 -21.716  1.00  0.00     0.000 C 
HETATM   40  C12 UNL     1      12.446 -23.363 -22.380  1.00  0.00     0.000 C 
HETATM   41  C13 UNL     1      13.658 -23.205 -21.485  1.00  0.00     0.000 C 
HETATM   42  C14 UNL     1      13.773 -21.776 -21.098  1.00  0.00     0.006 C 
ENDBRANCH  36  37
ENDBRANCH   6  36
TORSDOF 11
ENDMDL
MODEL 5
REMARK VINA RESULT: -9.443599866      1.685      3.414
REMARK  11 active torsions:
REMARK  status: ('A' for Active; 'I' for Inactive)
REMARK    1  A    between atoms: C2_2  and  C3_3 
REMARK    2  A    between atoms: C3_3  and  C4_4 
REMARK    3  A    between atoms: C4_4  and  N1_5 
REMARK    4  A    between atoms: C5_7  and  C6_9 
REMARK       I    between atoms: C6_9  and  N3_11 
REMARK    5  A    between atoms: N4_14  and  C8_15 
REMARK    6  A    between atoms: C8_15  and  C9_16 
REMARK    7  A    between atoms: C16_23  and  C17_24 
REMARK       I    between atoms: C17_24  and  N5_26 
REMARK    8  A    between atoms: N5_26  and  C18_27 
REMARK    9  A    between atoms: N5_26  and  C25_36 
REMARK   10  A    between atoms: C18_27  and  C19_28 
REMARK       I    between atoms: C19_28  and  N6_30 
REMARK   11  A    between atoms: C25_36  and  C26_37 
ROOT
HETATM    1  C6  UNL     1      11.527 -22.207 -19.892  1.00  0.00     0.293 C 
HETATM    2  O1  UNL     1      10.238 -22.095 -19.963  1.00  0.00    -0.264 OA
HETATM    3  N3  UNL     1      12.153 -21.768 -18.719  1.00  0.00    -0.248 N 
HETATM    4  C7  UNL     1      13.522 -21.696 -18.355  1.00  0.00     0.328 C 
HETATM    5  O2  UNL     1      14.484 -21.410 -19.114  1.00  0.00    -0.247 OA
HETATM    6  N4  UNL     1      13.607 -22.008 -16.970  1.00  0.00    -0.331 N 
HETATM    7  C15 UNL     1      12.256 -21.742 -16.409  1.00  0.00     0.163 C 
HETATM    8  C16 UNL     1      11.411 -21.223 -17.541  1.00  0.00     0.208 C 
ENDROOT
BRANCH   8   9
HETATM    9  C17 UNL     1      11.405 -19.760 -17.686  1.00  0.00     0.245 C 
HETATM   10  O3  UNL     1      12.519 -19.136 -17.479  1.00  0.00    -0.271 OA
HETATM   11  N5  UNL     1      10.309 -18.940 -18.036  1.00  0.00    -0.341 N 
BRANCH  11  12
HETATM   12  C18 UNL     1      10.552 -17.482 -18.133  1.00  0.00     0.228 C 
BRANCH  12  13
HETATM   13  C19 UNL     1       9.501 -16.773 -17.318  1.00  0.00     0.237 C 
HETATM   14  O4  UNL     1       8.613 -16.126 -17.911  1.00  0.00    -0.272 OA
HETATM   15  N6  UNL     1       9.477 -16.811 -15.904  1.00  0.00    -0.351 N 
HETATM   16  C20 UNL     1       8.460 -16.130 -15.127  1.00  0.00     0.126 C 
HETATM   17  C24 UNL     1      10.479 -17.540 -15.134  1.00  0.00     0.126 C 
HETATM   18  C21 UNL     1       7.607 -17.220 -14.494  1.00  0.00     0.020 C 
HETATM   19  C22 UNL     1       8.252 -18.588 -14.635  1.00  0.00     0.003 C 
HETATM   20  C23 UNL     1       9.734 -18.544 -14.290  1.00  0.00     0.020 C 
ENDBRANCH  12  13
ENDBRANCH  11  12
BRANCH  11  21
HETATM   21  C25 UNL     1       8.989 -19.370 -18.362  1.00  0.00     0.131 C 
BRANCH  21  22
HETATM   22  C26 UNL     1       8.415 -18.677 -19.534  1.00  0.00     0.004 C 
HETATM   23  C27 UNL     1       6.924 -18.988 -19.596  1.00  0.00     0.006 C 
HETATM   24  C28 UNL     1       6.175 -18.310 -20.661  1.00  0.00     0.000 C 
HETATM   25  C29 UNL     1       6.899 -18.109 -21.952  1.00  0.00     0.000 C 
HETATM   26  C30 UNL     1       8.367 -18.005 -21.845  1.00  0.00     0.000 C 
HETATM   27  C31 UNL     1       8.976 -19.025 -20.879  1.00  0.00     0.006 C 
ENDBRANCH  21  22
ENDBRANCH  11  21
ENDBRANCH   8   9
BRANCH   1  28
HETATM   28  C5  UNL     1      12.140 -22.781 -21.057  1.00  0.00     0.181 C 
HETATM   29  N1  UNL     1      13.424 -23.024 -21.033  1.00  0.00    -0.374 N 
ATOM     30  H1  UNL     1      13.948 -22.809 -20.184  1.00  0.00     0.160 HD
HETATM   31  N2  UNL     1      11.473 -23.098 -22.262  1.00  0.00    -0.077 NA
BRANCH  29  32
HETATM   32  C4  UNL     1      14.133 -23.584 -22.159  1.00  0.00     0.121 C 
BRANCH  32  33
HETATM   33  C3  UNL     1      15.332 -24.349 -21.591  1.00  0.00     0.019 C 
BRANCH  33  34
HETATM   34  C2  UNL     1      14.843 -25.078 -20.382  1.00  0.00    -0.003 C 
HETATM   35  C1  UNL     1      15.949 -25.447 -19.426  1.00  0.00     0.005 C 
ENDBRANCH  33  34
ENDBRANCH  32  33
ENDBRANCH  29  32
ENDBRANCH   1  28
BRANCH   6  36
HETATM   36  C8  UNL     1      14.733 -22.468 -16.183  1.00  0.00     0.132 C 
BRANCH  36  37
HETATM   37  C9  UNL     1      15.051 -21.721 -14.954  1.00  0.00     0.004 C 
HETATM   38  C10 UNL     1      16.328 -20.970 -14.911  1.00  0.00     0.006 C 
HETATM   39  C11 UNL     1      17.569 -21.825 -14.794  1.00  0.00     0.000 C 
HETATM   40  C12 UNL     1      17.443 -22.910 -13.775  1.00  0.00     0.000 C 
HETATM   41  C13 UNL     1      16.144 -23.676 -13.914  1.00  0.00     0.000 C 
HETATM   42  C14 UNL     1      15.018 -22.716 -13.790  1.00  0.00     0.006 C 
ENDBRANCH  36  37
ENDBRANCH   6  36
TORSDOF 11
ENDMDL
