MODEL 1
REMARK VINA RESULT: -9.406976843      0.000      0.000
REMARK  7 active torsions:
REMARK  status: ('A' for Active; 'I' for Inactive)
REMARK    1  A    between atoms: C2_2  and  C3_3 
REMARK    2  A    between atoms: C4_4  and  C5_5 
REMARK    3  A    between atoms: C13_15  and  C14_16 
REMARK    4  A    between atoms: C14_16  and  C15_17 
REMARK    5  A    between atoms: C15_17  and  C17_19 
REMARK    6  A    between atoms: C18_20  and  C19_21 
REMARK    7  A    between atoms: C20_22  and  O2_23 
ROOT
HETATM    1  C14 UNL     1     -14.476  -1.777  39.772  1.00  0.00     0.035 C 
ENDROOT
BRANCH   1   2
HETATM    2  C13 UNL     1     -13.082  -1.950  39.373  1.00  0.00    -0.019 C 
HETATM    3  C2  UNL     1     -12.513  -1.428  38.284  1.00  0.00    -0.066 C 
HETATM    4  C1  UNL     1     -13.342  -0.597  37.374  1.00  0.00     0.048 C 
BRANCH   3   5
HETATM    5  C3  UNL     1     -11.114  -1.688  38.025  1.00  0.00     0.003 C 
HETATM    6  C4  UNL     1     -10.621  -2.770  37.479  1.00  0.00    -0.013 C 
BRANCH   6   7
HETATM    7  C5  UNL     1      -9.139  -2.932  37.258  1.00  0.00     0.019 C 
HETATM    8  C6  UNL     1      -8.415  -2.071  38.228  1.00  0.00     0.017 C 
HETATM    9  C7  UNL     1      -7.000  -2.503  38.501  1.00  0.00     0.001 C 
HETATM   10  C8  UNL     1      -6.851  -3.964  38.759  1.00  0.00     0.003 C 
HETATM   11  C9  UNL     1      -8.165  -4.713  38.691  1.00  0.00     0.035 C 
HETATM   12  C10 UNL     1      -8.781  -4.396  37.344  1.00  0.00     0.159 C 
HETATM   13  O1  UNL     1      -7.813  -4.535  36.382  1.00  0.00    -0.297 OA
HETATM   14  N1  UNL     1      -8.082  -3.731  35.359  1.00  0.00    -0.200 NA
HETATM   15  C11 UNL     1      -8.636  -4.437  34.247  1.00  0.00     0.143 C 
HETATM   16  C12 UNL     1      -8.863  -2.621  35.817  1.00  0.00     0.136 C 
ENDBRANCH   6   7
ENDBRANCH   3   5
ENDBRANCH   1   2
BRANCH   1  17
HETATM   17  C15 UNL     1     -15.285  -3.049  39.656  1.00  0.00     0.007 C 
HETATM   18  C16 UNL     1     -16.563  -2.781  38.926  1.00  0.00     0.014 C 
BRANCH  17  19
HETATM   19  C17 UNL     1     -14.492  -4.104  38.916  1.00  0.00    -0.021 C 
HETATM   20  C18 UNL     1     -14.074  -5.164  39.534  1.00  0.00     0.018 C 
BRANCH  20  21
HETATM   21  C19 UNL     1     -13.317  -6.277  39.039  1.00  0.00     0.083 A 
HETATM   22  C20 UNL     1     -13.854  -7.375  38.437  1.00  0.00     0.158 A 
HETATM   23  N2  UNL     1     -13.036  -8.390  37.996  1.00  0.00    -0.313 N 
HETATM   24  C21 UNL     1     -11.715  -8.292  38.161  1.00  0.00     0.180 A 
ATOM     25  H2  UNL     1     -13.437  -9.212  37.545  1.00  0.00     0.170 HD
HETATM   26  S1  UNL     1     -10.775  -9.516  37.624  1.00  0.00    -0.040 SA
HETATM   27  N3  UNL     1     -11.176  -7.219  38.750  1.00  0.00    -0.299 N 
HETATM   28  C22 UNL     1     -11.917  -6.202  39.199  1.00  0.00     0.262 A 
ATOM     29  H3  UNL     1     -10.162  -7.175  38.860  1.00  0.00     0.171 HD
HETATM   30  O3  UNL     1     -11.382  -5.196  39.754  1.00  0.00    -0.267 OA
BRANCH  22  31
HETATM   31  O2  UNL     1     -15.220  -7.498  38.256  1.00  0.00    -0.345 OA
ATOM     32  H2  UNL     1     -15.646  -7.159  37.477  1.00  0.00     0.219 HD
ENDBRANCH  22  31
ENDBRANCH  20  21
ENDBRANCH  17  19
ENDBRANCH   1  17
TORSDOF 7
ENDMDL
MODEL 2
REMARK VINA RESULT: -9.187976467      2.641      3.935
REMARK  7 active torsions:
REMARK  status: ('A' for Active; 'I' for Inactive)
REMARK    1  A    between atoms: C2_2  and  C3_3 
REMARK    2  A    between atoms: C4_4  and  C5_5 
REMARK    3  A    between atoms: C13_15  and  C14_16 
REMARK    4  A    between atoms: C14_16  and  C15_17 
REMARK    5  A    between atoms: C15_17  and  C17_19 
REMARK    6  A    between atoms: C18_20  and  C19_21 
REMARK    7  A    between atoms: C20_22  and  O2_23 
ROOT
HETATM    1  C14 UNL     1     -13.402  -6.603  40.221  1.00  0.00     0.035 C 
ENDROOT
BRANCH   1   2
HETATM    2  C13 UNL     1     -12.370  -5.933  39.433  1.00  0.00    -0.019 C 
HETATM    3  C2  UNL     1     -11.491  -5.042  39.897  1.00  0.00    -0.066 C 
HETATM    4  C1  UNL     1     -11.540  -4.673  41.335  1.00  0.00     0.048 C 
BRANCH   3   5
HETATM    5  C3  UNL     1     -10.524  -4.465  38.989  1.00  0.00     0.003 C 
HETATM    6  C4  UNL     1      -9.685  -5.129  38.237  1.00  0.00    -0.013 C 
BRANCH   6   7
HETATM    7  C5  UNL     1      -8.718  -4.419  37.324  1.00  0.00     0.019 C 
HETATM    8  C6  UNL     1      -8.603  -5.189  36.060  1.00  0.00     0.017 C 
HETATM    9  C7  UNL     1      -8.128  -4.379  34.885  1.00  0.00     0.001 C 
HETATM   10  C8  UNL     1      -8.820  -3.066  34.733  1.00  0.00     0.003 C 
HETATM   11  C9  UNL     1      -9.863  -2.822  35.803  1.00  0.00     0.035 C 
HETATM   12  C10 UNL     1      -9.168  -2.990  37.138  1.00  0.00     0.159 C 
HETATM   13  O1  UNL     1      -7.986  -2.296  37.101  1.00  0.00    -0.297 OA
HETATM   14  N1  UNL     1      -7.107  -2.865  37.920  1.00  0.00    -0.200 NA
HETATM   15  C11 UNL     1      -6.960  -2.142  39.144  1.00  0.00     0.143 C 
HETATM   16  C12 UNL     1      -7.430  -4.251  38.076  1.00  0.00     0.136 C 
ENDBRANCH   6   7
ENDBRANCH   3   5
ENDBRANCH   1   2
BRANCH   1  17
HETATM   17  C15 UNL     1     -14.727  -6.699  39.498  1.00  0.00     0.007 C 
HETATM   18  C16 UNL     1     -15.225  -5.332  39.154  1.00  0.00     0.014 C 
BRANCH  17  19
HETATM   19  C17 UNL     1     -14.571  -7.515  38.233  1.00  0.00    -0.021 C 
HETATM   20  C18 UNL     1     -14.083  -8.715  38.282  1.00  0.00     0.018 C 
BRANCH  20  21
HETATM   21  C19 UNL     1     -13.851  -9.655  37.224  1.00  0.00     0.083 A 
HETATM   22  C20 UNL     1     -14.797 -10.484  36.699  1.00  0.00     0.158 A 
HETATM   23  N2  UNL     1     -14.468 -11.350  35.683  1.00  0.00    -0.313 N 
HETATM   24  C21 UNL     1     -13.218 -11.374  35.213  1.00  0.00     0.180 A 
ATOM     25  H2  UNL     1     -15.175 -11.971  35.289  1.00  0.00     0.170 HD
HETATM   26  S1  UNL     1     -12.865 -12.416  34.005  1.00  0.00    -0.040 SA
HETATM   27  N3  UNL     1     -12.281 -10.564  35.720  1.00  0.00    -0.299 N 
HETATM   28  C22 UNL     1     -12.538  -9.702  36.707  1.00  0.00     0.262 A 
ATOM     29  H3  UNL     1     -11.336 -10.607  35.338  1.00  0.00     0.171 HD
HETATM   30  O3  UNL     1     -11.633  -8.946  37.170  1.00  0.00    -0.267 OA
BRANCH  22  31
HETATM   31  O2  UNL     1     -16.098 -10.476  37.170  1.00  0.00    -0.345 OA
ATOM     32  H2  UNL     1     -16.285 -10.407  38.099  1.00  0.00     0.219 HD
ENDBRANCH  22  31
ENDBRANCH  20  21
ENDBRANCH  17  19
ENDBRANCH   1  17
TORSDOF 7
ENDMDL
MODEL 3
REMARK VINA RESULT: -9.068381988      2.852      4.071
REMARK  7 active torsions:
REMARK  status: ('A' for Active; 'I' for Inactive)
REMARK    1  A    between atoms: C2_2  and  C3_3 
REMARK    2  A    between atoms: C4_4  and  C5_5 
REMARK    3  A    between atoms: C13_15  and  C14_16 
REMARK    4  A    between atoms: C14_16  and  C15_17 
REMARK    5  A    between atoms: C15_17  and  C17_19 
REMARK    6  A    between atoms: C18_20  and  C19_21 
REMARK    7  A    between atoms: C20_22  and  O2_23 
ROOT
HETATM    1  C14 UNL     1     -13.023  -7.547  40.004  1.00  0.00     0.035 C 
ENDROOT
BRANCH   1   2
HETATM    2  C13 UNL     1     -12.015  -6.598  39.537  1.00  0.00    -0.019 C 
HETATM    3  C2  UNL     1     -11.580  -5.530  40.210  1.00  0.00    -0.066 C 
HETATM    4  C1  UNL     1     -12.151  -5.250  41.552  1.00  0.00     0.048 C 
BRANCH   3   5
HETATM    5  C3  UNL     1     -10.570  -4.683  39.613  1.00  0.00     0.003 C 
HETATM    6  C4  UNL     1     -10.373  -4.508  38.333  1.00  0.00    -0.013 C 
BRANCH   6   7
HETATM    7  C5  UNL     1      -9.285  -3.597  37.824  1.00  0.00     0.019 C 
HETATM    8  C6  UNL     1      -9.053  -2.526  38.826  1.00  0.00     0.017 C 
HETATM    9  C7  UNL     1      -7.696  -1.882  38.738  1.00  0.00     0.001 C 
HETATM   10  C8  UNL     1      -6.570  -2.853  38.617  1.00  0.00     0.003 C 
HETATM   11  C9  UNL     1      -7.032  -4.295  38.607  1.00  0.00     0.035 C 
HETATM   12  C10 UNL     1      -8.060  -4.417  37.501  1.00  0.00     0.159 C 
HETATM   13  O1  UNL     1      -7.564  -3.805  36.380  1.00  0.00    -0.297 OA
HETATM   14  N1  UNL     1      -8.568  -3.352  35.636  1.00  0.00    -0.200 NA
HETATM   15  C11 UNL     1      -8.822  -4.187  34.504  1.00  0.00     0.143 C 
HETATM   16  C12 UNL     1      -9.706  -3.107  36.469  1.00  0.00     0.136 C 
ENDBRANCH   6   7
ENDBRANCH   3   5
ENDBRANCH   1   2
BRANCH   1  17
HETATM   17  C15 UNL     1     -14.276  -7.540  39.157  1.00  0.00     0.007 C 
HETATM   18  C16 UNL     1     -14.921  -6.192  39.205  1.00  0.00     0.014 C 
BRANCH  17  19
HETATM   19  C17 UNL     1     -13.937  -7.889  37.724  1.00  0.00    -0.021 C 
HETATM   20  C18 UNL     1     -13.351  -9.010  37.442  1.00  0.00     0.018 C 
BRANCH  20  21
HETATM   21  C19 UNL     1     -12.944  -9.539  36.174  1.00  0.00     0.083 A 
HETATM   22  C20 UNL     1     -11.827  -9.153  35.493  1.00  0.00     0.158 A 
HETATM   23  N2  UNL     1     -11.527  -9.727  34.280  1.00  0.00    -0.313 N 
HETATM   24  C21 UNL     1     -12.333 -10.663  33.773  1.00  0.00     0.180 A 
ATOM     25  H2  UNL     1     -10.692  -9.439  33.769  1.00  0.00     0.170 HD
HETATM   26  S1  UNL     1     -11.942 -11.322  32.330  1.00  0.00    -0.040 SA
HETATM   27  N3  UNL     1     -13.430 -11.051  34.432  1.00  0.00    -0.299 N 
HETATM   28  C22 UNL     1     -13.776 -10.531  35.614  1.00  0.00     0.262 A 
ATOM     29  H3  UNL     1     -14.025 -11.769  34.018  1.00  0.00     0.171 HD
HETATM   30  O3  UNL     1     -14.821 -10.916  36.218  1.00  0.00    -0.267 OA
BRANCH  22  31
HETATM   31  O2  UNL     1     -10.979  -8.185  35.998  1.00  0.00    -0.345 OA
ATOM     32  H2  UNL     1     -10.160  -7.973  35.566  1.00  0.00     0.219 HD
ENDBRANCH  22  31
ENDBRANCH  20  21
ENDBRANCH  17  19
ENDBRANCH   1  17
TORSDOF 7
ENDMDL
MODEL 4
REMARK VINA RESULT: -8.999294406      4.135      6.064
REMARK  7 active torsions:
REMARK  status: ('A' for Active; 'I' for Inactive)
REMARK    1  A    between atoms: C2_2  and  C3_3 
REMARK    2  A    between atoms: C4_4  and  C5_5 
REMARK    3  A    between atoms: C13_15  and  C14_16 
REMARK    4  A    between atoms: C14_16  and  C15_17 
REMARK    5  A    between atoms: C15_17  and  C17_19 
REMARK    6  A    between atoms: C18_20  and  C19_21 
REMARK    7  A    between atoms: C20_22  and  O2_23 
ROOT
HETATM    1  C14 UNL     1     -12.406  -1.312  33.459  1.00  0.00     0.035 C 
ENDROOT
BRANCH   1   2
HETATM    2  C13 UNL     1     -11.607  -2.028  34.450  1.00  0.00    -0.019 C 
HETATM    3  C2  UNL     1     -11.398  -3.347  34.476  1.00  0.00    -0.066 C 
HETATM    4  C1  UNL     1     -12.019  -4.190  33.423  1.00  0.00     0.048 C 
BRANCH   3   5
HETATM    5  C3  UNL     1     -10.577  -3.910  35.525  1.00  0.00     0.003 C 
HETATM    6  C4  UNL     1     -10.076  -3.259  36.543  1.00  0.00    -0.013 C 
BRANCH   6   7
HETATM    7  C5  UNL     1      -9.230  -3.953  37.579  1.00  0.00     0.019 C 
HETATM    8  C6  UNL     1      -7.876  -4.183  37.013  1.00  0.00     0.017 C 
HETATM    9  C7  UNL     1      -6.798  -4.360  38.047  1.00  0.00     0.001 C 
HETATM   10  C8  UNL     1      -6.832  -3.347  39.141  1.00  0.00     0.003 C 
HETATM   11  C9  UNL     1      -7.956  -2.345  38.982  1.00  0.00     0.035 C 
HETATM   12  C10 UNL     1      -9.238  -3.142  38.852  1.00  0.00     0.159 C 
HETATM   13  O1  UNL     1      -9.252  -4.102  39.831  1.00  0.00    -0.297 OA
HETATM   14  N1  UNL     1      -9.965  -5.146  39.423  1.00  0.00    -0.200 NA
HETATM   15  C11 UNL     1     -11.265  -5.180  40.017  1.00  0.00     0.143 C 
HETATM   16  C12 UNL     1      -9.957  -5.199  37.992  1.00  0.00     0.136 C 
ENDBRANCH   6   7
ENDBRANCH   3   5
ENDBRANCH   1   2
BRANCH   1  17
HETATM   17  C15 UNL     1     -13.074  -0.077  34.020  1.00  0.00     0.007 C 
HETATM   18  C16 UNL     1     -14.148   0.393  33.092  1.00  0.00     0.014 C 
BRANCH  17  19
HETATM   19  C17 UNL     1     -13.673  -0.380  35.376  1.00  0.00    -0.021 C 
HETATM   20  C18 UNL     1     -13.455   0.408  36.381  1.00  0.00     0.018 C 
BRANCH  20  21
HETATM   21  C19 UNL     1     -13.916   0.318  37.736  1.00  0.00     0.083 A 
HETATM   22  C20 UNL     1     -13.332  -0.441  38.706  1.00  0.00     0.158 A 
HETATM   23  N2  UNL     1     -13.856  -0.456  39.978  1.00  0.00    -0.313 N 
HETATM   24  C21 UNL     1     -14.937   0.275  40.257  1.00  0.00     0.180 A 
ATOM     25  H2  UNL     1     -13.420  -1.024  40.705  1.00  0.00     0.170 HD
HETATM   26  S1  UNL     1     -15.530   0.233  41.779  1.00  0.00    -0.040 SA
HETATM   27  N3  UNL     1     -15.518   1.025  39.313  1.00  0.00    -0.299 N 
HETATM   28  C22 UNL     1     -15.057   1.082  38.060  1.00  0.00     0.262 A 
ATOM     29  H3  UNL     1     -16.343   1.574  39.559  1.00  0.00     0.171 HD
HETATM   30  O3  UNL     1     -15.626   1.799  37.185  1.00  0.00    -0.267 OA
BRANCH  22  31
HETATM   31  O2  UNL     1     -12.212  -1.207  38.440  1.00  0.00    -0.345 OA
ATOM     32  H2  UNL     1     -11.426  -0.820  38.072  1.00  0.00     0.219 HD
ENDBRANCH  22  31
ENDBRANCH  20  21
ENDBRANCH  17  19
ENDBRANCH   1  17
TORSDOF 7
ENDMDL
MODEL 5
REMARK VINA RESULT: -8.807083214      4.182      6.242
REMARK  7 active torsions:
REMARK  status: ('A' for Active; 'I' for Inactive)
REMARK    1  A    between atoms: C2_2  and  C3_3 
REMARK    2  A    between atoms: C4_4  and  C5_5 
REMARK    3  A    between atoms: C13_15  and  C14_16 
REMARK    4  A    between atoms: C14_16  and  C15_17 
REMARK    5  A    between atoms: C15_17  and  C17_19 
REMARK    6  A    between atoms: C18_20  and  C19_21 
REMARK    7  A    between atoms: C20_22  and  O2_23 
ROOT
HETATM    1  C14 UNL     1     -12.377  -1.322  33.530  1.00  0.00     0.035 C 
ENDROOT
BRANCH   1   2
HETATM    2  C13 UNL     1     -11.805  -2.037  34.668  1.00  0.00    -0.019 C 
HETATM    3  C2  UNL     1     -11.657  -3.361  34.761  1.00  0.00    -0.066 C 
HETATM    4  C1  UNL     1     -12.104  -4.211  33.628  1.00  0.00     0.048 C 
BRANCH   3   5
HETATM    5  C3  UNL     1     -11.068  -3.923  35.957  1.00  0.00     0.003 C 
HETATM    6  C4  UNL     1     -11.720  -4.356  37.005  1.00  0.00    -0.013 C 
BRANCH   6   7
HETATM    7  C5  UNL     1     -10.997  -4.923  38.200  1.00  0.00     0.019 C 
HETATM    8  C6  UNL     1      -9.835  -4.052  38.511  1.00  0.00     0.017 C 
HETATM    9  C7  UNL     1      -9.349  -4.156  39.931  1.00  0.00     0.001 C 
HETATM   10  C8  UNL     1     -10.437  -4.102  40.951  1.00  0.00     0.003 C 
HETATM   11  C9  UNL     1     -11.813  -3.954  40.338  1.00  0.00     0.035 C 
HETATM   12  C10 UNL     1     -11.973  -5.083  39.340  1.00  0.00     0.159 C 
HETATM   13  O1  UNL     1     -11.563  -6.248  39.937  1.00  0.00    -0.297 OA
HETATM   14  N1  UNL     1     -11.111  -7.088  39.012  1.00  0.00    -0.200 NA
HETATM   15  C11 UNL     1     -12.055  -8.118  38.708  1.00  0.00     0.143 C 
HETATM   16  C12 UNL     1     -10.646  -6.346  37.879  1.00  0.00     0.136 C 
ENDBRANCH   6   7
ENDBRANCH   3   5
ENDBRANCH   1   2
BRANCH   1  17
HETATM   17  C15 UNL     1     -13.066  -0.036  33.927  1.00  0.00     0.007 C 
HETATM   18  C16 UNL     1     -14.028   0.382  32.862  1.00  0.00     0.014 C 
BRANCH  17  19
HETATM   19  C17 UNL     1     -13.808  -0.226  35.233  1.00  0.00    -0.021 C 
HETATM   20  C18 UNL     1     -13.426   0.399  36.302  1.00  0.00     0.018 C 
BRANCH  20  21
HETATM   21  C19 UNL     1     -13.973   0.371  37.627  1.00  0.00     0.083 A 
HETATM   22  C20 UNL     1     -15.080   1.059  38.026  1.00  0.00     0.158 A 
HETATM   23  N2  UNL     1     -15.522   0.960  39.325  1.00  0.00    -0.313 N 
HETATM   24  C21 UNL     1     -14.863   0.188  40.191  1.00  0.00     0.180 A 
ATOM     25  H2  UNL     1     -16.350   1.475  39.624  1.00  0.00     0.170 HD
HETATM   26  S1  UNL     1     -15.419   0.095  41.725  1.00  0.00    -0.040 SA
HETATM   27  N3  UNL     1     -13.776  -0.493  39.811  1.00  0.00    -0.299 N 
HETATM   28  C22 UNL     1     -13.297  -0.439  38.565  1.00  0.00     0.262 A 
ATOM     29  H3  UNL     1     -13.296  -1.076  40.497  1.00  0.00     0.171 HD
HETATM   30  O3  UNL     1     -12.265  -1.093  38.230  1.00  0.00    -0.267 OA
BRANCH  22  31
HETATM   31  O2  UNL     1     -15.778   1.866  37.146  1.00  0.00    -0.345 OA
ATOM     32  H2  UNL     1     -16.726   1.834  37.095  1.00  0.00     0.219 HD
ENDBRANCH  22  31
ENDBRANCH  20  21
ENDBRANCH  17  19
ENDBRANCH   1  17
TORSDOF 7
ENDMDL
