MODEL 1
REMARK VINA RESULT: -7.818731464      0.000      0.000
REMARK  9 active torsions:
REMARK  status: ('A' for Active; 'I' for Inactive)
REMARK    1  A    between atoms: C2_2  and  S1_3 
REMARK    2  A    between atoms: S1_3  and  C3_4 
REMARK    3  A    between atoms: C3_4  and  C4_5 
REMARK    4  A    between atoms: C3_4  and  C14_24 
REMARK    5  A    between atoms: C5_6  and  C6_7 
REMARK    6  A    between atoms: C9_10  and  C10_11 
REMARK    7  A    between atoms: C12_13  and  N1_14 
REMARK    8  A    between atoms: C14_24  and  C15_25 
REMARK    9  A    between atoms: C15_25  and  N4_26 
ROOT
HETATM    1  C6  UNL     1     -15.196  -9.766  37.066  1.00  0.00     0.059 A 
HETATM    2  C7  UNL     1     -15.437 -10.987  36.493  1.00  0.00     0.029 A 
HETATM    3  C8  UNL     1     -16.669 -11.215  36.029  1.00  0.00     0.023 A 
HETATM    4  C9  UNL     1     -17.596 -10.217  36.159  1.00  0.00     0.033 A 
HETATM    5  S3  UNL     1     -16.700  -8.978  36.936  1.00  0.00    -0.079 SA
ENDROOT
BRANCH   1   6
HETATM    6  C5  UNL     1     -13.944  -9.298  37.650  1.00  0.00    -0.058 C 
HETATM    7  C4  UNL     1     -12.902  -8.904  38.104  1.00  0.00    -0.085 C 
BRANCH   7   8
HETATM    8  C3  UNL     1     -11.613  -8.411  38.629  1.00  0.00     0.131 C 
BRANCH   8   9
HETATM    9  S1  UNL     1     -11.526  -6.592  38.444  1.00  0.00    -0.152 SA
BRANCH   9  10
HETATM   10  C2  UNL     1     -11.542  -5.821  40.098  1.00  0.00     0.070 C 
HETATM   11  C1  UNL     1     -12.583  -6.502  40.926  1.00  0.00     0.016 C 
ENDBRANCH   9  10
ENDBRANCH   8   9
BRANCH   8  12
HETATM   12  C14 UNL     1     -10.525  -9.004  37.778  1.00  0.00     0.073 C 
BRANCH  12  13
HETATM   13  C15 UNL     1     -10.555  -8.498  36.345  1.00  0.00     0.070 C 
BRANCH  13  14
HETATM   14  N4  UNL     1     -10.741  -9.462  35.367  1.00  0.00    -0.354 N 
HETATM   15  C16 UNL     1     -10.788 -10.806  35.774  1.00  0.00     0.068 C 
HETATM   16  C17 UNL     1     -11.999 -11.561  35.276  1.00  0.00     0.045 C 
HETATM   17  C18 UNL     1     -12.542 -10.895  34.057  1.00  0.00     0.010 C 
HETATM   18  C19 UNL     1     -11.457 -10.295  33.192  1.00  0.00     0.045 C 
HETATM   19  C20 UNL     1     -10.834  -9.167  34.012  1.00  0.00     0.068 C 
ENDBRANCH  13  14
ENDBRANCH  12  13
ENDBRANCH   8  12
ENDBRANCH   7   8
ENDBRANCH   1   6
BRANCH   4  20
HETATM   20  C10 UNL     1     -19.007 -10.222  35.757  1.00  0.00     0.055 A 
HETATM   21  C11 UNL     1     -19.441  -9.337  34.835  1.00  0.00     0.079 A 
HETATM   22  C12 UNL     1     -20.794  -9.403  34.474  1.00  0.00     0.102 A 
HETATM   23  N2  UNL     1     -21.626 -10.308  35.020  1.00  0.00    -0.320 N 
HETATM   24  C13 UNL     1     -21.154 -11.172  35.935  1.00  0.00     0.177 A 
ATOM     25  H2  UNL     1     -22.606 -10.339  34.743  1.00  0.00     0.169 HD
HETATM   26  S2  UNL     1     -22.165 -12.268  36.596  1.00  0.00    -0.040 SA
HETATM   27  N3  UNL     1     -19.836 -11.117  36.295  1.00  0.00    -0.332 N 
ATOM     28  H3  UNL     1     -19.480 -11.774  36.988  1.00  0.00     0.168 HD
BRANCH  22  29
HETATM   29  N1  UNL     1     -21.308  -8.606  33.601  1.00  0.00    -0.385 N 
ATOM     30  H12 UNL     1     -21.371  -7.623  33.866  1.00  0.00     0.157 HD
ATOM     31  H11 UNL     1     -21.637  -8.938  32.694  1.00  0.00     0.157 HD
ENDBRANCH  22  29
ENDBRANCH   4  20
TORSDOF 9
ENDMDL
MODEL 2
REMARK VINA RESULT: -7.599027590      7.554      9.589
REMARK  9 active torsions:
REMARK  status: ('A' for Active; 'I' for Inactive)
REMARK    1  A    between atoms: C2_2  and  S1_3 
REMARK    2  A    between atoms: S1_3  and  C3_4 
REMARK    3  A    between atoms: C3_4  and  C4_5 
REMARK    4  A    between atoms: C3_4  and  C14_24 
REMARK    5  A    between atoms: C5_6  and  C6_7 
REMARK    6  A    between atoms: C9_10  and  C10_11 
REMARK    7  A    between atoms: C12_13  and  N1_14 
REMARK    8  A    between atoms: C14_24  and  C15_25 
REMARK    9  A    between atoms: C15_25  and  N4_26 
ROOT
HETATM    1  C6  UNL     1     -12.347  -1.608  36.796  1.00  0.00     0.059 A 
HETATM    2  C7  UNL     1     -12.867  -0.842  37.806  1.00  0.00     0.029 A 
HETATM    3  C8  UNL     1     -13.651   0.183  37.459  1.00  0.00     0.023 A 
HETATM    4  C9  UNL     1     -13.877   0.391  36.125  1.00  0.00     0.033 A 
HETATM    5  S3  UNL     1     -12.972  -0.870  35.395  1.00  0.00    -0.079 SA
ENDROOT
BRANCH   1   6
HETATM    6  C5  UNL     1     -11.461  -2.759  36.930  1.00  0.00    -0.058 C 
HETATM    7  C4  UNL     1     -10.713  -3.692  37.059  1.00  0.00    -0.085 C 
BRANCH   7   8
HETATM    8  C3  UNL     1      -9.775  -4.818  37.238  1.00  0.00     0.131 C 
BRANCH   8   9
HETATM    9  S1  UNL     1      -8.866  -4.621  38.815  1.00  0.00    -0.152 SA
BRANCH   9  10
HETATM   10  C2  UNL     1      -7.104  -4.314  38.455  1.00  0.00     0.070 C 
HETATM   11  C1  UNL     1      -6.790  -2.897  38.810  1.00  0.00     0.016 C 
ENDBRANCH   9  10
ENDBRANCH   8   9
BRANCH   8  12
HETATM   12  C14 UNL     1      -8.768  -4.744  36.124  1.00  0.00     0.073 C 
BRANCH  12  13
HETATM   13  C15 UNL     1      -8.898  -5.889  35.133  1.00  0.00     0.070 C 
BRANCH  13  14
HETATM   14  N4  UNL     1      -9.935  -5.785  34.221  1.00  0.00    -0.354 N 
HETATM   15  C16 UNL     1     -10.983  -6.716  34.313  1.00  0.00     0.068 C 
HETATM   16  C17 UNL     1     -12.359  -6.093  34.370  1.00  0.00     0.045 C 
HETATM   17  C18 UNL     1     -12.321  -4.729  33.768  1.00  0.00     0.010 C 
HETATM   18  C19 UNL     1     -11.355  -4.634  32.609  1.00  0.00     0.045 C 
HETATM   19  C20 UNL     1      -9.960  -4.843  33.198  1.00  0.00     0.068 C 
ENDBRANCH  13  14
ENDBRANCH  12  13
ENDBRANCH   8  12
ENDBRANCH   7   8
ENDBRANCH   1   6
BRANCH   4  20
HETATM   20  C10 UNL     1     -14.672   1.446  35.486  1.00  0.00     0.055 A 
HETATM   21  C11 UNL     1     -14.333   1.882  34.255  1.00  0.00     0.079 A 
HETATM   22  C12 UNL     1     -15.143   2.876  33.686  1.00  0.00     0.102 A 
HETATM   23  N2  UNL     1     -16.210   3.374  34.336  1.00  0.00    -0.320 N 
HETATM   24  C13 UNL     1     -16.512   2.913  35.561  1.00  0.00     0.177 A 
ATOM     25  H2  UNL     1     -16.784   4.097  33.904  1.00  0.00     0.169 HD
HETATM   26  S2  UNL     1     -17.807   3.519  36.347  1.00  0.00    -0.040 SA
HETATM   27  N3  UNL     1     -15.730   1.943  36.126  1.00  0.00    -0.332 N 
ATOM     28  H3  UNL     1     -15.962   1.593  37.055  1.00  0.00     0.168 HD
BRANCH  22  29
HETATM   29  N1  UNL     1     -14.909   3.359  32.514  1.00  0.00    -0.385 N 
ATOM     30  H12 UNL     1     -15.155   2.767  31.721  1.00  0.00     0.157 HD
ATOM     31  H11 UNL     1     -14.496   4.283  32.383  1.00  0.00     0.157 HD
ENDBRANCH  22  29
ENDBRANCH   4  20
TORSDOF 9
ENDMDL
MODEL 3
REMARK VINA RESULT: -7.574878659      1.688      4.316
REMARK  9 active torsions:
REMARK  status: ('A' for Active; 'I' for Inactive)
REMARK    1  A    between atoms: C2_2  and  S1_3 
REMARK    2  A    between atoms: S1_3  and  C3_4 
REMARK    3  A    between atoms: C3_4  and  C4_5 
REMARK    4  A    between atoms: C3_4  and  C14_24 
REMARK    5  A    between atoms: C5_6  and  C6_7 
REMARK    6  A    between atoms: C9_10  and  C10_11 
REMARK    7  A    between atoms: C12_13  and  N1_14 
REMARK    8  A    between atoms: C14_24  and  C15_25 
REMARK    9  A    between atoms: C15_25  and  N4_26 
ROOT
HETATM    1  C6  UNL     1     -15.360  -8.985  36.373  1.00  0.00     0.059 A 
HETATM    2  C7  UNL     1     -16.189  -8.566  37.380  1.00  0.00     0.029 A 
HETATM    3  C8  UNL     1     -17.502  -8.749  37.209  1.00  0.00     0.023 A 
HETATM    4  C9  UNL     1     -17.920  -9.340  36.048  1.00  0.00     0.033 A 
HETATM    5  S3  UNL     1     -16.443  -9.622  35.224  1.00  0.00    -0.079 SA
ENDROOT
BRANCH   1   6
HETATM    6  C5  UNL     1     -13.906  -8.879  36.328  1.00  0.00    -0.058 C 
HETATM    7  C4  UNL     1     -12.708  -8.768  36.311  1.00  0.00    -0.085 C 
BRANCH   7   8
HETATM    8  C3  UNL     1     -11.240  -8.605  36.312  1.00  0.00     0.131 C 
BRANCH   8   9
HETATM    9  S1  UNL     1     -10.440 -10.218  35.985  1.00  0.00    -0.152 SA
BRANCH   9  10
HETATM   10  C2  UNL     1     -11.578 -11.265  35.016  1.00  0.00     0.070 C 
HETATM   11  C1  UNL     1     -11.530 -10.820  33.590  1.00  0.00     0.016 C 
ENDBRANCH   9  10
ENDBRANCH   8   9
BRANCH   8  12
HETATM   12  C14 UNL     1     -10.837  -8.172  37.693  1.00  0.00     0.073 C 
BRANCH  12  13
HETATM   13  C15 UNL     1     -10.696  -6.664  37.823  1.00  0.00     0.070 C 
BRANCH  13  14
HETATM   14  N4  UNL     1     -11.449  -6.070  38.822  1.00  0.00    -0.354 N 
HETATM   15  C16 UNL     1     -12.848  -6.141  38.716  1.00  0.00     0.068 C 
HETATM   16  C17 UNL     1     -13.535  -6.669  39.955  1.00  0.00     0.045 C 
HETATM   17  C18 UNL     1     -12.660  -6.463  41.144  1.00  0.00     0.010 C 
HETATM   18  C19 UNL     1     -11.854  -5.186  41.057  1.00  0.00     0.045 C 
HETATM   19  C20 UNL     1     -10.890  -5.370  39.886  1.00  0.00     0.068 C 
ENDBRANCH  13  14
ENDBRANCH  12  13
ENDBRANCH   8  12
ENDBRANCH   7   8
ENDBRANCH   1   6
BRANCH   4  20
HETATM   20  C10 UNL     1     -19.290  -9.631  35.612  1.00  0.00     0.055 A 
HETATM   21  C11 UNL     1     -19.860  -8.871  34.653  1.00  0.00     0.079 A 
HETATM   22  C12 UNL     1     -21.164  -9.210  34.261  1.00  0.00     0.102 A 
HETATM   23  N2  UNL     1     -21.819 -10.246  34.816  1.00  0.00    -0.320 N 
HETATM   24  C13 UNL     1     -21.216 -10.977  35.768  1.00  0.00     0.177 A 
ATOM     25  H2  UNL     1     -22.766 -10.475  34.516  1.00  0.00     0.169 HD
HETATM   26  S2  UNL     1     -22.013 -12.232  36.437  1.00  0.00    -0.040 SA
HETATM   27  N3  UNL     1     -19.945 -10.656  36.157  1.00  0.00    -0.332 N 
ATOM     28  H3  UNL     1     -19.488 -11.213  36.880  1.00  0.00     0.168 HD
BRANCH  22  29
HETATM   29  N1  UNL     1     -21.796  -8.552  33.352  1.00  0.00    -0.385 N 
ATOM     30  H12 UNL     1     -21.223  -8.070  32.659  1.00  0.00     0.157 HD
ATOM     31  H11 UNL     1     -22.815  -8.509  33.326  1.00  0.00     0.157 HD
ENDBRANCH  22  29
ENDBRANCH   4  20
TORSDOF 9
ENDMDL
MODEL 4
REMARK VINA RESULT: -7.567303925      5.462      8.629
REMARK  9 active torsions:
REMARK  status: ('A' for Active; 'I' for Inactive)
REMARK    1  A    between atoms: C2_2  and  S1_3 
REMARK    2  A    between atoms: S1_3  and  C3_4 
REMARK    3  A    between atoms: C3_4  and  C4_5 
REMARK    4  A    between atoms: C3_4  and  C14_24 
REMARK    5  A    between atoms: C5_6  and  C6_7 
REMARK    6  A    between atoms: C9_10  and  C10_11 
REMARK    7  A    between atoms: C12_13  and  N1_14 
REMARK    8  A    between atoms: C14_24  and  C15_25 
REMARK    9  A    between atoms: C15_25  and  N4_26 
ROOT
HETATM    1  C6  UNL     1     -13.074  -4.911  38.197  1.00  0.00     0.059 A 
HETATM    2  C7  UNL     1     -13.714  -5.943  38.832  1.00  0.00     0.029 A 
HETATM    3  C8  UNL     1     -13.373  -7.186  38.478  1.00  0.00     0.023 A 
HETATM    4  C9  UNL     1     -12.415  -7.336  37.513  1.00  0.00     0.033 A 
HETATM    5  S3  UNL     1     -12.019  -5.713  37.128  1.00  0.00    -0.079 SA
ENDROOT
BRANCH   1   6
HETATM    6  C5  UNL     1     -13.287  -3.482  38.404  1.00  0.00    -0.058 C 
HETATM    7  C4  UNL     1     -13.435  -2.302  38.588  1.00  0.00    -0.085 C 
BRANCH   7   8
HETATM    8  C3  UNL     1     -13.587  -0.854  38.831  1.00  0.00     0.131 C 
BRANCH   8   9
HETATM    9  S1  UNL     1     -15.351  -0.387  38.698  1.00  0.00    -0.152 SA
BRANCH   9  10
HETATM   10  C2  UNL     1     -16.337  -1.452  39.805  1.00  0.00     0.070 C 
HETATM   11  C1  UNL     1     -17.104  -2.422  38.966  1.00  0.00     0.016 C 
ENDBRANCH   9  10
ENDBRANCH   8   9
BRANCH   8  12
HETATM   12  C14 UNL     1     -12.846  -0.136  37.738  1.00  0.00     0.073 C 
BRANCH  12  13
HETATM   13  C15 UNL     1     -13.763   0.369  36.635  1.00  0.00     0.070 C 
BRANCH  13  14
HETATM   14  N4  UNL     1     -13.644  -0.267  35.410  1.00  0.00    -0.354 N 
HETATM   15  C16 UNL     1     -14.538   0.103  34.392  1.00  0.00     0.068 C 
HETATM   16  C17 UNL     1     -13.871   0.475  33.088  1.00  0.00     0.045 C 
HETATM   17  C18 UNL     1     -12.521  -0.154  33.015  1.00  0.00     0.010 C 
HETATM   18  C19 UNL     1     -12.480  -1.516  33.672  1.00  0.00     0.045 C 
HETATM   19  C20 UNL     1     -12.722  -1.277  35.161  1.00  0.00     0.068 C 
ENDBRANCH  13  14
ENDBRANCH  12  13
ENDBRANCH   8  12
ENDBRANCH   7   8
ENDBRANCH   1   6
BRANCH   4  20
HETATM   20  C10 UNL     1     -11.885  -8.577  36.937  1.00  0.00     0.055 A 
HETATM   21  C11 UNL     1     -10.567  -8.851  37.043  1.00  0.00     0.079 A 
HETATM   22  C12 UNL     1     -10.121 -10.062  36.493  1.00  0.00     0.102 A 
HETATM   23  N2  UNL     1     -10.967 -10.914  35.886  1.00  0.00    -0.320 N 
HETATM   24  C13 UNL     1     -12.271 -10.603  35.802  1.00  0.00     0.177 A 
ATOM     25  H2  UNL     1     -10.621 -11.789  35.493  1.00  0.00     0.169 HD
HETATM   26  S2  UNL     1     -13.294 -11.639  35.066  1.00  0.00    -0.040 SA
HETATM   27  N3  UNL     1     -12.718  -9.425  36.335  1.00  0.00    -0.332 N 
ATOM     28  H3  UNL     1     -13.708  -9.192  36.271  1.00  0.00     0.168 HD
BRANCH  22  29
HETATM   29  N1  UNL     1      -8.884 -10.419  36.543  1.00  0.00    -0.385 N 
ATOM     30  H12 UNL     1      -8.254  -9.804  37.057  1.00  0.00     0.157 HD
ATOM     31  H11 UNL     1      -8.550 -11.270  36.091  1.00  0.00     0.157 HD
ENDBRANCH  22  29
ENDBRANCH   4  20
TORSDOF 9
ENDMDL
MODEL 5
REMARK VINA RESULT: -7.552106928      7.375      9.794
REMARK  9 active torsions:
REMARK  status: ('A' for Active; 'I' for Inactive)
REMARK    1  A    between atoms: C2_2  and  S1_3 
REMARK    2  A    between atoms: S1_3  and  C3_4 
REMARK    3  A    between atoms: C3_4  and  C4_5 
REMARK    4  A    between atoms: C3_4  and  C14_24 
REMARK    5  A    between atoms: C5_6  and  C6_7 
REMARK    6  A    between atoms: C9_10  and  C10_11 
REMARK    7  A    between atoms: C12_13  and  N1_14 
REMARK    8  A    between atoms: C14_24  and  C15_25 
REMARK    9  A    between atoms: C15_25  and  N4_26 
ROOT
HETATM    1  C6  UNL     1     -12.038  -1.664  36.881  1.00  0.00     0.059 A 
HETATM    2  C7  UNL     1     -12.223  -1.824  35.533  1.00  0.00     0.029 A 
HETATM    3  C8  UNL     1     -12.979  -0.918  34.905  1.00  0.00     0.023 A 
HETATM    4  C9  UNL     1     -13.510   0.099  35.652  1.00  0.00     0.033 A 
HETATM    5  S3  UNL     1     -12.926  -0.253  37.226  1.00  0.00    -0.079 SA
ENDROOT
BRANCH   1   6
HETATM    6  C5  UNL     1     -11.271  -2.527  37.773  1.00  0.00    -0.058 C 
HETATM    7  C4  UNL     1     -10.619  -3.245  38.485  1.00  0.00    -0.085 C 
BRANCH   7   8
HETATM    8  C3  UNL     1      -9.799  -4.133  39.333  1.00  0.00     0.131 C 
BRANCH   8   9
HETATM    9  S1  UNL     1      -8.075  -4.156  38.717  1.00  0.00    -0.152 SA
BRANCH   9  10
HETATM   10  C2  UNL     1      -7.629  -2.488  38.128  1.00  0.00     0.070 C 
HETATM   11  C1  UNL     1      -7.113  -1.700  39.289  1.00  0.00     0.016 C 
ENDBRANCH   9  10
ENDBRANCH   8   9
BRANCH   8  12
HETATM   12  C14 UNL     1     -10.348  -5.525  39.188  1.00  0.00     0.073 C 
BRANCH  12  13
HETATM   13  C15 UNL     1     -11.577  -5.767  40.050  1.00  0.00     0.070 C 
BRANCH  13  14
HETATM   14  N4  UNL     1     -12.799  -5.648  39.408  1.00  0.00    -0.354 N 
HETATM   15  C16 UNL     1     -13.050  -6.497  38.317  1.00  0.00     0.068 C 
HETATM   16  C17 UNL     1     -14.353  -7.257  38.413  1.00  0.00     0.045 C 
HETATM   17  C18 UNL     1     -15.292  -6.537  39.319  1.00  0.00     0.010 C 
HETATM   18  C19 UNL     1     -15.150  -5.034  39.226  1.00  0.00     0.045 C 
HETATM   19  C20 UNL     1     -13.757  -4.704  39.759  1.00  0.00     0.068 C 
ENDBRANCH  13  14
ENDBRANCH  12  13
ENDBRANCH   8  12
ENDBRANCH   7   8
ENDBRANCH   1   6
BRANCH   4  20
HETATM   20  C10 UNL     1     -14.381   1.195  35.215  1.00  0.00     0.055 A 
HETATM   21  C11 UNL     1     -14.169   1.778  34.016  1.00  0.00     0.079 A 
HETATM   22  C12 UNL     1     -15.047   2.806  33.642  1.00  0.00     0.102 A 
HETATM   23  N2  UNL     1     -16.057   3.195  34.441  1.00  0.00    -0.320 N 
HETATM   24  C13 UNL     1     -16.233   2.589  35.627  1.00  0.00     0.177 A 
ATOM     25  H2  UNL     1     -16.683   3.945  34.149  1.00  0.00     0.169 HD
HETATM   26  S2  UNL     1     -17.459   3.065  36.593  1.00  0.00    -0.040 SA
HETATM   27  N3  UNL     1     -15.384   1.586  36.003  1.00  0.00    -0.332 N 
ATOM     28  H3  UNL     1     -15.520   1.126  36.903  1.00  0.00     0.168 HD
BRANCH  22  29
HETATM   29  N1  UNL     1     -14.934   3.424  32.518  1.00  0.00    -0.385 N 
ATOM     30  H12 UNL     1     -15.285   4.381  32.488  1.00  0.00     0.157 HD
ATOM     31  H11 UNL     1     -14.518   2.982  31.698  1.00  0.00     0.157 HD
ENDBRANCH  22  29
ENDBRANCH   4  20
TORSDOF 9
ENDMDL
