MODEL 1
REMARK VINA RESULT: -8.342057338      0.000      0.000
REMARK  10 active torsions:
REMARK  status: ('A' for Active; 'I' for Inactive)
REMARK    1  A    between atoms: C4_5  and  C6_7 
REMARK    2  A    between atoms: C6_7  and  O2_8 
REMARK    3  A    between atoms: O2_8  and  O3_9 
REMARK    4  A    between atoms: C12_16  and  C13_17 
REMARK    5  A    between atoms: C13_17  and  O4_18 
REMARK    6  A    between atoms: C13_17  and  C14_20 
REMARK    7  A    between atoms: C14_20  and  C15_21 
REMARK    8  A    between atoms: C15_21  and  C16_22 
REMARK    9  A    between atoms: C16_22  and  C17_23 
REMARK   10  A    between atoms: C17_23  and  O5_26 
ROOT
HETATM    1  C1  UNL     1     -13.780  -7.054  37.410  1.00  0.00     0.017 C 
HETATM    2  C2  UNL     1     -12.701  -7.631  36.914  1.00  0.00    -0.057 C 
HETATM    3  C3  UNL     1     -11.836  -8.414  37.829  1.00  0.00     0.203 C 
HETATM    4  O1  UNL     1     -11.344  -9.565  37.298  1.00  0.00    -0.374 OA
HETATM    5  C4  UNL     1     -11.661  -9.856  36.004  1.00  0.00     0.086 C 
HETATM    6  C5  UNL     1     -10.633 -10.893  35.504  1.00  0.00     0.049 C 
HETATM    7  C7  UNL     1     -11.433  -8.641  35.152  1.00  0.00     0.035 C 
HETATM    8  C8  UNL     1      -9.977  -8.348  35.216  1.00  0.00     0.009 C 
HETATM    9  C9  UNL     1      -9.567  -6.916  35.293  1.00  0.00     0.010 C 
HETATM   10  C10 UNL     1     -10.484  -6.043  34.520  1.00  0.00    -0.033 C 
HETATM   11  C11 UNL     1     -10.480  -6.517  33.080  1.00  0.00     0.016 C 
HETATM   12  C12 UNL     1     -10.180  -4.585  34.530  1.00  0.00     0.023 C 
HETATM   13  C20 UNL     1     -11.222  -3.967  35.375  1.00  0.00     0.008 C 
HETATM   14  C21 UNL     1     -11.845  -5.118  36.132  1.00  0.00     0.007 C 
HETATM   15  C22 UNL     1     -11.901  -6.172  35.039  1.00  0.00     0.007 C 
HETATM   16  C23 UNL     1     -12.358  -7.500  35.446  1.00  0.00    -0.008 C 
HETATM   17  C24 UNL     1     -13.673  -7.780  34.718  1.00  0.00     0.021 C 
ENDROOT
BRANCH  12  18
HETATM   18  C13 UNL     1      -8.829  -4.173  34.971  1.00  0.00     0.123 C 
BRANCH  18  19
HETATM   19  O4  UNL     1      -7.852  -4.197  33.959  1.00  0.00    -0.395 OA
ATOM     20  H4  UNL     1      -7.460  -5.049  33.810  1.00  0.00     0.210 HD
ENDBRANCH  18  19
BRANCH  18  21
HETATM   21  C14 UNL     1      -8.829  -2.748  35.477  1.00  0.00     0.032 C 
BRANCH  21  22
HETATM   22  C15 UNL     1      -8.552  -2.616  36.937  1.00  0.00     0.006 C 
BRANCH  22  23
HETATM   23  C16 UNL     1      -7.897  -3.936  37.367  1.00  0.00     0.037 C 
BRANCH  23  24
HETATM   24  C17 UNL     1      -7.305  -3.806  38.755  1.00  0.00     0.051 C 
HETATM   25  C18 UNL     1      -6.614  -2.458  38.810  1.00  0.00     0.045 C 
HETATM   26  C19 UNL     1      -8.345  -3.830  39.836  1.00  0.00     0.045 C 
BRANCH  24  27
HETATM   27  O5  UNL     1      -6.352  -4.781  39.001  1.00  0.00    -0.391 OA
ATOM     28  H5  UNL     1      -6.747  -5.631  39.156  1.00  0.00     0.210 HD
ENDBRANCH  24  27
ENDBRANCH  23  24
ENDBRANCH  22  23
ENDBRANCH  21  22
ENDBRANCH  18  21
ENDBRANCH  12  18
BRANCH   5  29
HETATM   29  C6  UNL     1     -12.983 -10.523  35.860  1.00  0.00     0.247 C 
BRANCH  29  30
HETATM   30  O2  UNL     1     -12.734 -11.715  35.129  1.00  0.00    -0.240 OA
BRANCH  30  31
HETATM   31  O3  UNL     1     -13.874 -12.305  34.860  1.00  0.00    -0.251 OA
ATOM     32  H3  UNL     1     -13.854 -13.193  35.197  1.00  0.00     0.253 HD
ENDBRANCH  30  31
ENDBRANCH  29  30
ENDBRANCH   5  29
TORSDOF 10
ENDMDL
MODEL 2
REMARK VINA RESULT: -8.336494434      1.183      1.522
REMARK  10 active torsions:
REMARK  status: ('A' for Active; 'I' for Inactive)
REMARK    1  A    between atoms: C4_5  and  C6_7 
REMARK    2  A    between atoms: C6_7  and  O2_8 
REMARK    3  A    between atoms: O2_8  and  O3_9 
REMARK    4  A    between atoms: C12_16  and  C13_17 
REMARK    5  A    between atoms: C13_17  and  O4_18 
REMARK    6  A    between atoms: C13_17  and  C14_20 
REMARK    7  A    between atoms: C14_20  and  C15_21 
REMARK    8  A    between atoms: C15_21  and  C16_22 
REMARK    9  A    between atoms: C16_22  and  C17_23 
REMARK   10  A    between atoms: C17_23  and  O5_26 
ROOT
HETATM    1  C1  UNL     1     -12.408  -8.998  38.514  1.00  0.00     0.017 C 
HETATM    2  C2  UNL     1     -11.902  -8.968  37.295  1.00  0.00    -0.057 C 
HETATM    3  C3  UNL     1     -10.643  -9.707  37.035  1.00  0.00     0.203 C 
HETATM    4  O1  UNL     1     -10.603 -10.354  35.840  1.00  0.00    -0.374 OA
HETATM    5  C4  UNL     1     -11.679 -10.233  35.012  1.00  0.00     0.086 C 
HETATM    6  C5  UNL     1     -11.211 -10.619  33.594  1.00  0.00     0.049 C 
HETATM    7  C7  UNL     1     -12.069  -8.786  34.913  1.00  0.00     0.035 C 
HETATM    8  C8  UNL     1     -10.921  -8.083  34.284  1.00  0.00     0.009 C 
HETATM    9  C9  UNL     1     -10.571  -6.731  34.807  1.00  0.00     0.010 C 
HETATM   10  C10 UNL     1     -11.779  -5.983  35.235  1.00  0.00    -0.033 C 
HETATM   11  C11 UNL     1     -12.705  -5.863  34.041  1.00  0.00     0.016 C 
HETATM   12  C12 UNL     1     -11.554  -4.617  35.787  1.00  0.00     0.023 C 
HETATM   13  C20 UNL     1     -11.806  -4.729  37.238  1.00  0.00     0.008 C 
HETATM   14  C21 UNL     1     -11.780  -6.213  37.528  1.00  0.00     0.007 C 
HETATM   15  C22 UNL     1     -12.521  -6.746  36.313  1.00  0.00     0.007 C 
HETATM   16  C23 UNL     1     -12.593  -8.201  36.189  1.00  0.00    -0.008 C 
HETATM   17  C24 UNL     1     -14.064  -8.602  36.304  1.00  0.00     0.021 C 
ENDROOT
BRANCH  12  18
HETATM   18  C13 UNL     1     -10.243  -3.983  35.526  1.00  0.00     0.123 C 
BRANCH  18  19
HETATM   19  O4  UNL     1     -10.160  -3.300  34.298  1.00  0.00    -0.395 OA
ATOM     20  H4  UNL     1     -10.061  -3.863  33.540  1.00  0.00     0.210 HD
ENDBRANCH  18  19
BRANCH  18  21
HETATM   21  C14 UNL     1      -9.919  -2.942  36.573  1.00  0.00     0.032 C 
BRANCH  21  22
HETATM   22  C15 UNL     1      -8.460  -2.743  36.810  1.00  0.00     0.006 C 
BRANCH  22  23
HETATM   23  C16 UNL     1      -7.936  -4.069  37.379  1.00  0.00     0.037 C 
BRANCH  23  24
HETATM   24  C17 UNL     1      -7.338  -3.855  38.754  1.00  0.00     0.051 C 
HETATM   25  C18 UNL     1      -6.674  -2.492  38.732  1.00  0.00     0.045 C 
HETATM   26  C19 UNL     1      -8.369  -3.843  39.842  1.00  0.00     0.045 C 
BRANCH  24  27
HETATM   27  O5  UNL     1      -6.363  -4.796  39.042  1.00  0.00    -0.391 OA
ATOM     28  H5  UNL     1      -6.237  -4.899  39.978  1.00  0.00     0.210 HD
ENDBRANCH  24  27
ENDBRANCH  23  24
ENDBRANCH  22  23
ENDBRANCH  21  22
ENDBRANCH  18  21
ENDBRANCH  12  18
BRANCH   5  29
HETATM   29  C6  UNL     1     -12.774 -11.190  35.331  1.00  0.00     0.247 C 
BRANCH  29  30
HETATM   30  O2  UNL     1     -12.665 -12.230  34.370  1.00  0.00    -0.240 OA
BRANCH  30  31
HETATM   31  O3  UNL     1     -12.542 -13.380  34.989  1.00  0.00    -0.251 OA
ATOM     32  H3  UNL     1     -12.277 -14.045  34.364  1.00  0.00     0.253 HD
ENDBRANCH  30  31
ENDBRANCH  29  30
ENDBRANCH   5  29
TORSDOF 10
ENDMDL
MODEL 3
REMARK VINA RESULT: -8.244527263      4.893      7.239
REMARK  10 active torsions:
REMARK  status: ('A' for Active; 'I' for Inactive)
REMARK    1  A    between atoms: C4_5  and  C6_7 
REMARK    2  A    between atoms: C6_7  and  O2_8 
REMARK    3  A    between atoms: O2_8  and  O3_9 
REMARK    4  A    between atoms: C12_16  and  C13_17 
REMARK    5  A    between atoms: C13_17  and  O4_18 
REMARK    6  A    between atoms: C13_17  and  C14_20 
REMARK    7  A    between atoms: C14_20  and  C15_21 
REMARK    8  A    between atoms: C15_21  and  C16_22 
REMARK    9  A    between atoms: C16_22  and  C17_23 
REMARK   10  A    between atoms: C17_23  and  O5_26 
ROOT
HETATM    1  C1  UNL     1     -10.395  -3.951  38.120  1.00  0.00     0.017 C 
HETATM    2  C2  UNL     1     -11.672  -4.203  38.341  1.00  0.00    -0.057 C 
HETATM    3  C3  UNL     1     -12.375  -5.138  37.430  1.00  0.00     0.203 C 
HETATM    4  O1  UNL     1     -13.244  -5.983  38.045  1.00  0.00    -0.374 OA
HETATM    5  C4  UNL     1     -13.400  -5.866  39.395  1.00  0.00     0.086 C 
HETATM    6  C5  UNL     1     -14.732  -6.552  39.762  1.00  0.00     0.049 C 
HETATM    7  C7  UNL     1     -13.597  -4.419  39.748  1.00  0.00     0.035 C 
HETATM    8  C8  UNL     1     -14.865  -3.996  39.098  1.00  0.00     0.009 C 
HETATM    9  C9  UNL     1     -14.908  -2.633  38.495  1.00  0.00     0.010 C 
HETATM   10  C10 UNL     1     -14.094  -1.667  39.274  1.00  0.00    -0.033 C 
HETATM   11  C11 UNL     1     -14.631  -1.635  40.691  1.00  0.00     0.016 C 
HETATM   12  C12 UNL     1     -14.052  -0.268  38.762  1.00  0.00     0.023 C 
HETATM   13  C20 UNL     1     -12.696  -0.090  38.204  1.00  0.00     0.008 C 
HETATM   14  C21 UNL     1     -12.145  -1.491  38.057  1.00  0.00     0.007 C 
HETATM   15  C22 UNL     1     -12.652  -2.124  39.342  1.00  0.00     0.007 C 
HETATM   16  C23 UNL     1     -12.399  -3.556  39.499  1.00  0.00    -0.008 C 
HETATM   17  C24 UNL     1     -11.456  -3.731  40.690  1.00  0.00     0.021 C 
ENDROOT
BRANCH  12  18
HETATM   18  C13 UNL     1     -15.084   0.129  37.779  1.00  0.00     0.123 C 
BRANCH  18  19
HETATM   19  O4  UNL     1     -16.254   0.668  38.347  1.00  0.00    -0.395 OA
ATOM     20  H4  UNL     1     -16.916   0.925  37.716  1.00  0.00     0.210 HD
ENDBRANCH  18  19
BRANCH  18  21
HETATM   21  C14 UNL     1     -14.571   1.207  36.851  1.00  0.00     0.032 C 
BRANCH  21  22
HETATM   22  C15 UNL     1     -14.807   0.934  35.404  1.00  0.00     0.006 C 
BRANCH  22  23
HETATM   23  C16 UNL     1     -13.428   0.979  34.732  1.00  0.00     0.037 C 
BRANCH  23  24
HETATM   24  C17 UNL     1     -13.273  -0.173  33.762  1.00  0.00     0.051 C 
HETATM   25  C18 UNL     1     -12.793  -1.362  34.571  1.00  0.00     0.045 C 
HETATM   26  C19 UNL     1     -14.565  -0.560  33.107  1.00  0.00     0.045 C 
BRANCH  24  27
HETATM   27  O5  UNL     1     -12.318   0.093  32.794  1.00  0.00    -0.391 OA
ATOM     28  H5  UNL     1     -12.707   0.443  32.001  1.00  0.00     0.210 HD
ENDBRANCH  24  27
ENDBRANCH  23  24
ENDBRANCH  22  23
ENDBRANCH  21  22
ENDBRANCH  18  21
ENDBRANCH  12  18
BRANCH   5  29
HETATM   29  C6  UNL     1     -12.361  -6.598  40.170  1.00  0.00     0.247 C 
BRANCH  29  30
HETATM   30  O2  UNL     1     -12.893  -6.743  41.479  1.00  0.00    -0.240 OA
BRANCH  30  31
HETATM   31  O3  UNL     1     -12.515  -7.898  41.973  1.00  0.00    -0.251 OA
ATOM     32  H3  UNL     1     -12.865  -8.599  41.436  1.00  0.00     0.253 HD
ENDBRANCH  30  31
ENDBRANCH  29  30
ENDBRANCH   5  29
TORSDOF 10
ENDMDL
MODEL 4
REMARK VINA RESULT: -8.139730356      3.672      8.544
REMARK  10 active torsions:
REMARK  status: ('A' for Active; 'I' for Inactive)
REMARK    1  A    between atoms: C4_5  and  C6_7 
REMARK    2  A    between atoms: C6_7  and  O2_8 
REMARK    3  A    between atoms: O2_8  and  O3_9 
REMARK    4  A    between atoms: C12_16  and  C13_17 
REMARK    5  A    between atoms: C13_17  and  O4_18 
REMARK    6  A    between atoms: C13_17  and  C14_20 
REMARK    7  A    between atoms: C14_20  and  C15_21 
REMARK    8  A    between atoms: C15_21  and  C16_22 
REMARK    9  A    between atoms: C16_22  and  C17_23 
REMARK   10  A    between atoms: C17_23  and  O5_26 
ROOT
HETATM    1  C1  UNL     1     -11.976  -8.176  38.735  1.00  0.00     0.017 C 
HETATM    2  C2  UNL     1     -12.255  -7.778  37.507  1.00  0.00    -0.057 C 
HETATM    3  C3  UNL     1     -12.705  -6.379  37.304  1.00  0.00     0.203 C 
HETATM    4  O1  UNL     1     -12.198  -5.776  36.197  1.00  0.00    -0.374 OA
HETATM    5  C4  UNL     1     -11.377  -6.508  35.391  1.00  0.00     0.086 C 
HETATM    6  C5  UNL     1     -11.340  -5.806  34.018  1.00  0.00     0.049 C 
HETATM    7  C7  UNL     1     -12.006  -7.846  35.127  1.00  0.00     0.035 C 
HETATM    8  C8  UNL     1     -13.265  -7.581  34.384  1.00  0.00     0.009 C 
HETATM    9  C9  UNL     1     -14.455  -8.411  34.729  1.00  0.00     0.010 C 
HETATM   10  C10 UNL     1     -14.066  -9.795  35.096  1.00  0.00    -0.033 C 
HETATM   11  C11 UNL     1     -13.323 -10.401  33.922  1.00  0.00     0.016 C 
HETATM   12  C12 UNL     1     -15.174 -10.719  35.470  1.00  0.00     0.023 C 
HETATM   13  C20 UNL     1     -15.057 -10.908  36.931  1.00  0.00     0.008 C 
HETATM   14  C21 UNL     1     -14.149  -9.793  37.398  1.00  0.00     0.007 C 
HETATM   15  C22 UNL     1     -13.121  -9.784  36.279  1.00  0.00     0.007 C 
HETATM   16  C23 UNL     1     -12.115  -8.724  36.335  1.00  0.00    -0.008 C 
HETATM   17  C24 UNL     1     -10.754  -9.390  36.540  1.00  0.00     0.021 C 
ENDROOT
BRANCH  12  18
HETATM   18  C13 UNL     1     -16.549 -10.323  35.096  1.00  0.00     0.123 C 
BRANCH  18  19
HETATM   19  O4  UNL     1     -17.224 -11.251  34.282  1.00  0.00    -0.395 OA
ATOM     20  H4  UNL     1     -17.907 -10.876  33.740  1.00  0.00     0.210 HD
ENDBRANCH  18  19
BRANCH  18  21
HETATM   21  C14 UNL     1     -17.426 -10.169  36.319  1.00  0.00     0.032 C 
BRANCH  21  22
HETATM   22  C15 UNL     1     -18.448  -9.088  36.208  1.00  0.00     0.006 C 
BRANCH  22  23
HETATM   23  C16 UNL     1     -19.814  -9.786  36.269  1.00  0.00     0.037 C 
BRANCH  23  24
HETATM   24  C17 UNL     1     -20.404  -9.918  34.881  1.00  0.00     0.051 C 
HETATM   25  C18 UNL     1     -21.907  -9.781  35.032  1.00  0.00     0.045 C 
HETATM   26  C19 UNL     1     -19.940  -8.841  33.947  1.00  0.00     0.045 C 
BRANCH  24  27
HETATM   27  O5  UNL     1     -20.146 -11.162  34.328  1.00  0.00    -0.391 OA
ATOM     28  H5  UNL     1     -20.915 -11.528  33.908  1.00  0.00     0.210 HD
ENDBRANCH  24  27
ENDBRANCH  23  24
ENDBRANCH  22  23
ENDBRANCH  21  22
ENDBRANCH  18  21
ENDBRANCH  12  18
BRANCH   5  29
HETATM   29  C6  UNL     1      -9.963  -6.524  35.855  1.00  0.00     0.247 C 
BRANCH  29  30
HETATM   30  O2  UNL     1      -9.176  -6.648  34.679  1.00  0.00    -0.240 OA
BRANCH  30  31
HETATM   31  O3  UNL     1      -8.563  -7.808  34.689  1.00  0.00    -0.251 OA
ATOM     32  H3  UNL     1      -8.364  -8.064  33.796  1.00  0.00     0.253 HD
ENDBRANCH  30  31
ENDBRANCH  29  30
ENDBRANCH   5  29
TORSDOF 10
ENDMDL
MODEL 5
REMARK VINA RESULT: -8.057997871      5.249      7.508
REMARK  10 active torsions:
REMARK  status: ('A' for Active; 'I' for Inactive)
REMARK    1  A    between atoms: C4_5  and  C6_7 
REMARK    2  A    between atoms: C6_7  and  O2_8 
REMARK    3  A    between atoms: O2_8  and  O3_9 
REMARK    4  A    between atoms: C12_16  and  C13_17 
REMARK    5  A    between atoms: C13_17  and  O4_18 
REMARK    6  A    between atoms: C13_17  and  C14_20 
REMARK    7  A    between atoms: C14_20  and  C15_21 
REMARK    8  A    between atoms: C15_21  and  C16_22 
REMARK    9  A    between atoms: C16_22  and  C17_23 
REMARK   10  A    between atoms: C17_23  and  O5_26 
ROOT
HETATM    1  C1  UNL     1     -10.542  -3.539  38.103  1.00  0.00     0.017 C 
HETATM    2  C2  UNL     1     -11.798  -3.876  38.327  1.00  0.00    -0.057 C 
HETATM    3  C3  UNL     1     -12.436  -4.863  37.422  1.00  0.00     0.203 C 
HETATM    4  O1  UNL     1     -13.243  -5.762  38.042  1.00  0.00    -0.374 OA
HETATM    5  C4  UNL     1     -13.406  -5.649  39.391  1.00  0.00     0.086 C 
HETATM    6  C5  UNL     1     -14.687  -6.424  39.764  1.00  0.00     0.049 C 
HETATM    7  C7  UNL     1     -13.703  -4.218  39.737  1.00  0.00     0.035 C 
HETATM    8  C8  UNL     1     -14.998  -3.887  39.086  1.00  0.00     0.009 C 
HETATM    9  C9  UNL     1     -15.135  -2.533  38.476  1.00  0.00     0.010 C 
HETATM   10  C10 UNL     1     -14.389  -1.509  39.249  1.00  0.00    -0.033 C 
HETATM   11  C11 UNL     1     -14.926  -1.507  40.666  1.00  0.00     0.016 C 
HETATM   12  C12 UNL     1     -14.444  -0.114  38.729  1.00  0.00     0.023 C 
HETATM   13  C20 UNL     1     -13.104   0.155  38.169  1.00  0.00     0.008 C 
HETATM   14  C21 UNL     1     -12.458  -1.205  38.030  1.00  0.00     0.007 C 
HETATM   15  C22 UNL     1     -12.919  -1.865  39.319  1.00  0.00     0.007 C 
HETATM   16  C23 UNL     1     -12.567  -3.275  39.483  1.00  0.00    -0.008 C 
HETATM   17  C24 UNL     1     -11.614  -3.378  40.674  1.00  0.00     0.021 C 
ENDROOT
BRANCH  12  18
HETATM   18  C13 UNL     1     -15.502   0.206  37.746  1.00  0.00     0.123 C 
BRANCH  18  19
HETATM   19  O4  UNL     1     -16.813   0.122  38.250  1.00  0.00    -0.395 OA
ATOM     20  H4  UNL     1     -16.889  -0.348  39.073  1.00  0.00     0.210 HD
ENDBRANCH  18  19
BRANCH  18  21
HETATM   21  C14 UNL     1     -15.370   1.626  37.242  1.00  0.00     0.032 C 
BRANCH  21  22
HETATM   22  C15 UNL     1     -15.543   1.772  35.767  1.00  0.00     0.006 C 
BRANCH  22  23
HETATM   23  C16 UNL     1     -15.186   0.408  35.160  1.00  0.00     0.037 C 
BRANCH  23  24
HETATM   24  C17 UNL     1     -14.043   0.549  34.177  1.00  0.00     0.051 C 
HETATM   25  C18 UNL     1     -13.400   1.896  34.446  1.00  0.00     0.045 C 
HETATM   26  C19 UNL     1     -12.989  -0.502  34.356  1.00  0.00     0.045 C 
BRANCH  24  27
HETATM   27  O5  UNL     1     -14.489   0.547  32.865  1.00  0.00    -0.391 OA
ATOM     28  H5  UNL     1     -14.299  -0.275  32.429  1.00  0.00     0.210 HD
ENDBRANCH  24  27
ENDBRANCH  23  24
ENDBRANCH  22  23
ENDBRANCH  21  22
ENDBRANCH  18  21
ENDBRANCH  12  18
BRANCH   5  29
HETATM   29  C6  UNL     1     -12.319  -6.303  40.170  1.00  0.00     0.247 C 
BRANCH  29  30
HETATM   30  O2  UNL     1     -12.790  -7.611  40.460  1.00  0.00    -0.240 OA
BRANCH  30  31
HETATM   31  O3  UNL     1     -12.511  -7.905  41.707  1.00  0.00    -0.251 OA
ATOM     32  H3  UNL     1     -11.690  -8.381  41.741  1.00  0.00     0.253 HD
ENDBRANCH  30  31
ENDBRANCH  29  30
ENDBRANCH   5  29
TORSDOF 10
ENDMDL
