MODEL 1
REMARK VINA RESULT: -8.411836341      0.000      0.000
REMARK  8 active torsions:
REMARK  status: ('A' for Active; 'I' for Inactive)
REMARK    1  A    between atoms: C2_2  and  C3_3 
REMARK    2  A    between atoms: C3_3  and  C4_4 
REMARK    3  A    between atoms: C4_4  and  N1_5 
REMARK    4  A    between atoms: N1_5  and  C5_7 
REMARK    5  A    between atoms: C6_10  and  N3_11 
REMARK    6  A    between atoms: N3_11  and  C7_13 
REMARK    7  A    between atoms: N5_19  and  C11_20 
REMARK    8  A    between atoms: C14_23  and  C15_24 
ROOT
HETATM    1  C5  UNL     1     -12.593  -4.908  39.395  1.00  0.00     0.680 A 
HETATM    2  N2  UNL     1     -11.313  -4.555  39.555  1.00  0.00    -0.175 N 
ATOM      3  H2  UNL     1     -11.076  -3.802  40.200  1.00  0.00     0.186 HD
HETATM    4  C6  UNL     1     -10.322  -5.188  38.867  1.00  0.00     0.148 A 
HETATM    5  C10 UNL     1     -10.735  -6.187  38.022  1.00  0.00     0.122 A 
HETATM    6  N4  UNL     1     -10.044  -6.995  37.239  1.00  0.00    -0.288 N 
ATOM      7  H4  UNL     1      -9.029  -6.973  37.145  1.00  0.00     0.188 HD
HETATM    8  N5  UNL     1     -10.857  -7.862  36.575  1.00  0.00    -0.260 N 
HETATM    9  C14 UNL     1     -12.116  -7.623  36.927  1.00  0.00     0.112 A 
HETATM   10  C21 UNL     1     -12.056  -6.560  37.849  1.00  0.00     0.112 A 
HETATM   11  N7  UNL     1     -12.988  -5.911  38.546  1.00  0.00    -0.187 N 
ATOM     12  H7  UNL     1     -13.974  -6.154  38.449  1.00  0.00     0.184 HD
ENDROOT
BRANCH   9  13
HETATM   13  C15 UNL     1     -13.356  -8.210  36.420  1.00  0.00     0.065 A 
HETATM   14  C16 UNL     1     -13.882  -8.243  35.143  1.00  0.00     0.046 A 
HETATM   15  C17 UNL     1     -15.055  -9.015  35.092  1.00  0.00     0.000 A 
HETATM   16  C18 UNL     1     -15.980  -9.408  34.178  1.00  0.00     0.021 A 
HETATM   17  C20 UNL     1     -15.220  -9.445  36.368  1.00  0.00     0.084 A 
HETATM   18  C19 UNL     1     -16.999 -10.204  34.628  1.00  0.00     0.053 A 
HETATM   19  S1  UNL     1     -16.646 -10.381  36.288  1.00  0.00    -0.083 SA
HETATM   20  N6  UNL     1     -14.219  -8.972  37.163  1.00  0.00    -0.348 N 
ATOM     21  H6  UNL     1     -14.126  -9.158  38.161  1.00  0.00     0.166 HD
ENDBRANCH   9  13
BRANCH   8  22
HETATM   22  C11 UNL     1     -10.313  -8.819  35.637  1.00  0.00     0.005 C 
HETATM   23  C12 UNL     1      -9.467  -8.201  34.547  1.00  0.00     0.065 C 
HETATM   24  C13 UNL     1      -9.781 -10.078  36.224  1.00  0.00     0.065 C 
ENDBRANCH   8  22
BRANCH   4  25
HETATM   25  N3  UNL     1      -9.130  -4.798  39.071  1.00  0.00    -0.370 N 
ATOM     26  H3  UNL     1      -8.745  -5.013  39.991  1.00  0.00     0.161 HD
BRANCH  25  27
HETATM   27  C7  UNL     1      -8.255  -4.096  38.181  1.00  0.00     0.075 C 
HETATM   28  C8  UNL     1      -6.833  -4.380  38.706  1.00  0.00     0.031 C 
HETATM   29  C9  UNL     1      -8.551  -2.615  38.264  1.00  0.00     0.031 C 
ENDBRANCH  25  27
ENDBRANCH   4  25
BRANCH   1  30
HETATM   30  N1  UNL     1     -13.522  -4.306  40.048  1.00  0.00    -0.226 N 
ATOM     31  H1  UNL     1     -14.141  -4.873  40.627  1.00  0.00     0.177 HD
BRANCH  30  32
HETATM   32  C4  UNL     1     -13.745  -2.893  40.018  1.00  0.00     0.138 C 
BRANCH  32  33
HETATM   33  C3  UNL     1     -14.637  -2.542  38.850  1.00  0.00     0.020 C 
BRANCH  33  34
HETATM   34  C2  UNL     1     -15.952  -3.282  38.981  1.00  0.00    -0.003 C 
HETATM   35  C1  UNL     1     -17.126  -2.354  39.004  1.00  0.00     0.005 C 
ENDBRANCH  33  34
ENDBRANCH  32  33
ENDBRANCH  30  32
ENDBRANCH   1  30
TORSDOF 8
ENDMDL
MODEL 2
REMARK VINA RESULT: -8.348711422      0.816      1.016
REMARK  8 active torsions:
REMARK  status: ('A' for Active; 'I' for Inactive)
REMARK    1  A    between atoms: C2_2  and  C3_3 
REMARK    2  A    between atoms: C3_3  and  C4_4 
REMARK    3  A    between atoms: C4_4  and  N1_5 
REMARK    4  A    between atoms: N1_5  and  C5_7 
REMARK    5  A    between atoms: C6_10  and  N3_11 
REMARK    6  A    between atoms: N3_11  and  C7_13 
REMARK    7  A    between atoms: N5_19  and  C11_20 
REMARK    8  A    between atoms: C14_23  and  C15_24 
ROOT
HETATM    1  C5  UNL     1     -12.339  -5.468  39.197  1.00  0.00     0.680 A 
HETATM    2  N2  UNL     1     -11.031  -5.185  39.165  1.00  0.00    -0.175 N 
ATOM      3  H2  UNL     1     -10.642  -4.528  39.840  1.00  0.00     0.186 HD
HETATM    4  C6  UNL     1     -10.213  -5.764  38.241  1.00  0.00     0.148 A 
HETATM    5  C10 UNL     1     -10.824  -6.633  37.374  1.00  0.00     0.122 A 
HETATM    6  N4  UNL     1     -10.329  -7.363  36.392  1.00  0.00    -0.288 N 
ATOM      7  H4  UNL     1      -9.346  -7.366  36.119  1.00  0.00     0.188 HD
HETATM    8  N5  UNL     1     -11.294  -8.108  35.788  1.00  0.00    -0.260 N 
HETATM    9  C14 UNL     1     -12.456  -7.870  36.385  1.00  0.00     0.112 A 
HETATM   10  C21 UNL     1     -12.175  -6.932  37.399  1.00  0.00     0.112 A 
HETATM   11  N7  UNL     1     -12.933  -6.341  38.322  1.00  0.00    -0.187 N 
ATOM     12  H7  UNL     1     -13.933  -6.534  38.376  1.00  0.00     0.184 HD
ENDROOT
BRANCH   9  13
HETATM   13  C15 UNL     1     -13.798  -8.342  36.044  1.00  0.00     0.065 A 
HETATM   14  C16 UNL     1     -14.415  -8.498  34.818  1.00  0.00     0.046 A 
HETATM   15  C17 UNL     1     -15.682  -9.090  34.954  1.00  0.00     0.000 A 
HETATM   16  C18 UNL     1     -16.715  -9.482  34.164  1.00  0.00     0.021 A 
HETATM   17  C20 UNL     1     -15.811  -9.286  36.290  1.00  0.00     0.084 A 
HETATM   18  C19 UNL     1     -17.798 -10.041  34.790  1.00  0.00     0.053 A 
HETATM   19  S1  UNL     1     -17.352 -10.006  36.436  1.00  0.00    -0.083 SA
HETATM   20  N6  UNL     1     -14.700  -8.845  36.944  1.00  0.00    -0.348 N 
ATOM     21  H6  UNL     1     -14.561  -8.884  37.954  1.00  0.00     0.166 HD
ENDBRANCH   9  13
BRANCH   8  22
HETATM   22  C11 UNL     1     -10.978  -8.961  34.663  1.00  0.00     0.005 C 
HETATM   23  C12 UNL     1      -9.925  -8.395  33.737  1.00  0.00     0.065 C 
HETATM   24  C13 UNL     1     -10.856 -10.414  34.959  1.00  0.00     0.065 C 
ENDBRANCH   8  22
BRANCH   4  25
HETATM   25  N3  UNL     1      -8.983  -5.446  38.272  1.00  0.00    -0.370 N 
ATOM     26  H3  UNL     1      -8.324  -6.220  38.180  1.00  0.00     0.161 HD
BRANCH  25  27
HETATM   27  C7  UNL     1      -8.400  -4.147  38.419  1.00  0.00     0.075 C 
HETATM   28  C8  UNL     1      -8.601  -3.459  37.053  1.00  0.00     0.031 C 
HETATM   29  C9  UNL     1      -6.924  -4.299  38.709  1.00  0.00     0.031 C 
ENDBRANCH  25  27
ENDBRANCH   4  25
BRANCH   1  30
HETATM   30  N1  UNL     1     -13.103  -4.918  40.072  1.00  0.00    -0.226 N 
ATOM     31  H1  UNL     1     -13.501  -5.514  40.798  1.00  0.00     0.177 HD
BRANCH  30  32
HETATM   32  C4  UNL     1     -13.431  -3.526  40.097  1.00  0.00     0.138 C 
BRANCH  32  33
HETATM   33  C3  UNL     1     -14.270  -3.177  38.889  1.00  0.00     0.020 C 
BRANCH  33  34
HETATM   34  C2  UNL     1     -15.671  -3.722  39.077  1.00  0.00    -0.003 C 
HETATM   35  C1  UNL     1     -16.710  -2.646  39.022  1.00  0.00     0.005 C 
ENDBRANCH  33  34
ENDBRANCH  32  33
ENDBRANCH  30  32
ENDBRANCH   1  30
TORSDOF 8
ENDMDL
MODEL 3
REMARK VINA RESULT: -8.295245070      2.790      8.170
REMARK  8 active torsions:
REMARK  status: ('A' for Active; 'I' for Inactive)
REMARK    1  A    between atoms: C2_2  and  C3_3 
REMARK    2  A    between atoms: C3_3  and  C4_4 
REMARK    3  A    between atoms: C4_4  and  N1_5 
REMARK    4  A    between atoms: N1_5  and  C5_7 
REMARK    5  A    between atoms: C6_10  and  N3_11 
REMARK    6  A    between atoms: N3_11  and  C7_13 
REMARK    7  A    between atoms: N5_19  and  C11_20 
REMARK    8  A    between atoms: C14_23  and  C15_24 
ROOT
HETATM    1  C5  UNL     1     -11.809  -9.328  36.802  1.00  0.00     0.680 A 
HETATM    2  N2  UNL     1     -13.090  -9.691  36.929  1.00  0.00    -0.175 N 
ATOM      3  H2  UNL     1     -13.386 -10.613  36.610  1.00  0.00     0.186 HD
HETATM    4  C6  UNL     1     -14.005  -8.845  37.480  1.00  0.00     0.148 A 
HETATM    5  C10 UNL     1     -13.517  -7.627  37.880  1.00  0.00     0.122 A 
HETATM    6  N4  UNL     1     -14.119  -6.603  38.457  1.00  0.00    -0.288 N 
ATOM      7  H4  UNL     1     -15.112  -6.579  38.690  1.00  0.00     0.188 HD
HETATM    8  N5  UNL     1     -13.250  -5.585  38.701  1.00  0.00    -0.260 N 
HETATM    9  C14 UNL     1     -12.042  -5.943  38.278  1.00  0.00     0.112 A 
HETATM   10  C21 UNL     1     -12.195  -7.242  37.752  1.00  0.00     0.112 A 
HETATM   11  N7  UNL     1     -11.338  -8.105  37.209  1.00  0.00    -0.187 N 
ATOM     12  H7  UNL     1     -10.353  -7.863  37.097  1.00  0.00     0.184 HD
ENDROOT
BRANCH   9  13
HETATM   13  C15 UNL     1     -10.802  -5.168  38.221  1.00  0.00     0.065 A 
HETATM   14  C16 UNL     1     -10.590  -3.821  38.009  1.00  0.00     0.046 A 
HETATM   15  C17 UNL     1      -9.232  -3.487  38.148  1.00  0.00     0.000 A 
HETATM   16  C18 UNL     1      -8.437  -2.389  38.067  1.00  0.00     0.021 A 
HETATM   17  C20 UNL     1      -8.634  -4.667  38.449  1.00  0.00     0.084 A 
HETATM   18  C19 UNL     1      -7.100  -2.572  38.298  1.00  0.00     0.053 A 
HETATM   19  S1  UNL     1      -6.988  -4.245  38.615  1.00  0.00    -0.083 SA
HETATM   20  N6  UNL     1      -9.556  -5.669  38.494  1.00  0.00    -0.348 N 
ATOM     21  H6  UNL     1      -9.350  -6.647  38.700  1.00  0.00     0.166 HD
ENDBRANCH   9  13
BRANCH   8  22
HETATM   22  C11 UNL     1     -13.702  -4.350  39.301  1.00  0.00     0.005 C 
HETATM   23  C12 UNL     1     -15.182  -4.090  39.136  1.00  0.00     0.065 C 
HETATM   24  C13 UNL     1     -13.143  -4.034  40.643  1.00  0.00     0.065 C 
ENDBRANCH   8  22
BRANCH   4  25
HETATM   25  N3  UNL     1     -15.204  -9.259  37.568  1.00  0.00    -0.370 N 
ATOM     26  H3  UNL     1     -15.560  -9.385  38.515  1.00  0.00     0.161 HD
BRANCH  25  27
HETATM   27  C7  UNL     1     -16.119  -9.573  36.513  1.00  0.00     0.075 C 
HETATM   28  C8  UNL     1     -17.441  -8.884  36.908  1.00  0.00     0.031 C 
HETATM   29  C9  UNL     1     -16.314 -11.072  36.459  1.00  0.00     0.031 C 
ENDBRANCH  25  27
ENDBRANCH   4  25
BRANCH   1  30
HETATM   30  N1  UNL     1     -10.952 -10.133  36.282  1.00  0.00    -0.226 N 
ATOM     31  H1  UNL     1     -10.012 -10.148  36.677  1.00  0.00     0.177 HD
BRANCH  30  32
HETATM   32  C4  UNL     1     -11.230 -11.010  35.187  1.00  0.00     0.138 C 
BRANCH  32  33
HETATM   33  C3  UNL     1     -11.347 -10.211  33.909  1.00  0.00     0.020 C 
BRANCH  33  34
HETATM   34  C2  UNL     1     -12.010 -11.060  32.844  1.00  0.00    -0.003 C 
HETATM   35  C1  UNL     1     -12.359 -12.427  33.344  1.00  0.00     0.005 C 
ENDBRANCH  33  34
ENDBRANCH  32  33
ENDBRANCH  30  32
ENDBRANCH   1  30
TORSDOF 8
ENDMDL
MODEL 4
REMARK VINA RESULT: -8.267924193      2.835      8.217
REMARK  8 active torsions:
REMARK  status: ('A' for Active; 'I' for Inactive)
REMARK    1  A    between atoms: C2_2  and  C3_3 
REMARK    2  A    between atoms: C3_3  and  C4_4 
REMARK    3  A    between atoms: C4_4  and  N1_5 
REMARK    4  A    between atoms: N1_5  and  C5_7 
REMARK    5  A    between atoms: C6_10  and  N3_11 
REMARK    6  A    between atoms: N3_11  and  C7_13 
REMARK    7  A    between atoms: N5_19  and  C11_20 
REMARK    8  A    between atoms: C14_23  and  C15_24 
ROOT
HETATM    1  C5  UNL     1     -12.194  -8.444  35.533  1.00  0.00     0.680 A 
HETATM    2  N2  UNL     1     -13.418  -8.911  35.805  1.00  0.00    -0.175 N 
ATOM      3  H2  UNL     1     -13.822  -9.638  35.214  1.00  0.00     0.186 HD
HETATM    4  C6  UNL     1     -14.133  -8.430  36.860  1.00  0.00     0.148 A 
HETATM    5  C10 UNL     1     -13.511  -7.455  37.598  1.00  0.00     0.122 A 
HETATM    6  N4  UNL     1     -13.908  -6.803  38.675  1.00  0.00    -0.288 N 
ATOM      7  H4  UNL     1     -14.811  -6.942  39.130  1.00  0.00     0.188 HD
HETATM    8  N5  UNL     1     -12.964  -5.920  39.101  1.00  0.00    -0.260 N 
HETATM    9  C14 UNL     1     -11.914  -5.991  38.289  1.00  0.00     0.112 A 
HETATM   10  C21 UNL     1     -12.246  -6.965  37.326  1.00  0.00     0.112 A 
HETATM   11  N7  UNL     1     -11.587  -7.469  36.283  1.00  0.00    -0.187 N 
ATOM     12  H7  UNL     1     -10.652  -7.137  36.048  1.00  0.00     0.184 HD
ENDROOT
BRANCH   9  13
HETATM   13  C15 UNL     1     -10.696  -5.181  38.261  1.00  0.00     0.065 A 
HETATM   14  C16 UNL     1     -10.523  -3.816  38.146  1.00  0.00     0.046 A 
HETATM   15  C17 UNL     1      -9.171  -3.458  38.276  1.00  0.00     0.000 A 
HETATM   16  C18 UNL     1      -8.406  -2.336  38.259  1.00  0.00     0.021 A 
HETATM   17  C20 UNL     1      -8.536  -4.640  38.474  1.00  0.00     0.084 A 
HETATM   18  C19 UNL     1      -7.059  -2.500  38.443  1.00  0.00     0.053 A 
HETATM   19  S1  UNL     1      -6.898  -4.188  38.631  1.00  0.00    -0.083 SA
HETATM   20  N6  UNL     1      -9.432  -5.668  38.465  1.00  0.00    -0.348 N 
ATOM     21  H6  UNL     1      -9.196  -6.652  38.592  1.00  0.00     0.166 HD
ENDBRANCH   9  13
BRANCH   8  22
HETATM   22  C11 UNL     1     -13.202  -5.075  40.250  1.00  0.00     0.005 C 
HETATM   23  C12 UNL     1     -12.165  -5.214  41.342  1.00  0.00     0.065 C 
HETATM   24  C13 UNL     1     -13.640  -3.684  39.957  1.00  0.00     0.065 C 
ENDBRANCH   8  22
BRANCH   4  25
HETATM   25  N3  UNL     1     -15.288  -8.922  37.055  1.00  0.00    -0.370 N 
ATOM     26  H3  UNL     1     -15.668  -8.802  37.995  1.00  0.00     0.161 HD
BRANCH  25  27
HETATM   27  C7  UNL     1     -16.127  -9.623  36.131  1.00  0.00     0.075 C 
HETATM   28  C8  UNL     1     -17.551  -9.097  36.401  1.00  0.00     0.031 C 
HETATM   29  C9  UNL     1     -16.059 -11.105  36.429  1.00  0.00     0.031 C 
ENDBRANCH  25  27
ENDBRANCH   4  25
BRANCH   1  30
HETATM   30  N1  UNL     1     -11.527  -8.905  34.536  1.00  0.00    -0.226 N 
ATOM     31  H1  UNL     1     -11.228  -8.245  33.818  1.00  0.00     0.177 HD
BRANCH  30  32
HETATM   32  C4  UNL     1     -11.176 -10.281  34.366  1.00  0.00     0.138 C 
BRANCH  32  33
HETATM   33  C3  UNL     1     -11.783 -10.809  33.086  1.00  0.00     0.020 C 
BRANCH  33  34
HETATM   34  C2  UNL     1     -12.259 -12.230  33.305  1.00  0.00    -0.003 C 
HETATM   35  C1  UNL     1     -12.745 -12.458  34.702  1.00  0.00     0.005 C 
ENDBRANCH  33  34
ENDBRANCH  32  33
ENDBRANCH  30  32
ENDBRANCH   1  30
TORSDOF 8
ENDMDL
MODEL 5
REMARK VINA RESULT: -8.259610053      1.205      1.519
REMARK  8 active torsions:
REMARK  status: ('A' for Active; 'I' for Inactive)
REMARK    1  A    between atoms: C2_2  and  C3_3 
REMARK    2  A    between atoms: C3_3  and  C4_4 
REMARK    3  A    between atoms: C4_4  and  N1_5 
REMARK    4  A    between atoms: N1_5  and  C5_7 
REMARK    5  A    between atoms: C6_10  and  N3_11 
REMARK    6  A    between atoms: N3_11  and  C7_13 
REMARK    7  A    between atoms: N5_19  and  C11_20 
REMARK    8  A    between atoms: C14_23  and  C15_24 
ROOT
HETATM    1  C5  UNL     1     -12.116  -3.723  38.089  1.00  0.00     0.680 A 
HETATM    2  N2  UNL     1     -10.845  -3.305  38.133  1.00  0.00    -0.175 N 
ATOM      3  H2  UNL     1     -10.619  -2.431  38.607  1.00  0.00     0.186 HD
HETATM    4  C6  UNL     1      -9.849  -4.031  37.552  1.00  0.00     0.148 A 
HETATM    5  C10 UNL     1     -10.247  -5.191  36.936  1.00  0.00     0.122 A 
HETATM    6  N4  UNL     1      -9.548  -6.117  36.308  1.00  0.00    -0.288 N 
ATOM      7  H4  UNL     1      -8.537  -6.083  36.176  1.00  0.00     0.188 HD
HETATM    8  N5  UNL     1     -10.344  -7.124  35.856  1.00  0.00    -0.260 N 
HETATM    9  C14 UNL     1     -11.602  -6.860  36.195  1.00  0.00     0.112 A 
HETATM   10  C21 UNL     1     -11.557  -5.632  36.885  1.00  0.00     0.112 A 
HETATM   11  N7  UNL     1     -12.495  -4.887  37.469  1.00  0.00    -0.187 N 
ATOM     12  H7  UNL     1     -13.473  -5.175  37.456  1.00  0.00     0.184 HD
ENDROOT
BRANCH   9  13
HETATM   13  C15 UNL     1     -12.833  -7.574  35.856  1.00  0.00     0.065 A 
HETATM   14  C16 UNL     1     -13.432  -7.809  34.634  1.00  0.00     0.046 A 
HETATM   15  C17 UNL     1     -14.556  -8.641  34.766  1.00  0.00     0.000 A 
HETATM   16  C18 UNL     1     -15.509  -9.202  33.977  1.00  0.00     0.021 A 
HETATM   17  C20 UNL     1     -14.617  -8.902  36.096  1.00  0.00     0.084 A 
HETATM   18  C19 UNL     1     -16.448  -9.982  34.598  1.00  0.00     0.053 A 
HETATM   19  S1  UNL     1     -15.985  -9.913  36.238  1.00  0.00    -0.083 SA
HETATM   20  N6  UNL     1     -13.600  -8.273  36.751  1.00  0.00    -0.348 N 
ATOM     21  H6  UNL     1     -13.435  -8.316  37.756  1.00  0.00     0.166 HD
ENDBRANCH   9  13
BRANCH   8  22
HETATM   22  C11 UNL     1      -9.791  -8.232  35.109  1.00  0.00     0.005 C 
HETATM   23  C12 UNL     1     -10.039  -9.584  35.739  1.00  0.00     0.065 C 
HETATM   24  C13 UNL     1      -9.960  -8.173  33.632  1.00  0.00     0.065 C 
ENDBRANCH   8  22
BRANCH   4  25
HETATM   25  N3  UNL     1      -8.668  -3.571  37.634  1.00  0.00    -0.370 N 
ATOM     26  H3  UNL     1      -8.245  -3.276  36.754  1.00  0.00     0.161 HD
BRANCH  25  27
HETATM   27  C7  UNL     1      -7.852  -3.411  38.800  1.00  0.00     0.075 C 
HETATM   28  C8  UNL     1      -7.238  -2.002  38.672  1.00  0.00     0.031 C 
HETATM   29  C9  UNL     1      -6.757  -4.455  38.782  1.00  0.00     0.031 C 
ENDBRANCH  25  27
ENDBRANCH   4  25
BRANCH   1  30
HETATM   30  N1  UNL     1     -13.048  -3.032  38.640  1.00  0.00    -0.226 N 
ATOM     31  H1  UNL     1     -13.165  -2.064  38.340  1.00  0.00     0.177 HD
BRANCH  30  32
HETATM   32  C4  UNL     1     -13.935  -3.530  39.646  1.00  0.00     0.138 C 
BRANCH  32  33
HETATM   33  C3  UNL     1     -15.338  -3.620  39.092  1.00  0.00     0.020 C 
BRANCH  33  34
HETATM   34  C2  UNL     1     -15.887  -2.224  38.882  1.00  0.00    -0.003 C 
HETATM   35  C1  UNL     1     -17.379  -2.180  38.979  1.00  0.00     0.005 C 
ENDBRANCH  33  34
ENDBRANCH  32  33
ENDBRANCH  30  32
ENDBRANCH   1  30
TORSDOF 8
ENDMDL
