MODEL 1
REMARK VINA RESULT: -8.472587444      0.000      0.000
REMARK  10 active torsions:
REMARK  status: ('A' for Active; 'I' for Inactive)
REMARK    1  A    between atoms: C2_2  and  C4_4 
REMARK    2  A    between atoms: C4_4  and  C6_6 
REMARK    3  A    between atoms: C4_4  and  O4_26 
REMARK    4  A    between atoms: C6_6  and  C7_7 
REMARK    5  A    between atoms: C8_8  and  C9_9 
REMARK    6  A    between atoms: C9_9  and  O1_10 
REMARK    7  A    between atoms: C15_17  and  O2_19 
REMARK    8  A    between atoms: C19_23  and  O3_24 
REMARK    9  A    between atoms: O4_26  and  C20_27 
REMARK   10  A    between atoms: C20_27  and  C21_29 
ROOT
HETATM    1  C9  UNL     1     -10.413  -4.336  35.259  1.00  0.00     0.110 C 
HETATM    2  C10 UNL     1     -11.565  -3.400  35.419  1.00  0.00     0.023 C 
HETATM    3  C11 UNL     1     -11.428  -2.203  34.514  1.00  0.00     0.013 C 
HETATM    4  C12 UNL     1     -11.805  -2.916  36.809  1.00  0.00     0.008 C 
HETATM    5  C13 UNL     1     -10.534  -2.434  37.497  1.00  0.00     0.011 C 
HETATM    6  C14 UNL     1      -9.557  -3.552  37.467  1.00  0.00     0.057 C 
HETATM    7  C15 UNL     1      -8.204  -3.242  38.011  1.00  0.00     0.061 C 
HETATM    8  C16 UNL     1      -8.109  -3.356  39.511  1.00  0.00     0.046 C 
HETATM    9  C17 UNL     1      -7.330  -4.304  37.372  1.00  0.00     0.041 C 
HETATM   10  C18 UNL     1      -8.094  -4.789  36.135  1.00  0.00     0.044 C 
HETATM   11  C19 UNL     1      -9.228  -3.825  35.993  1.00  0.00     0.099 C 
ENDROOT
BRANCH   1  12
HETATM   12  C8  UNL     1     -10.749  -5.747  35.668  1.00  0.00     0.010 C 
HETATM   13  C7  UNL     1     -11.999  -6.079  35.831  1.00  0.00    -0.024 C 
BRANCH  13  14
HETATM   14  C6  UNL     1     -12.643  -7.330  36.213  1.00  0.00     0.070 C 
BRANCH  14  15
HETATM   15  C4  UNL     1     -12.935  -7.620  37.631  1.00  0.00     0.093 C 
HETATM   16  C5  UNL     1     -12.121  -8.709  38.271  1.00  0.00     0.052 C 
BRANCH  15  17
HETATM   17  C2  UNL     1     -14.379  -7.870  37.841  1.00  0.00    -0.059 C 
HETATM   18  C1  UNL     1     -14.969  -8.868  37.239  1.00  0.00     0.017 C 
HETATM   19  C3  UNL     1     -15.128  -7.013  38.772  1.00  0.00     0.046 C 
ENDBRANCH  15  17
BRANCH  15  20
HETATM   20  O4  UNL     1     -12.744  -6.399  38.425  1.00  0.00    -0.302 OA
BRANCH  20  21
HETATM   21  C20 UNL     1     -11.808  -6.256  39.399  1.00  0.00     0.289 C 
HETATM   22  O5  UNL     1     -10.599  -6.361  39.102  1.00  0.00    -0.260 OA
BRANCH  21  23
HETATM   23  C21 UNL     1     -12.253  -5.983  40.767  1.00  0.00     0.009 C 
HETATM   24  C22 UNL     1     -12.647  -7.158  41.589  1.00  0.00     0.054 C 
HETATM   25  C23 UNL     1     -12.323  -4.788  41.300  1.00  0.00    -0.018 C 
HETATM   26  C24 UNL     1     -11.969  -3.549  40.612  1.00  0.00     0.036 C 
ENDBRANCH  21  23
ENDBRANCH  20  21
ENDBRANCH  15  20
ENDBRANCH  14  15
ENDBRANCH  13  14
ENDBRANCH   1  12
BRANCH   1  27
HETATM   27  O1  UNL     1     -10.098  -4.400  33.902  1.00  0.00    -0.382 OA
ATOM     28  H1  UNL     1      -9.437  -3.733  33.759  1.00  0.00     0.211 HD
ENDBRANCH   1  27
BRANCH  11  29
HETATM   29  O3  UNL     1      -8.733  -2.669  35.404  1.00  0.00    -0.386 OA
ATOM     30  H3  UNL     1      -7.835  -2.507  35.668  1.00  0.00     0.210 HD
ENDBRANCH  11  29
BRANCH   7  31
HETATM   31  O2  UNL     1      -7.811  -1.980  37.575  1.00  0.00    -0.390 OA
ATOM     32  H2  UNL     1      -6.883  -1.865  37.743  1.00  0.00     0.210 HD
ENDBRANCH   7  31
TORSDOF 10
ENDMDL
MODEL 2
REMARK VINA RESULT: -8.468231788      2.834      4.725
REMARK  10 active torsions:
REMARK  status: ('A' for Active; 'I' for Inactive)
REMARK    1  A    between atoms: C2_2  and  C4_4 
REMARK    2  A    between atoms: C4_4  and  C6_6 
REMARK    3  A    between atoms: C4_4  and  O4_26 
REMARK    4  A    between atoms: C6_6  and  C7_7 
REMARK    5  A    between atoms: C8_8  and  C9_9 
REMARK    6  A    between atoms: C9_9  and  O1_10 
REMARK    7  A    between atoms: C15_17  and  O2_19 
REMARK    8  A    between atoms: C19_23  and  O3_24 
REMARK    9  A    between atoms: O4_26  and  C20_27 
REMARK   10  A    between atoms: C20_27  and  C21_29 
ROOT
HETATM    1  C9  UNL     1     -10.617  -5.828  34.181  1.00  0.00     0.110 C 
HETATM    2  C10 UNL     1     -11.701  -5.018  33.551  1.00  0.00     0.023 C 
HETATM    3  C11 UNL     1     -11.296  -4.526  32.185  1.00  0.00     0.013 C 
HETATM    4  C12 UNL     1     -12.173  -3.852  34.352  1.00  0.00     0.008 C 
HETATM    5  C13 UNL     1     -11.030  -3.009  34.902  1.00  0.00     0.011 C 
HETATM    6  C14 UNL     1     -10.156  -3.906  35.701  1.00  0.00     0.057 C 
HETATM    7  C15 UNL     1      -8.917  -3.281  36.248  1.00  0.00     0.061 C 
HETATM    8  C16 UNL     1      -9.130  -2.533  37.538  1.00  0.00     0.046 C 
HETATM    9  C17 UNL     1      -8.020  -4.476  36.504  1.00  0.00     0.041 C 
HETATM   10  C18 UNL     1      -8.559  -5.605  35.618  1.00  0.00     0.044 C 
HETATM   11  C19 UNL     1      -9.565  -4.940  34.734  1.00  0.00     0.099 C 
ENDROOT
BRANCH   1  12
HETATM   12  C8  UNL     1     -11.137  -6.784  35.224  1.00  0.00     0.010 C 
HETATM   13  C7  UNL     1     -12.361  -7.222  35.129  1.00  0.00    -0.024 C 
BRANCH  13  14
HETATM   14  C6  UNL     1     -13.148  -8.132  35.953  1.00  0.00     0.070 C 
BRANCH  14  15
HETATM   15  C4  UNL     1     -14.210  -8.961  35.348  1.00  0.00     0.093 C 
HETATM   16  C5  UNL     1     -14.577  -8.643  33.927  1.00  0.00     0.052 C 
BRANCH  15  17
HETATM   17  C2  UNL     1     -15.423  -8.980  36.197  1.00  0.00    -0.059 C 
HETATM   18  C1  UNL     1     -15.365  -8.577  37.439  1.00  0.00     0.017 C 
HETATM   19  C3  UNL     1     -16.701  -9.412  35.612  1.00  0.00     0.046 C 
ENDBRANCH  15  17
BRANCH  15  20
HETATM   20  O4  UNL     1     -13.811 -10.374  35.398  1.00  0.00    -0.302 OA
BRANCH  20  21
HETATM   21  C20 UNL     1     -12.536 -10.817  35.238  1.00  0.00     0.289 C 
HETATM   22  O5  UNL     1     -11.775 -10.852  36.228  1.00  0.00    -0.260 OA
BRANCH  21  23
HETATM   23  C21 UNL     1     -12.101 -11.237  33.905  1.00  0.00     0.009 C 
HETATM   24  C22 UNL     1     -11.361 -10.234  33.095  1.00  0.00     0.054 C 
HETATM   25  C23 UNL     1     -12.320 -12.424  33.394  1.00  0.00    -0.018 C 
HETATM   26  C24 UNL     1     -13.031 -13.504  34.074  1.00  0.00     0.036 C 
ENDBRANCH  21  23
ENDBRANCH  20  21
ENDBRANCH  15  20
ENDBRANCH  14  15
ENDBRANCH  13  14
ENDBRANCH   1  12
BRANCH   1  27
HETATM   27  O1  UNL     1     -10.046  -6.625  33.189  1.00  0.00    -0.382 OA
ATOM     28  H1  UNL     1      -9.112  -6.458  33.231  1.00  0.00     0.211 HD
ENDBRANCH   1  27
BRANCH  11  29
HETATM   29  O3  UNL     1      -8.874  -4.288  33.720  1.00  0.00    -0.386 OA
ATOM     30  H3  UNL     1      -9.247  -3.432  33.545  1.00  0.00     0.210 HD
ENDBRANCH  11  29
BRANCH   7  31
HETATM   31  O2  UNL     1      -8.349  -2.462  35.277  1.00  0.00    -0.390 OA
ATOM     32  H2  UNL     1      -9.016  -1.884  34.924  1.00  0.00     0.210 HD
ENDBRANCH   7  31
TORSDOF 10
ENDMDL
MODEL 3
REMARK VINA RESULT: -8.461861019      2.554      4.219
REMARK  10 active torsions:
REMARK  status: ('A' for Active; 'I' for Inactive)
REMARK    1  A    between atoms: C2_2  and  C4_4 
REMARK    2  A    between atoms: C4_4  and  C6_6 
REMARK    3  A    between atoms: C4_4  and  O4_26 
REMARK    4  A    between atoms: C6_6  and  C7_7 
REMARK    5  A    between atoms: C8_8  and  C9_9 
REMARK    6  A    between atoms: C9_9  and  O1_10 
REMARK    7  A    between atoms: C15_17  and  O2_19 
REMARK    8  A    between atoms: C19_23  and  O3_24 
REMARK    9  A    between atoms: O4_26  and  C20_27 
REMARK   10  A    between atoms: C20_27  and  C21_29 
ROOT
HETATM    1  C9  UNL     1     -10.552  -5.789  34.296  1.00  0.00     0.110 C 
HETATM    2  C10 UNL     1     -11.687  -5.017  33.710  1.00  0.00     0.023 C 
HETATM    3  C11 UNL     1     -11.348  -4.501  32.336  1.00  0.00     0.013 C 
HETATM    4  C12 UNL     1     -12.174  -3.874  34.536  1.00  0.00     0.008 C 
HETATM    5  C13 UNL     1     -11.044  -2.992  35.053  1.00  0.00     0.011 C 
HETATM    6  C14 UNL     1     -10.111  -3.861  35.815  1.00  0.00     0.057 C 
HETATM    7  C15 UNL     1      -8.877  -3.194  36.323  1.00  0.00     0.061 C 
HETATM    8  C16 UNL     1      -9.073  -2.463  37.626  1.00  0.00     0.046 C 
HETATM    9  C17 UNL     1      -7.928  -4.357  36.539  1.00  0.00     0.041 C 
HETATM   10  C18 UNL     1      -8.456  -5.499  35.663  1.00  0.00     0.044 C 
HETATM   11  C19 UNL     1      -9.516  -4.866  34.819  1.00  0.00     0.099 C 
ENDROOT
BRANCH   1  12
HETATM   12  C8  UNL     1     -11.000  -6.771  35.349  1.00  0.00     0.010 C 
HETATM   13  C7  UNL     1     -12.275  -6.925  35.571  1.00  0.00    -0.024 C 
BRANCH  13  14
HETATM   14  C6  UNL     1     -13.017  -7.772  36.497  1.00  0.00     0.070 C 
BRANCH  14  15
HETATM   15  C4  UNL     1     -14.013  -8.740  35.993  1.00  0.00     0.093 C 
HETATM   16  C5  UNL     1     -14.382  -8.623  34.542  1.00  0.00     0.052 C 
BRANCH  15  17
HETATM   17  C2  UNL     1     -15.232  -8.741  36.832  1.00  0.00    -0.059 C 
HETATM   18  C1  UNL     1     -15.221  -8.182  38.013  1.00  0.00     0.017 C 
HETATM   19  C3  UNL     1     -16.469  -9.334  36.301  1.00  0.00     0.046 C 
ENDBRANCH  15  17
BRANCH  15  20
HETATM   20  O4  UNL     1     -13.518 -10.105  36.215  1.00  0.00    -0.302 OA
BRANCH  20  21
HETATM   21  C20 UNL     1     -13.174 -10.968  35.224  1.00  0.00     0.289 C 
HETATM   22  O5  UNL     1     -13.969 -11.878  34.905  1.00  0.00    -0.260 OA
BRANCH  21  23
HETATM   23  C21 UNL     1     -11.879 -10.798  34.563  1.00  0.00     0.009 C 
HETATM   24  C22 UNL     1     -11.878 -10.816  33.077  1.00  0.00     0.054 C 
HETATM   25  C23 UNL     1     -10.742 -10.634  35.194  1.00  0.00    -0.018 C 
HETATM   26  C24 UNL     1     -10.593 -10.595  36.646  1.00  0.00     0.036 C 
ENDBRANCH  21  23
ENDBRANCH  20  21
ENDBRANCH  15  20
ENDBRANCH  14  15
ENDBRANCH  13  14
ENDBRANCH   1  12
BRANCH   1  27
HETATM   27  O1  UNL     1      -9.987  -6.558  33.279  1.00  0.00    -0.382 OA
ATOM     28  H1  UNL     1      -9.468  -7.222  33.716  1.00  0.00     0.211 HD
ENDBRANCH   1  27
BRANCH  11  29
HETATM   29  O3  UNL     1      -8.885  -4.183  33.787  1.00  0.00    -0.386 OA
ATOM     30  H3  UNL     1      -7.948  -4.130  33.934  1.00  0.00     0.210 HD
ENDBRANCH  11  29
BRANCH   7  31
HETATM   31  O2  UNL     1      -8.374  -2.348  35.340  1.00  0.00    -0.390 OA
ATOM     32  H2  UNL     1      -7.430  -2.288  35.431  1.00  0.00     0.210 HD
ENDBRANCH   7  31
TORSDOF 10
ENDMDL
MODEL 4
REMARK VINA RESULT: -8.455775115      2.776      4.684
REMARK  10 active torsions:
REMARK  status: ('A' for Active; 'I' for Inactive)
REMARK    1  A    between atoms: C2_2  and  C4_4 
REMARK    2  A    between atoms: C4_4  and  C6_6 
REMARK    3  A    between atoms: C4_4  and  O4_26 
REMARK    4  A    between atoms: C6_6  and  C7_7 
REMARK    5  A    between atoms: C8_8  and  C9_9 
REMARK    6  A    between atoms: C9_9  and  O1_10 
REMARK    7  A    between atoms: C15_17  and  O2_19 
REMARK    8  A    between atoms: C19_23  and  O3_24 
REMARK    9  A    between atoms: O4_26  and  C20_27 
REMARK   10  A    between atoms: C20_27  and  C21_29 
ROOT
HETATM    1  C9  UNL     1      -9.678  -5.749  35.331  1.00  0.00     0.110 C 
HETATM    2  C10 UNL     1      -9.506  -4.588  34.409  1.00  0.00     0.023 C 
HETATM    3  C11 UNL     1      -8.072  -4.127  34.368  1.00  0.00     0.013 C 
HETATM    4  C12 UNL     1     -10.372  -3.409  34.701  1.00  0.00     0.008 C 
HETATM    5  C13 UNL     1     -10.366  -3.019  36.174  1.00  0.00     0.011 C 
HETATM    6  C14 UNL     1     -10.782  -4.212  36.955  1.00  0.00     0.057 C 
HETATM    7  C15 UNL     1     -10.745  -4.059  38.438  1.00  0.00     0.061 C 
HETATM    8  C16 UNL     1     -11.971  -3.400  39.014  1.00  0.00     0.046 C 
HETATM    9  C17 UNL     1     -10.671  -5.492  38.925  1.00  0.00     0.041 C 
HETATM   10  C18 UNL     1     -10.138  -6.312  37.744  1.00  0.00     0.044 C 
HETATM   11  C19 UNL     1      -9.710  -5.288  36.741  1.00  0.00     0.099 C 
ENDROOT
BRANCH   1  12
HETATM   12  C8  UNL     1     -10.888  -6.584  34.995  1.00  0.00     0.010 C 
HETATM   13  C7  UNL     1     -10.725  -7.835  34.671  1.00  0.00    -0.024 C 
BRANCH  13  14
HETATM   14  C6  UNL     1     -11.665  -8.887  34.301  1.00  0.00     0.070 C 
BRANCH  14  15
HETATM   15  C4  UNL     1     -11.679 -10.170  35.032  1.00  0.00     0.093 C 
HETATM   16  C5  UNL     1     -10.441 -10.507  35.814  1.00  0.00     0.052 C 
BRANCH  15  17
HETATM   17  C2  UNL     1     -12.038 -11.293  34.136  1.00  0.00    -0.059 C 
HETATM   18  C1  UNL     1     -12.422 -12.438  34.635  1.00  0.00     0.017 C 
HETATM   19  C3  UNL     1     -12.003 -11.088  32.680  1.00  0.00     0.046 C 
ENDBRANCH  15  17
BRANCH  15  20
HETATM   20  O4  UNL     1     -12.812 -10.184  35.967  1.00  0.00    -0.302 OA
BRANCH  20  21
HETATM   21  C20 UNL     1     -13.869  -9.333  35.903  1.00  0.00     0.289 C 
HETATM   22  O5  UNL     1     -13.842  -8.277  36.570  1.00  0.00    -0.260 OA
BRANCH  21  23
HETATM   23  C21 UNL     1     -15.006  -9.689  35.052  1.00  0.00     0.009 C 
HETATM   24  C22 UNL     1     -15.144  -8.943  33.774  1.00  0.00     0.054 C 
HETATM   25  C23 UNL     1     -15.893 -10.608  35.346  1.00  0.00    -0.018 C 
HETATM   26  C24 UNL     1     -15.882 -11.416  36.563  1.00  0.00     0.036 C 
ENDBRANCH  21  23
ENDBRANCH  20  21
ENDBRANCH  15  20
ENDBRANCH  14  15
ENDBRANCH  13  14
ENDBRANCH   1  12
BRANCH   1  27
HETATM   27  O1  UNL     1      -8.579  -6.593  35.166  1.00  0.00    -0.382 OA
ATOM     28  H1  UNL     1      -8.218  -6.717  36.036  1.00  0.00     0.211 HD
ENDBRANCH   1  27
BRANCH  11  29
HETATM   29  O3  UNL     1      -8.471  -4.798  37.137  1.00  0.00    -0.386 OA
ATOM     30  H3  UNL     1      -8.073  -5.360  37.791  1.00  0.00     0.210 HD
ENDBRANCH  11  29
BRANCH   7  31
HETATM   31  O2  UNL     1      -9.588  -3.375  38.800  1.00  0.00    -0.390 OA
ATOM     32  H2  UNL     1      -9.318  -3.654  39.667  1.00  0.00     0.210 HD
ENDBRANCH   7  31
TORSDOF 10
ENDMDL
MODEL 5
REMARK VINA RESULT: -8.398809204      1.680      3.433
REMARK  10 active torsions:
REMARK  status: ('A' for Active; 'I' for Inactive)
REMARK    1  A    between atoms: C2_2  and  C4_4 
REMARK    2  A    between atoms: C4_4  and  C6_6 
REMARK    3  A    between atoms: C4_4  and  O4_26 
REMARK    4  A    between atoms: C6_6  and  C7_7 
REMARK    5  A    between atoms: C8_8  and  C9_9 
REMARK    6  A    between atoms: C9_9  and  O1_10 
REMARK    7  A    between atoms: C15_17  and  O2_19 
REMARK    8  A    between atoms: C19_23  and  O3_24 
REMARK    9  A    between atoms: O4_26  and  C20_27 
REMARK   10  A    between atoms: C20_27  and  C21_29 
ROOT
HETATM    1  C9  UNL     1      -9.801  -4.762  36.607  1.00  0.00     0.110 C 
HETATM    2  C10 UNL     1      -9.615  -4.135  35.265  1.00  0.00     0.023 C 
HETATM    3  C11 UNL     1      -8.579  -4.870  34.454  1.00  0.00     0.013 C 
HETATM    4  C12 UNL     1      -9.261  -2.686  35.282  1.00  0.00     0.008 C 
HETATM    5  C13 UNL     1      -8.141  -2.361  36.263  1.00  0.00     0.011 C 
HETATM    6  C14 UNL     1      -8.567  -2.837  37.603  1.00  0.00     0.057 C 
HETATM    7  C15 UNL     1      -7.555  -2.696  38.690  1.00  0.00     0.061 C 
HETATM    8  C16 UNL     1      -7.522  -1.327  39.317  1.00  0.00     0.046 C 
HETATM    9  C17 UNL     1      -8.021  -3.707  39.719  1.00  0.00     0.041 C 
HETATM   10  C18 UNL     1      -8.903  -4.706  38.960  1.00  0.00     0.044 C 
HETATM   11  C19 UNL     1      -8.700  -4.364  37.519  1.00  0.00     0.099 C 
ENDROOT
BRANCH   1  12
HETATM   12  C8  UNL     1     -11.151  -4.462  37.207  1.00  0.00     0.010 C 
HETATM   13  C7  UNL     1     -11.983  -5.443  37.417  1.00  0.00    -0.024 C 
BRANCH  13  14
HETATM   14  C6  UNL     1     -13.332  -5.488  37.969  1.00  0.00     0.070 C 
BRANCH  14  15
HETATM   15  C4  UNL     1     -13.583  -6.115  39.283  1.00  0.00     0.093 C 
HETATM   16  C5  UNL     1     -15.000  -6.522  39.568  1.00  0.00     0.052 C 
BRANCH  15  17
HETATM   17  C2  UNL     1     -13.061  -5.276  40.386  1.00  0.00    -0.059 C 
HETATM   18  C1  UNL     1     -12.363  -5.815  41.350  1.00  0.00     0.017 C 
HETATM   19  C3  UNL     1     -13.296  -3.825  40.356  1.00  0.00     0.046 C 
ENDBRANCH  15  17
BRANCH  15  20
HETATM   20  O4  UNL     1     -12.742  -7.312  39.418  1.00  0.00    -0.302 OA
BRANCH  20  21
HETATM   21  C20 UNL     1     -13.123  -8.563  39.050  1.00  0.00     0.289 C 
HETATM   22  O5  UNL     1     -13.550  -9.351  39.920  1.00  0.00    -0.260 OA
BRANCH  21  23
HETATM   23  C21 UNL     1     -13.016  -8.942  37.640  1.00  0.00     0.009 C 
HETATM   24  C22 UNL     1     -14.270  -8.912  36.842  1.00  0.00     0.054 C 
HETATM   25  C23 UNL     1     -11.901  -9.300  37.051  1.00  0.00    -0.018 C 
HETATM   26  C24 UNL     1     -10.600  -9.375  37.708  1.00  0.00     0.036 C 
ENDBRANCH  21  23
ENDBRANCH  20  21
ENDBRANCH  15  20
ENDBRANCH  14  15
ENDBRANCH  13  14
ENDBRANCH   1  12
BRANCH   1  27
HETATM   27  O1  UNL     1      -9.759  -6.147  36.442  1.00  0.00    -0.382 OA
ATOM     28  H1  UNL     1     -10.664  -6.424  36.365  1.00  0.00     0.211 HD
ENDBRANCH   1  27
BRANCH  11  29
HETATM   29  O3  UNL     1      -7.491  -4.916  37.117  1.00  0.00    -0.386 OA
ATOM     30  H3  UNL     1      -6.776  -4.303  37.239  1.00  0.00     0.210 HD
ENDBRANCH  11  29
BRANCH   7  31
HETATM   31  O2  UNL     1      -6.303  -3.059  38.203  1.00  0.00    -0.390 OA
ATOM     32  H2  UNL     1      -5.727  -3.255  38.933  1.00  0.00     0.210 HD
ENDBRANCH   7  31
TORSDOF 10
ENDMDL
