MODEL 1
REMARK VINA RESULT: -8.393898002      0.000      0.000
REMARK  17 active torsions:
REMARK  status: ('A' for Active; 'I' for Inactive)
REMARK    1  A    between atoms: C2_2  and  C4_4 
REMARK    2  A    between atoms: C4_4  and  C5_5 
REMARK    3  A    between atoms: C5_5  and  O1_6 
REMARK    4  A    between atoms: C5_5  and  C6_8 
REMARK    5  A    between atoms: C6_8  and  O2_9 
REMARK    6  A    between atoms: C6_8  and  C7_11 
REMARK    7  A    between atoms: C7_11  and  C8_12 
REMARK    8  A    between atoms: C14_18  and  C15_19 
REMARK    9  A    between atoms: C15_19  and  N1_20 
REMARK   10  A    between atoms: N3_25  and  C16_26 
REMARK   11  A    between atoms: C16_26  and  C17_27 
REMARK   12  A    between atoms: C17_27  and  C18_28 
REMARK   13  A    between atoms: C18_28  and  C19_29 
REMARK   14  A    between atoms: C19_29  and  C20_30 
REMARK   15  A    between atoms: C20_30  and  C21_31 
REMARK   16  A    between atoms: C21_31  and  N4_32 
REMARK   17  A    between atoms: C21_31  and  C22_36 
REMARK       I    between atoms: C22_36  and  N5_38 
ROOT
HETATM    1  C8  UNL     1      21.652  31.239  13.820  1.00  0.00     0.081 C 
HETATM    2  C9  UNL     1      22.799  32.243  13.837  1.00  0.00     0.014 C 
HETATM    3  C10 UNL     1      23.508  32.212  15.145  1.00  0.00     0.001 C 
HETATM    4  C11 UNL     1      22.901  32.955  16.283  1.00  0.00     0.000 C 
HETATM    5  C12 UNL     1      21.831  32.265  17.043  1.00  0.00     0.002 C 
HETATM    6  C13 UNL     1      20.434  32.342  16.644  1.00  0.00     0.031 C 
HETATM    7  C14 UNL     1      20.106  33.308  15.508  1.00  0.00     0.127 C 
HETATM    8  N3  UNL     1      19.487  32.547  14.431  1.00  0.00    -0.342 N 
HETATM    9  C27 UNL     1      20.364  31.882  13.485  1.00  0.00     0.224 C 
HETATM   10  O5  UNL     1      19.965  31.866  12.281  1.00  0.00    -0.273 OA
ENDROOT
BRANCH   8  11
HETATM   11  C16 UNL     1      18.065  32.315  14.291  1.00  0.00     0.126 C 
BRANCH  11  12
HETATM   12  C17 UNL     1      17.449  31.275  15.140  1.00  0.00     0.020 C 
BRANCH  12  13
HETATM   13  C18 UNL     1      17.903  29.916  14.588  1.00  0.00     0.002 C 
BRANCH  13  14
HETATM   14  C19 UNL     1      17.496  29.734  13.161  1.00  0.00     0.002 C 
BRANCH  14  15
HETATM   15  C20 UNL     1      18.283  28.633  12.519  1.00  0.00     0.042 C 
BRANCH  15  16
HETATM   16  C21 UNL     1      17.870  28.400  11.079  1.00  0.00     0.275 C 
BRANCH  16  17
HETATM   17  N4  UNL     1      16.525  28.771  10.806  1.00  0.00    -0.067 N 
ATOM     18  H43 UNL     1      16.315  29.685  11.207  1.00  0.00     0.275 HD
ATOM     19  H42 UNL     1      16.406  28.987   9.816  1.00  0.00     0.275 HD
ATOM     20  H41 UNL     1      15.841  28.077  11.108  1.00  0.00     0.275 HD
ENDBRANCH  16  17
BRANCH  16  21
HETATM   21  C22 UNL     1      18.220  27.027  10.735  1.00  0.00     0.250 C 
HETATM   22  O3  UNL     1      18.405  26.243  11.739  1.00  0.00    -0.271 OA
HETATM   23  N5  UNL     1      18.382  26.448   9.466  1.00  0.00    -0.346 N 
HETATM   24  C23 UNL     1      18.723  25.046   9.312  1.00  0.00     0.152 C 
HETATM   25  C26 UNL     1      18.226  27.206   8.249  1.00  0.00     0.152 C 
HETATM   26  C24 UNL     1      19.886  24.929   8.357  1.00  0.00     0.187 C 
HETATM   27  O4  UNL     1      19.694  25.624   7.190  1.00  0.00    -0.388 OA
HETATM   28  C25 UNL     1      18.460  26.223   7.101  1.00  0.00     0.187 C 
ENDBRANCH  16  21
ENDBRANCH  15  16
ENDBRANCH  14  15
ENDBRANCH  13  14
ENDBRANCH  12  13
ENDBRANCH  11  12
ENDBRANCH   8  11
BRANCH   7  29
HETATM   29  C15 UNL     1      19.317  34.450  16.065  1.00  0.00     0.104 C 
BRANCH  29  30
HETATM   30  N1  UNL     1      20.014  35.517  16.638  1.00  0.00    -0.320 N 
HETATM   31  N2  UNL     1      21.114  35.972  16.244  1.00  0.00    -0.346 N 
ATOM     32  H22 UNL     1      21.523  35.511  15.431  1.00  0.00     0.176 HD
ATOM     33  H21 UNL     1      21.622  36.751  16.661  1.00  0.00     0.176 HD
ATOM     34  H1  UNL     1      19.590  35.966  17.449  1.00  0.00     0.185 HD
ENDBRANCH  29  30
ENDBRANCH   7  29
BRANCH   1  35
HETATM   35  C7  UNL     1      21.977  30.078  12.885  1.00  0.00     0.052 C 
BRANCH  35  36
HETATM   36  C6  UNL     1      21.605  28.732  13.415  1.00  0.00     0.175 C 
BRANCH  36  37
HETATM   37  C5  UNL     1      22.170  27.645  12.535  1.00  0.00     0.068 C 
BRANCH  37  38
HETATM   38  C4  UNL     1      22.945  28.024  11.365  1.00  0.00     0.012 C 
BRANCH  38  39
HETATM   39  C2  UNL     1      24.232  27.463  11.004  1.00  0.00     0.002 C 
HETATM   40  C1  UNL     1      24.290  26.460   9.885  1.00  0.00     0.013 C 
HETATM   41  C3  UNL     1      25.068  26.906  12.132  1.00  0.00     0.013 C 
ENDBRANCH  38  39
ENDBRANCH  37  38
BRANCH  37  42
HETATM   42  O1  UNL     1      21.265  26.601  12.424  1.00  0.00    -0.363 OA
ATOM     43  H1  UNL     1      20.525  26.574  13.018  1.00  0.00     0.217 HD
ENDBRANCH  37  42
ENDBRANCH  36  37
BRANCH  36  44
HETATM   44  O2  UNL     1      21.951  28.554  14.741  1.00  0.00    -0.389 OA
ATOM     45  H2  UNL     1      21.205  28.300  15.271  1.00  0.00     0.210 HD
ENDBRANCH  36  44
ENDBRANCH  35  36
ENDBRANCH   1  35
TORSDOF 17
ENDMDL
MODEL 2
REMARK VINA RESULT: -8.380104821      1.015      1.200
REMARK  17 active torsions:
REMARK  status: ('A' for Active; 'I' for Inactive)
REMARK    1  A    between atoms: C2_2  and  C4_4 
REMARK    2  A    between atoms: C4_4  and  C5_5 
REMARK    3  A    between atoms: C5_5  and  O1_6 
REMARK    4  A    between atoms: C5_5  and  C6_8 
REMARK    5  A    between atoms: C6_8  and  O2_9 
REMARK    6  A    between atoms: C6_8  and  C7_11 
REMARK    7  A    between atoms: C7_11  and  C8_12 
REMARK    8  A    between atoms: C14_18  and  C15_19 
REMARK    9  A    between atoms: C15_19  and  N1_20 
REMARK   10  A    between atoms: N3_25  and  C16_26 
REMARK   11  A    between atoms: C16_26  and  C17_27 
REMARK   12  A    between atoms: C17_27  and  C18_28 
REMARK   13  A    between atoms: C18_28  and  C19_29 
REMARK   14  A    between atoms: C19_29  and  C20_30 
REMARK   15  A    between atoms: C20_30  and  C21_31 
REMARK   16  A    between atoms: C21_31  and  N4_32 
REMARK   17  A    between atoms: C21_31  and  C22_36 
REMARK       I    between atoms: C22_36  and  N5_38 
ROOT
HETATM    1  C8  UNL     1      21.700  31.237  13.830  1.00  0.00     0.081 C 
HETATM    2  C9  UNL     1      22.830  32.262  13.861  1.00  0.00     0.014 C 
HETATM    3  C10 UNL     1      23.519  32.246  15.180  1.00  0.00     0.001 C 
HETATM    4  C11 UNL     1      22.883  32.980  16.307  1.00  0.00     0.000 C 
HETATM    5  C12 UNL     1      21.814  32.274  17.053  1.00  0.00     0.002 C 
HETATM    6  C13 UNL     1      20.422  32.326  16.633  1.00  0.00     0.031 C 
HETATM    7  C14 UNL     1      20.094  33.283  15.490  1.00  0.00     0.127 C 
HETATM    8  N3  UNL     1      19.504  32.509  14.406  1.00  0.00    -0.342 N 
HETATM    9  C27 UNL     1      20.406  31.857  13.475  1.00  0.00     0.224 C 
HETATM   10  O5  UNL     1      20.025  31.832  12.265  1.00  0.00    -0.273 OA
ENDROOT
BRANCH   8  11
HETATM   11  C16 UNL     1      18.088  32.252  14.245  1.00  0.00     0.126 C 
BRANCH  11  12
HETATM   12  C17 UNL     1      17.587  30.910  14.605  1.00  0.00     0.020 C 
BRANCH  12  13
HETATM   13  C18 UNL     1      17.268  30.181  13.292  1.00  0.00     0.002 C 
BRANCH  13  14
HETATM   14  C19 UNL     1      18.055  28.918  13.154  1.00  0.00     0.002 C 
BRANCH  14  15
HETATM   15  C20 UNL     1      18.185  28.527  11.714  1.00  0.00     0.042 C 
BRANCH  15  16
HETATM   16  C21 UNL     1      17.958  27.042  11.502  1.00  0.00     0.275 C 
BRANCH  16  17
HETATM   17  N4  UNL     1      18.272  26.251  12.641  1.00  0.00    -0.067 N 
ATOM     18  H43 UNL     1      18.348  25.266  12.385  1.00  0.00     0.275 HD
ATOM     19  H42 UNL     1      19.229  26.422  12.946  1.00  0.00     0.275 HD
ATOM     20  H41 UNL     1      17.619  26.374  13.416  1.00  0.00     0.275 HD
ENDBRANCH  16  17
BRANCH  16  21
HETATM   21  C22 UNL     1      18.640  26.662  10.272  1.00  0.00     0.250 C 
HETATM   22  O3  UNL     1      19.869  27.038  10.189  1.00  0.00    -0.271 OA
HETATM   23  N5  UNL     1      18.143  25.944   9.172  1.00  0.00    -0.346 N 
HETATM   24  C23 UNL     1      18.979  25.642   8.025  1.00  0.00     0.152 C 
HETATM   25  C26 UNL     1      16.781  25.473   9.112  1.00  0.00     0.152 C 
HETATM   26  C24 UNL     1      18.243  26.035   6.768  1.00  0.00     0.187 C 
HETATM   27  O4  UNL     1      16.965  25.538   6.716  1.00  0.00    -0.388 OA
HETATM   28  C25 UNL     1      16.644  24.732   7.781  1.00  0.00     0.187 C 
ENDBRANCH  16  21
ENDBRANCH  15  16
ENDBRANCH  14  15
ENDBRANCH  13  14
ENDBRANCH  12  13
ENDBRANCH  11  12
ENDBRANCH   8  11
BRANCH   7  29
HETATM   29  C15 UNL     1      19.277  34.412  16.032  1.00  0.00     0.104 C 
BRANCH  29  30
HETATM   30  N1  UNL     1      19.941  35.454  16.685  1.00  0.00    -0.320 N 
HETATM   31  N2  UNL     1      20.987  36.020  16.289  1.00  0.00    -0.346 N 
ATOM     32  H22 UNL     1      21.374  35.679  15.409  1.00  0.00     0.176 HD
ATOM     33  H21 UNL     1      21.472  36.781  16.765  1.00  0.00     0.176 HD
ATOM     34  H1  UNL     1      19.539  35.782  17.563  1.00  0.00     0.185 HD
ENDBRANCH  29  30
ENDBRANCH   7  29
BRANCH   1  35
HETATM   35  C7  UNL     1      22.059  30.080  12.903  1.00  0.00     0.052 C 
BRANCH  35  36
HETATM   36  C6  UNL     1      21.605  28.739  13.380  1.00  0.00     0.175 C 
BRANCH  36  37
HETATM   37  C5  UNL     1      22.242  27.645  12.559  1.00  0.00     0.068 C 
BRANCH  37  38
HETATM   38  C4  UNL     1      23.017  28.012  11.386  1.00  0.00     0.012 C 
BRANCH  38  39
HETATM   39  C2  UNL     1      24.266  27.392  10.988  1.00  0.00     0.002 C 
HETATM   40  C1  UNL     1      24.239  26.365   9.889  1.00  0.00     0.013 C 
HETATM   41  C3  UNL     1      25.122  26.823  12.095  1.00  0.00     0.013 C 
ENDBRANCH  38  39
ENDBRANCH  37  38
BRANCH  37  42
HETATM   42  O1  UNL     1      21.395  26.551  12.482  1.00  0.00    -0.363 OA
ATOM     43  H1  UNL     1      20.984  26.235  13.278  1.00  0.00     0.217 HD
ENDBRANCH  37  42
ENDBRANCH  36  37
BRANCH  36  44
HETATM   44  O2  UNL     1      21.802  28.548  14.734  1.00  0.00    -0.389 OA
ATOM     45  H2  UNL     1      21.830  29.371  15.208  1.00  0.00     0.210 HD
ENDBRANCH  36  44
ENDBRANCH  35  36
ENDBRANCH   1  35
TORSDOF 17
ENDMDL
MODEL 3
REMARK VINA RESULT: -8.327951043      2.812      6.234
REMARK  17 active torsions:
REMARK  status: ('A' for Active; 'I' for Inactive)
REMARK    1  A    between atoms: C2_2  and  C4_4 
REMARK    2  A    between atoms: C4_4  and  C5_5 
REMARK    3  A    between atoms: C5_5  and  O1_6 
REMARK    4  A    between atoms: C5_5  and  C6_8 
REMARK    5  A    between atoms: C6_8  and  O2_9 
REMARK    6  A    between atoms: C6_8  and  C7_11 
REMARK    7  A    between atoms: C7_11  and  C8_12 
REMARK    8  A    between atoms: C14_18  and  C15_19 
REMARK    9  A    between atoms: C15_19  and  N1_20 
REMARK   10  A    between atoms: N3_25  and  C16_26 
REMARK   11  A    between atoms: C16_26  and  C17_27 
REMARK   12  A    between atoms: C17_27  and  C18_28 
REMARK   13  A    between atoms: C18_28  and  C19_29 
REMARK   14  A    between atoms: C19_29  and  C20_30 
REMARK   15  A    between atoms: C20_30  and  C21_31 
REMARK   16  A    between atoms: C21_31  and  N4_32 
REMARK   17  A    between atoms: C21_31  and  C22_36 
REMARK       I    between atoms: C22_36  and  N5_38 
ROOT
HETATM    1  C8  UNL     1      20.204  32.142  16.178  1.00  0.00     0.081 C 
HETATM    2  C9  UNL     1      21.532  32.155  16.928  1.00  0.00     0.014 C 
HETATM    3  C10 UNL     1      22.591  32.808  16.112  1.00  0.00     0.001 C 
HETATM    4  C11 UNL     1      23.250  32.000  15.050  1.00  0.00     0.000 C 
HETATM    5  C12 UNL     1      22.550  31.902  13.747  1.00  0.00     0.002 C 
HETATM    6  C13 UNL     1      21.553  30.874  13.486  1.00  0.00     0.031 C 
HETATM    7  C14 UNL     1      21.391  29.800  14.558  1.00  0.00     0.127 C 
HETATM    8  N3  UNL     1      20.008  29.821  15.017  1.00  0.00    -0.342 N 
HETATM    9  C27 UNL     1      19.657  30.774  16.053  1.00  0.00     0.224 C 
HETATM   10  O5  UNL     1      18.808  30.372  16.906  1.00  0.00    -0.273 OA
ENDROOT
BRANCH   8  11
HETATM   11  C16 UNL     1      18.933  29.039  14.445  1.00  0.00     0.126 C 
BRANCH  11  12
HETATM   12  C17 UNL     1      18.069  29.688  13.438  1.00  0.00     0.020 C 
BRANCH  12  13
HETATM   13  C18 UNL     1      18.319  28.974  12.102  1.00  0.00     0.002 C 
BRANCH  13  14
HETATM   14  C19 UNL     1      18.861  27.595  12.304  1.00  0.00     0.002 C 
BRANCH  14  15
HETATM   15  C20 UNL     1      19.588  27.126  11.082  1.00  0.00     0.042 C 
BRANCH  15  16
HETATM   16  C21 UNL     1      19.744  25.617  11.054  1.00  0.00     0.275 C 
BRANCH  16  17
HETATM   17  N4  UNL     1      19.120  24.961  12.149  1.00  0.00    -0.067 N 
ATOM     18  H43 UNL     1      19.105  25.565  12.970  1.00  0.00     0.275 HD
ATOM     19  H42 UNL     1      18.118  24.866  11.989  1.00  0.00     0.275 HD
ATOM     20  H41 UNL     1      19.536  24.056  12.374  1.00  0.00     0.275 HD
ENDBRANCH  16  17
BRANCH  16  21
HETATM   21  C22 UNL     1      21.160  25.322  10.874  1.00  0.00     0.250 C 
HETATM   22  O3  UNL     1      21.891  25.492  11.921  1.00  0.00    -0.271 OA
HETATM   23  N5  UNL     1      21.831  24.880   9.723  1.00  0.00    -0.346 N 
HETATM   24  C23 UNL     1      23.259  24.622   9.731  1.00  0.00     0.152 C 
HETATM   25  C26 UNL     1      21.149  24.663   8.471  1.00  0.00     0.152 C 
HETATM   26  C24 UNL     1      23.888  25.325   8.554  1.00  0.00     0.187 C 
HETATM   27  O4  UNL     1      23.247  25.067   7.368  1.00  0.00    -0.388 OA
HETATM   28  C25 UNL     1      22.211  24.172   7.485  1.00  0.00     0.187 C 
ENDBRANCH  16  21
ENDBRANCH  15  16
ENDBRANCH  14  15
ENDBRANCH  13  14
ENDBRANCH  12  13
ENDBRANCH  11  12
ENDBRANCH   8  11
BRANCH   7  29
HETATM   29  C15 UNL     1      21.899  28.502  14.015  1.00  0.00     0.104 C 
BRANCH  29  30
HETATM   30  N1  UNL     1      22.432  28.491  12.723  1.00  0.00    -0.320 N 
HETATM   31  N2  UNL     1      23.429  27.831  12.346  1.00  0.00    -0.346 N 
ATOM     32  H22 UNL     1      23.879  27.255  13.058  1.00  0.00     0.176 HD
ATOM     33  H21 UNL     1      23.818  27.822  11.403  1.00  0.00     0.176 HD
ATOM     34  H1  UNL     1      21.969  29.072  12.025  1.00  0.00     0.185 HD
ENDBRANCH  29  30
ENDBRANCH   7  29
BRANCH   1  35
HETATM   35  C7  UNL     1      19.215  33.100  16.835  1.00  0.00     0.052 C 
BRANCH  35  36
HETATM   36  C6  UNL     1      18.984  34.368  16.079  1.00  0.00     0.175 C 
BRANCH  36  37
HETATM   37  C5  UNL     1      17.726  35.046  16.561  1.00  0.00     0.068 C 
BRANCH  37  38
HETATM   38  C4  UNL     1      16.467  34.732  15.907  1.00  0.00     0.012 C 
BRANCH  38  39
HETATM   39  C2  UNL     1      15.477  33.804  16.415  1.00  0.00     0.002 C 
HETATM   40  C1  UNL     1      15.118  33.865  17.875  1.00  0.00     0.013 C 
HETATM   41  C3  UNL     1      15.678  32.345  16.077  1.00  0.00     0.013 C 
ENDBRANCH  38  39
ENDBRANCH  37  38
BRANCH  37  42
HETATM   42  O1  UNL     1      17.992  36.365  16.894  1.00  0.00    -0.363 OA
ATOM     43  H1  UNL     1      18.793  36.564  17.366  1.00  0.00     0.217 HD
ENDBRANCH  37  42
ENDBRANCH  36  37
BRANCH  36  44
HETATM   44  O2  UNL     1      20.071  35.221  16.102  1.00  0.00    -0.389 OA
ATOM     45  H2  UNL     1      20.409  35.388  15.230  1.00  0.00     0.210 HD
ENDBRANCH  36  44
ENDBRANCH  35  36
ENDBRANCH   1  35
TORSDOF 17
ENDMDL
MODEL 4
REMARK VINA RESULT: -8.210710730      2.190      4.835
REMARK  17 active torsions:
REMARK  status: ('A' for Active; 'I' for Inactive)
REMARK    1  A    between atoms: C2_2  and  C4_4 
REMARK    2  A    between atoms: C4_4  and  C5_5 
REMARK    3  A    between atoms: C5_5  and  O1_6 
REMARK    4  A    between atoms: C5_5  and  C6_8 
REMARK    5  A    between atoms: C6_8  and  O2_9 
REMARK    6  A    between atoms: C6_8  and  C7_11 
REMARK    7  A    between atoms: C7_11  and  C8_12 
REMARK    8  A    between atoms: C14_18  and  C15_19 
REMARK    9  A    between atoms: C15_19  and  N1_20 
REMARK   10  A    between atoms: N3_25  and  C16_26 
REMARK   11  A    between atoms: C16_26  and  C17_27 
REMARK   12  A    between atoms: C17_27  and  C18_28 
REMARK   13  A    between atoms: C18_28  and  C19_29 
REMARK   14  A    between atoms: C19_29  and  C20_30 
REMARK   15  A    between atoms: C20_30  and  C21_31 
REMARK   16  A    between atoms: C21_31  and  N4_32 
REMARK   17  A    between atoms: C21_31  and  C22_36 
REMARK       I    between atoms: C22_36  and  N5_38 
ROOT
HETATM    1  C8  UNL     1      18.005  30.843  15.204  1.00  0.00     0.081 C 
HETATM    2  C9  UNL     1      16.757  31.028  16.060  1.00  0.00     0.014 C 
HETATM    3  C10 UNL     1      15.910  32.129  15.527  1.00  0.00     0.001 C 
HETATM    4  C11 UNL     1      16.293  33.527  15.864  1.00  0.00     0.000 C 
HETATM    5  C12 UNL     1      17.340  34.159  15.026  1.00  0.00     0.002 C 
HETATM    6  C13 UNL     1      18.756  34.020  15.331  1.00  0.00     0.031 C 
HETATM    7  C14 UNL     1      19.100  33.337  16.652  1.00  0.00     0.127 C 
HETATM    8  N3  UNL     1      19.923  32.171  16.359  1.00  0.00    -0.342 N 
HETATM    9  C27 UNL     1      19.242  30.938  16.008  1.00  0.00     0.224 C 
HETATM   10  O5  UNL     1      19.776  29.872  16.441  1.00  0.00    -0.273 OA
ENDROOT
BRANCH   8  11
HETATM   11  C16 UNL     1      21.368  32.172  16.286  1.00  0.00     0.126 C 
BRANCH  11  12
HETATM   12  C17 UNL     1      22.003  32.951  15.203  1.00  0.00     0.020 C 
BRANCH  12  13
HETATM   13  C18 UNL     1      21.850  32.135  13.911  1.00  0.00     0.002 C 
BRANCH  13  14
HETATM   14  C19 UNL     1      22.336  30.732  14.082  1.00  0.00     0.002 C 
BRANCH  14  15
HETATM   15  C20 UNL     1      22.016  29.908  12.873  1.00  0.00     0.042 C 
BRANCH  15  16
HETATM   16  C21 UNL     1      21.676  28.474  13.233  1.00  0.00     0.275 C 
BRANCH  16  17
HETATM   17  N4  UNL     1      21.523  28.259  14.629  1.00  0.00    -0.067 N 
ATOM     18  H43 UNL     1      21.230  29.117  15.096  1.00  0.00     0.275 HD
ATOM     19  H42 UNL     1      20.709  27.676  14.817  1.00  0.00     0.275 HD
ATOM     20  H41 UNL     1      22.355  27.872  15.076  1.00  0.00     0.275 HD
ENDBRANCH  16  17
BRANCH  16  21
HETATM   21  C22 UNL     1      22.644  27.610  12.570  1.00  0.00     0.250 C 
HETATM   22  O3  UNL     1      23.874  27.973  12.693  1.00  0.00    -0.271 OA
HETATM   23  N5  UNL     1      22.421  26.442  11.823  1.00  0.00    -0.346 N 
HETATM   24  C23 UNL     1      23.520  25.694  11.241  1.00  0.00     0.152 C 
HETATM   25  C26 UNL     1      21.096  25.924  11.584  1.00  0.00     0.152 C 
HETATM   26  C24 UNL     1      23.212  25.427   9.788  1.00  0.00     0.187 C 
HETATM   27  O4  UNL     1      21.963  24.894   9.593  1.00  0.00    -0.388 OA
HETATM   28  C25 UNL     1      21.279  24.649  10.759  1.00  0.00     0.187 C 
ENDBRANCH  16  21
ENDBRANCH  15  16
ENDBRANCH  14  15
ENDBRANCH  13  14
ENDBRANCH  12  13
ENDBRANCH  11  12
ENDBRANCH   8  11
BRANCH   7  29
HETATM   29  C15 UNL     1      19.685  34.356  17.578  1.00  0.00     0.104 C 
BRANCH  29  30
HETATM   30  N1  UNL     1      19.109  34.508  18.842  1.00  0.00    -0.320 N 
HETATM   31  N2  UNL     1      19.730  34.702  19.914  1.00  0.00    -0.346 N 
ATOM     32  H22 UNL     1      20.745  34.751  19.839  1.00  0.00     0.176 HD
ATOM     33  H21 UNL     1      19.309  34.813  20.836  1.00  0.00     0.176 HD
ATOM     34  H1  UNL     1      18.091  34.455  18.897  1.00  0.00     0.185 HD
ENDBRANCH  29  30
ENDBRANCH   7  29
BRANCH   1  35
HETATM   35  C7  UNL     1      17.925  29.534  14.424  1.00  0.00     0.052 C 
BRANCH  35  36
HETATM   36  C6  UNL     1      18.492  29.600  13.043  1.00  0.00     0.175 C 
BRANCH  36  37
HETATM   37  C5  UNL     1      17.679  28.748  12.100  1.00  0.00     0.068 C 
BRANCH  37  38
HETATM   38  C4  UNL     1      18.353  28.093  10.991  1.00  0.00     0.012 C 
BRANCH  38  39
HETATM   39  C2  UNL     1      17.731  27.151  10.081  1.00  0.00     0.002 C 
HETATM   40  C1  UNL     1      17.616  25.713  10.506  1.00  0.00     0.013 C 
HETATM   41  C3  UNL     1      18.239  27.147   8.659  1.00  0.00     0.013 C 
ENDBRANCH  38  39
ENDBRANCH  37  38
BRANCH  37  42
HETATM   42  O1  UNL     1      16.442  29.331  11.876  1.00  0.00    -0.363 OA
ATOM     43  H1  UNL     1      15.711  28.773  11.635  1.00  0.00     0.217 HD
ENDBRANCH  37  42
ENDBRANCH  36  37
BRANCH  36  44
HETATM   44  O2  UNL     1      18.638  30.891  12.575  1.00  0.00    -0.389 OA
ATOM     45  H2  UNL     1      19.274  30.943  11.870  1.00  0.00     0.210 HD
ENDBRANCH  36  44
ENDBRANCH  35  36
ENDBRANCH   1  35
TORSDOF 17
ENDMDL
MODEL 5
REMARK VINA RESULT: -8.207522050      3.334      7.715
REMARK  17 active torsions:
REMARK  status: ('A' for Active; 'I' for Inactive)
REMARK    1  A    between atoms: C2_2  and  C4_4 
REMARK    2  A    between atoms: C4_4  and  C5_5 
REMARK    3  A    between atoms: C5_5  and  O1_6 
REMARK    4  A    between atoms: C5_5  and  C6_8 
REMARK    5  A    between atoms: C6_8  and  O2_9 
REMARK    6  A    between atoms: C6_8  and  C7_11 
REMARK    7  A    between atoms: C7_11  and  C8_12 
REMARK    8  A    between atoms: C14_18  and  C15_19 
REMARK    9  A    between atoms: C15_19  and  N1_20 
REMARK   10  A    between atoms: N3_25  and  C16_26 
REMARK   11  A    between atoms: C16_26  and  C17_27 
REMARK   12  A    between atoms: C17_27  and  C18_28 
REMARK   13  A    between atoms: C18_28  and  C19_29 
REMARK   14  A    between atoms: C19_29  and  C20_30 
REMARK   15  A    between atoms: C20_30  and  C21_31 
REMARK   16  A    between atoms: C21_31  and  N4_32 
REMARK   17  A    between atoms: C21_31  and  C22_36 
REMARK       I    between atoms: C22_36  and  N5_38 
ROOT
HETATM    1  C8  UNL     1      21.453  31.141  13.847  1.00  0.00     0.081 C 
HETATM    2  C9  UNL     1      22.600  32.140  13.742  1.00  0.00     0.014 C 
HETATM    3  C10 UNL     1      23.475  32.064  14.943  1.00  0.00     0.001 C 
HETATM    4  C11 UNL     1      23.031  32.772  16.174  1.00  0.00     0.000 C 
HETATM    5  C12 UNL     1      22.066  32.063  17.047  1.00  0.00     0.002 C 
HETATM    6  C13 UNL     1      20.629  32.158  16.840  1.00  0.00     0.031 C 
HETATM    7  C14 UNL     1      20.161  33.161  15.788  1.00  0.00     0.127 C 
HETATM    8  N3  UNL     1      19.398  32.437  14.780  1.00  0.00    -0.342 N 
HETATM    9  C27 UNL     1      20.137  31.799  13.706  1.00  0.00     0.224 C 
HETATM   10  O5  UNL     1      19.582  31.824  12.565  1.00  0.00    -0.273 OA
ENDROOT
BRANCH   8  11
HETATM   11  C16 UNL     1      17.968  32.215  14.822  1.00  0.00     0.126 C 
BRANCH  11  12
HETATM   12  C17 UNL     1      17.450  31.251  15.814  1.00  0.00     0.020 C 
BRANCH  12  13
HETATM   13  C18 UNL     1      16.139  31.831  16.364  1.00  0.00     0.002 C 
BRANCH  13  14
HETATM   14  C19 UNL     1      15.874  33.203  15.833  1.00  0.00     0.002 C 
BRANCH  14  15
HETATM   15  C20 UNL     1      15.532  34.147  16.945  1.00  0.00     0.042 C 
BRANCH  15  16
HETATM   16  C21 UNL     1      15.876  35.583  16.601  1.00  0.00     0.275 C 
BRANCH  16  17
HETATM   17  N4  UNL     1      16.696  35.712  15.447  1.00  0.00    -0.067 N 
ATOM     18  H43 UNL     1      17.326  36.508  15.540  1.00  0.00     0.275 HD
ATOM     19  H42 UNL     1      17.380  34.957  15.406  1.00  0.00     0.275 HD
ATOM     20  H41 UNL     1      16.168  35.768  14.576  1.00  0.00     0.275 HD
ENDBRANCH  16  17
BRANCH  16  21
HETATM   21  C22 UNL     1      16.396  36.214  17.808  1.00  0.00     0.250 C 
HETATM   22  O3  UNL     1      16.457  35.449  18.842  1.00  0.00    -0.271 OA
HETATM   23  N5  UNL     1      16.837  37.535  17.995  1.00  0.00    -0.346 N 
HETATM   24  C23 UNL     1      17.340  37.989  19.278  1.00  0.00     0.152 C 
HETATM   25  C26 UNL     1      16.810  38.512  16.935  1.00  0.00     0.152 C 
HETATM   26  C24 UNL     1      16.648  39.280  19.643  1.00  0.00     0.187 C 
HETATM   27  O4  UNL     1      16.675  40.208  18.633  1.00  0.00    -0.388 OA
HETATM   28  C25 UNL     1      17.382  39.800  17.528  1.00  0.00     0.187 C 
ENDBRANCH  16  21
ENDBRANCH  15  16
ENDBRANCH  14  15
ENDBRANCH  13  14
ENDBRANCH  12  13
ENDBRANCH  11  12
ENDBRANCH   8  11
BRANCH   7  29
HETATM   29  C15 UNL     1      19.462  34.287  16.480  1.00  0.00     0.104 C 
BRANCH  29  30
HETATM   30  N1  UNL     1      19.057  34.099  17.805  1.00  0.00    -0.320 N 
HETATM   31  N2  UNL     1      19.448  34.765  18.793  1.00  0.00    -0.346 N 
ATOM     32  H22 UNL     1      20.119  35.506  18.595  1.00  0.00     0.176 HD
ATOM     33  H21 UNL     1      19.152  34.628  19.759  1.00  0.00     0.176 HD
ATOM     34  H1  UNL     1      18.385  33.353  17.983  1.00  0.00     0.185 HD
ENDBRANCH  29  30
ENDBRANCH   7  29
BRANCH   1  35
HETATM   35  C7  UNL     1      21.641  30.009  12.840  1.00  0.00     0.052 C 
BRANCH  35  36
HETATM   36  C6  UNL     1      21.388  28.643  13.390  1.00  0.00     0.175 C 
BRANCH  36  37
HETATM   37  C5  UNL     1      21.969  27.593  12.475  1.00  0.00     0.068 C 
BRANCH  37  38
HETATM   38  C4  UNL     1      22.786  28.018  11.352  1.00  0.00     0.012 C 
BRANCH  38  39
HETATM   39  C2  UNL     1      24.111  27.511  11.051  1.00  0.00     0.002 C 
HETATM   40  C1  UNL     1      24.255  26.479   9.966  1.00  0.00     0.013 C 
HETATM   41  C3  UNL     1      24.935  27.031  12.222  1.00  0.00     0.013 C 
ENDBRANCH  38  39
ENDBRANCH  37  38
BRANCH  37  42
HETATM   42  O1  UNL     1      21.055  26.568  12.284  1.00  0.00    -0.363 OA
ATOM     43  H1  UNL     1      20.141  26.728  12.486  1.00  0.00     0.217 HD
ENDBRANCH  37  42
ENDBRANCH  36  37
BRANCH  36  44
HETATM   44  O2  UNL     1      21.823  28.490  14.692  1.00  0.00    -0.389 OA
ATOM     45  H2  UNL     1      22.266  29.268  15.012  1.00  0.00     0.210 HD
ENDBRANCH  36  44
ENDBRANCH  35  36
ENDBRANCH   1  35
TORSDOF 17
ENDMDL
