MODEL 1
REMARK VINA RESULT: -7.629368643      0.000      0.000
REMARK  15 active torsions:
REMARK  status: ('A' for Active; 'I' for Inactive)
REMARK    1  A    between atoms: C2_2  and  C3_3 
REMARK    2  A    between atoms: C3_3  and  C4_4 
REMARK    3  A    between atoms: C4_4  and  C5_5 
REMARK    4  A    between atoms: C5_5  and  C6_6 
REMARK    5  A    between atoms: C5_5  and  N5_34 
REMARK       I    between atoms: C6_6  and  N1_8 
REMARK    6  A    between atoms: N1_8  and  N2_10 
REMARK       I    between atoms: N2_10  and  C7_11 
REMARK    7  A    between atoms: N2_10  and  C18_31 
REMARK       I    between atoms: C7_11  and  N3_13 
REMARK    8  A    between atoms: N3_13  and  C8_15 
REMARK    9  A    between atoms: C8_15  and  C9_16 
REMARK   10  A    between atoms: C8_15  and  C15_28 
REMARK       I    between atoms: C9_16  and  N4_18 
REMARK   11  A    between atoms: N4_18  and  C10_20 
REMARK   12  A    between atoms: C10_20  and  C11_21 
REMARK   13  A    between atoms: C10_20  and  C12_23 
REMARK   14  A    between atoms: C12_23  and  O6_25 
REMARK   15  A    between atoms: O6_25  and  C13_26 
ROOT
HETATM    1  N2  UNL     1      20.234  31.323  15.224  1.00  0.00    -0.236 N 
HETATM    2  C7  UNL     1      18.988  31.722  15.744  1.00  0.00     0.338 C 
HETATM    3  O2  UNL     1      18.068  30.841  15.791  1.00  0.00    -0.245 OA
HETATM    4  N3  UNL     1      18.735  33.016  16.194  1.00  0.00    -0.328 N 
ATOM      5  H3  UNL     1      19.481  33.710  16.142  1.00  0.00     0.165 HD
ENDROOT
BRANCH   1   6
HETATM    6  N1  UNL     1      20.382  29.976  14.737  1.00  0.00    -0.258 N 
HETATM    7  C6  UNL     1      19.914  29.672  13.414  1.00  0.00     0.290 C 
HETATM    8  O1  UNL     1      19.401  30.645  12.781  1.00  0.00    -0.265 OA
ATOM      9  H1  UNL     1      20.809  29.255  15.319  1.00  0.00     0.190 HD
BRANCH   7  10
HETATM   10  C5  UNL     1      20.019  28.335  12.823  1.00  0.00     0.181 C 
BRANCH  10  11
HETATM   11  C4  UNL     1      21.122  28.192  11.803  1.00  0.00     0.071 C 
BRANCH  11  12
HETATM   12  C3  UNL     1      22.473  28.005  12.459  1.00  0.00     0.006 C 
BRANCH  12  13
HETATM   13  C2  UNL     1      23.307  27.001  11.706  1.00  0.00    -0.004 C 
HETATM   14  C1  UNL     1      24.763  27.095  12.070  1.00  0.00     0.005 C 
ENDBRANCH  12  13
ENDBRANCH  11  12
ENDBRANCH  10  11
BRANCH  10  15
HETATM   15  N5  UNL     1      18.788  27.700  12.470  1.00  0.00    -0.047 N 
HETATM   16  C21 UNL     1      18.978  26.315  11.996  1.00  0.00     0.278 C 
HETATM   17  C22 UNL     1      18.122  28.374  11.359  1.00  0.00     0.278 C 
HETATM   18  C23 UNL     1      17.916  27.585  13.614  1.00  0.00     0.278 C 
ENDBRANCH  10  15
ENDBRANCH   7  10
ENDBRANCH   1   6
BRANCH   1  19
HETATM   19  C18 UNL     1      21.350  32.219  15.175  1.00  0.00     0.105 C 
HETATM   20  C19 UNL     1      22.165  32.198  16.423  1.00  0.00     0.034 C 
HETATM   21  C20 UNL     1      22.135  32.124  13.892  1.00  0.00     0.034 C 
ENDBRANCH   1  19
BRANCH   4  22
HETATM   22  C8  UNL     1      17.442  33.412  16.738  1.00  0.00     0.181 C 
BRANCH  22  23
HETATM   23  C9  UNL     1      17.605  34.610  17.553  1.00  0.00     0.241 C 
HETATM   24  O3  UNL     1      17.077  34.714  18.716  1.00  0.00    -0.271 OA
HETATM   25  N4  UNL     1      18.354  35.725  17.109  1.00  0.00    -0.340 N 
ATOM     26  H4  UNL     1      18.788  35.714  16.187  1.00  0.00     0.163 HD
BRANCH  25  27
HETATM   27  C10 UNL     1      18.501  36.871  17.960  1.00  0.00     0.246 C 
BRANCH  27  28
HETATM   28  C11 UNL     1      19.925  37.008  18.337  1.00  0.00     0.266 C 
HETATM   29  O4  UNL     1      20.382  36.248  19.179  1.00  0.00    -0.304 OA
ENDBRANCH  27  28
BRANCH  27  30
HETATM   30  C12 UNL     1      18.014  38.094  17.233  1.00  0.00     0.288 C 
HETATM   31  O5  UNL     1      16.928  38.088  16.619  1.00  0.00    -0.262 OA
BRANCH  30  32
HETATM   32  O6  UNL     1      18.772  39.254  17.234  1.00  0.00    -0.320 OA
BRANCH  32  33
HETATM   33  C13 UNL     1      18.881  40.006  16.046  1.00  0.00     0.174 C 
HETATM   34  C14 UNL     1      20.265  39.784  15.495  1.00  0.00     0.034 C 
ENDBRANCH  32  33
ENDBRANCH  30  32
ENDBRANCH  27  30
ENDBRANCH  25  27
ENDBRANCH  22  23
BRANCH  22  35
HETATM   35  C15 UNL     1      16.429  33.593  15.623  1.00  0.00     0.009 C 
HETATM   36  C16 UNL     1      15.907  34.995  15.524  1.00  0.00     0.012 C 
HETATM   37  C17 UNL     1      15.237  32.700  15.884  1.00  0.00     0.012 C 
ENDBRANCH  22  35
ENDBRANCH   4  22
TORSDOF 15
ENDMDL
MODEL 2
REMARK VINA RESULT: -7.587162126      0.683      1.097
REMARK  15 active torsions:
REMARK  status: ('A' for Active; 'I' for Inactive)
REMARK    1  A    between atoms: C2_2  and  C3_3 
REMARK    2  A    between atoms: C3_3  and  C4_4 
REMARK    3  A    between atoms: C4_4  and  C5_5 
REMARK    4  A    between atoms: C5_5  and  C6_6 
REMARK    5  A    between atoms: C5_5  and  N5_34 
REMARK       I    between atoms: C6_6  and  N1_8 
REMARK    6  A    between atoms: N1_8  and  N2_10 
REMARK       I    between atoms: N2_10  and  C7_11 
REMARK    7  A    between atoms: N2_10  and  C18_31 
REMARK       I    between atoms: C7_11  and  N3_13 
REMARK    8  A    between atoms: N3_13  and  C8_15 
REMARK    9  A    between atoms: C8_15  and  C9_16 
REMARK   10  A    between atoms: C8_15  and  C15_28 
REMARK       I    between atoms: C9_16  and  N4_18 
REMARK   11  A    between atoms: N4_18  and  C10_20 
REMARK   12  A    between atoms: C10_20  and  C11_21 
REMARK   13  A    between atoms: C10_20  and  C12_23 
REMARK   14  A    between atoms: C12_23  and  O6_25 
REMARK   15  A    between atoms: O6_25  and  C13_26 
ROOT
HETATM    1  N2  UNL     1      20.232  31.271  15.222  1.00  0.00    -0.236 N 
HETATM    2  C7  UNL     1      18.993  31.691  15.742  1.00  0.00     0.338 C 
HETATM    3  O2  UNL     1      18.056  30.827  15.784  1.00  0.00    -0.245 OA
HETATM    4  N3  UNL     1      18.763  32.986  16.199  1.00  0.00    -0.328 N 
ATOM      5  H3  UNL     1      19.521  33.667  16.152  1.00  0.00     0.165 HD
ENDROOT
BRANCH   1   6
HETATM    6  N1  UNL     1      20.355  29.924  14.728  1.00  0.00    -0.258 N 
HETATM    7  C6  UNL     1      19.895  29.639  13.397  1.00  0.00     0.290 C 
HETATM    8  O1  UNL     1      19.411  30.626  12.765  1.00  0.00    -0.265 OA
ATOM      9  H1  UNL     1      20.760  29.190  15.310  1.00  0.00     0.190 HD
BRANCH   7  10
HETATM   10  C5  UNL     1      19.978  28.304  12.799  1.00  0.00     0.181 C 
BRANCH  10  11
HETATM   11  C4  UNL     1      21.067  28.152  11.767  1.00  0.00     0.071 C 
BRANCH  11  12
HETATM   12  C3  UNL     1      22.430  27.998  12.407  1.00  0.00     0.006 C 
BRANCH  12  13
HETATM   13  C2  UNL     1      23.261  26.975  11.676  1.00  0.00    -0.004 C 
HETATM   14  C1  UNL     1      24.718  27.077  12.032  1.00  0.00     0.005 C 
ENDBRANCH  12  13
ENDBRANCH  11  12
ENDBRANCH  10  11
BRANCH  10  15
HETATM   15  N5  UNL     1      18.735  27.685  12.458  1.00  0.00    -0.047 N 
HETATM   16  C21 UNL     1      18.902  26.296  11.987  1.00  0.00     0.278 C 
HETATM   17  C22 UNL     1      18.072  28.365  11.348  1.00  0.00     0.278 C 
HETATM   18  C23 UNL     1      17.869  27.587  13.608  1.00  0.00     0.278 C 
ENDBRANCH  10  15
ENDBRANCH   7  10
ENDBRANCH   1   6
BRANCH   1  19
HETATM   19  C18 UNL     1      21.364  32.147  15.179  1.00  0.00     0.105 C 
HETATM   20  C19 UNL     1      22.148  32.142  16.447  1.00  0.00     0.034 C 
HETATM   21  C20 UNL     1      22.179  32.007  13.919  1.00  0.00     0.034 C 
ENDBRANCH   1  19
BRANCH   4  22
HETATM   22  C8  UNL     1      17.476  33.404  16.743  1.00  0.00     0.181 C 
BRANCH  22  23
HETATM   23  C9  UNL     1      17.658  34.604  17.551  1.00  0.00     0.241 C 
HETATM   24  O3  UNL     1      17.040  34.772  18.661  1.00  0.00    -0.271 OA
HETATM   25  N4  UNL     1      18.524  35.651  17.157  1.00  0.00    -0.340 N 
ATOM     26  H4  UNL     1      19.035  35.587  16.277  1.00  0.00     0.163 HD
BRANCH  25  27
HETATM   27  C10 UNL     1      18.683  36.801  18.000  1.00  0.00     0.246 C 
BRANCH  27  28
HETATM   28  C11 UNL     1      20.052  36.799  18.563  1.00  0.00     0.266 C 
HETATM   29  O4  UNL     1      20.368  35.898  19.327  1.00  0.00    -0.304 OA
ENDBRANCH  27  28
BRANCH  27  30
HETATM   30  C12 UNL     1      18.432  38.045  17.193  1.00  0.00     0.288 C 
HETATM   31  O5  UNL     1      19.336  38.884  17.006  1.00  0.00    -0.262 OA
BRANCH  30  32
HETATM   32  O6  UNL     1      17.182  38.280  16.644  1.00  0.00    -0.320 OA
BRANCH  32  33
HETATM   33  C13 UNL     1      16.196  38.919  17.425  1.00  0.00     0.174 C 
HETATM   34  C14 UNL     1      16.131  40.357  16.983  1.00  0.00     0.034 C 
ENDBRANCH  32  33
ENDBRANCH  30  32
ENDBRANCH  27  30
ENDBRANCH  25  27
ENDBRANCH  22  23
BRANCH  22  35
HETATM   35  C15 UNL     1      16.464  33.593  15.629  1.00  0.00     0.009 C 
HETATM   36  C16 UNL     1      15.973  35.004  15.513  1.00  0.00     0.012 C 
HETATM   37  C17 UNL     1      15.254  32.729  15.906  1.00  0.00     0.012 C 
ENDBRANCH  22  35
ENDBRANCH   4  22
TORSDOF 15
ENDMDL
MODEL 3
REMARK VINA RESULT: -7.505686314      2.561      9.718
REMARK  15 active torsions:
REMARK  status: ('A' for Active; 'I' for Inactive)
REMARK    1  A    between atoms: C2_2  and  C3_3 
REMARK    2  A    between atoms: C3_3  and  C4_4 
REMARK    3  A    between atoms: C4_4  and  C5_5 
REMARK    4  A    between atoms: C5_5  and  C6_6 
REMARK    5  A    between atoms: C5_5  and  N5_34 
REMARK       I    between atoms: C6_6  and  N1_8 
REMARK    6  A    between atoms: N1_8  and  N2_10 
REMARK       I    between atoms: N2_10  and  C7_11 
REMARK    7  A    between atoms: N2_10  and  C18_31 
REMARK       I    between atoms: C7_11  and  N3_13 
REMARK    8  A    between atoms: N3_13  and  C8_15 
REMARK    9  A    between atoms: C8_15  and  C9_16 
REMARK   10  A    between atoms: C8_15  and  C15_28 
REMARK       I    between atoms: C9_16  and  N4_18 
REMARK   11  A    between atoms: N4_18  and  C10_20 
REMARK   12  A    between atoms: C10_20  and  C11_21 
REMARK   13  A    between atoms: C10_20  and  C12_23 
REMARK   14  A    between atoms: C12_23  and  O6_25 
REMARK   15  A    between atoms: O6_25  and  C13_26 
ROOT
HETATM    1  N2  UNL     1      18.479  32.078  15.987  1.00  0.00    -0.236 N 
HETATM    2  C7  UNL     1      19.315  31.052  15.506  1.00  0.00     0.338 C 
HETATM    3  O2  UNL     1      20.395  30.833  16.146  1.00  0.00    -0.245 OA
HETATM    4  N3  UNL     1      19.008  30.290  14.381  1.00  0.00    -0.328 N 
ATOM      5  H3  UNL     1      18.143  30.483  13.876  1.00  0.00     0.165 HD
ENDROOT
BRANCH   1   6
HETATM    6  N1  UNL     1      18.908  32.843  17.128  1.00  0.00    -0.258 N 
HETATM    7  C6  UNL     1      19.794  33.953  16.914  1.00  0.00     0.290 C 
HETATM    8  O1  UNL     1      20.125  34.160  15.707  1.00  0.00    -0.265 OA
ATOM      9  H1  UNL     1      18.589  32.602  18.067  1.00  0.00     0.190 HD
BRANCH   7  10
HETATM   10  C5  UNL     1      20.288  34.796  18.006  1.00  0.00     0.181 C 
BRANCH  10  11
HETATM   11  C4  UNL     1      19.574  36.119  18.139  1.00  0.00     0.071 C 
BRANCH  11  12
HETATM   12  C3  UNL     1      18.255  35.975  18.867  1.00  0.00     0.006 C 
BRANCH  12  13
HETATM   13  C2  UNL     1      17.093  36.128  17.919  1.00  0.00    -0.004 C 
HETATM   14  C1  UNL     1      16.043  35.076  18.143  1.00  0.00     0.005 C 
ENDBRANCH  12  13
ENDBRANCH  11  12
ENDBRANCH  10  11
BRANCH  10  15
HETATM   15  N5  UNL     1      21.707  34.859  18.166  1.00  0.00    -0.047 N 
HETATM   16  C21 UNL     1      22.114  35.013  19.576  1.00  0.00     0.278 C 
HETATM   17  C22 UNL     1      22.282  36.022  17.495  1.00  0.00     0.278 C 
HETATM   18  C23 UNL     1      22.334  33.636  17.729  1.00  0.00     0.278 C 
ENDBRANCH  10  15
ENDBRANCH   7  10
ENDBRANCH   1   6
BRANCH   1  19
HETATM   19  C18 UNL     1      17.218  32.370  15.372  1.00  0.00     0.105 C 
HETATM   20  C19 UNL     1      16.057  31.936  16.200  1.00  0.00     0.034 C 
HETATM   21  C20 UNL     1      17.132  33.772  14.827  1.00  0.00     0.034 C 
ENDBRANCH   1  19
BRANCH   4  22
HETATM   22  C8  UNL     1      19.880  29.225  13.900  1.00  0.00     0.181 C 
BRANCH  22  23
HETATM   23  C9  UNL     1      19.075  28.190  13.262  1.00  0.00     0.241 C 
HETATM   24  O3  UNL     1      18.113  27.607  13.877  1.00  0.00    -0.271 OA
HETATM   25  N4  UNL     1      19.307  27.770  11.932  1.00  0.00    -0.340 N 
ATOM     26  H4  UNL     1      20.067  28.182  11.391  1.00  0.00     0.163 HD
BRANCH  25  27
HETATM   27  C10 UNL     1      18.471  26.763  11.345  1.00  0.00     0.246 C 
BRANCH  27  28
HETATM   28  C11 UNL     1      17.680  27.372  10.253  1.00  0.00     0.266 C 
HETATM   29  O4  UNL     1      17.291  28.523  10.386  1.00  0.00    -0.304 OA
ENDBRANCH  27  28
BRANCH  27  30
HETATM   30  C12 UNL     1      19.332  25.642  10.829  1.00  0.00     0.288 C 
HETATM   31  O5  UNL     1      19.161  25.174   9.686  1.00  0.00    -0.262 OA
BRANCH  30  32
HETATM   32  O6  UNL     1      20.334  25.110  11.624  1.00  0.00    -0.320 OA
BRANCH  32  33
HETATM   33  C13 UNL     1      21.639  24.998  11.103  1.00  0.00     0.174 C 
HETATM   34  C14 UNL     1      22.432  26.174  11.609  1.00  0.00     0.034 C 
ENDBRANCH  32  33
ENDBRANCH  30  32
ENDBRANCH  27  30
ENDBRANCH  25  27
ENDBRANCH  22  23
BRANCH  22  35
HETATM   35  C15 UNL     1      20.949  29.787  12.981  1.00  0.00     0.009 C 
HETATM   36  C16 UNL     1      22.296  29.877  13.632  1.00  0.00     0.012 C 
HETATM   37  C17 UNL     1      20.564  31.192  12.574  1.00  0.00     0.012 C 
ENDBRANCH  22  35
ENDBRANCH   4  22
TORSDOF 15
ENDMDL
MODEL 4
REMARK VINA RESULT: -7.233673368      1.325      1.539
REMARK  15 active torsions:
REMARK  status: ('A' for Active; 'I' for Inactive)
REMARK    1  A    between atoms: C2_2  and  C3_3 
REMARK    2  A    between atoms: C3_3  and  C4_4 
REMARK    3  A    between atoms: C4_4  and  C5_5 
REMARK    4  A    between atoms: C5_5  and  C6_6 
REMARK    5  A    between atoms: C5_5  and  N5_34 
REMARK       I    between atoms: C6_6  and  N1_8 
REMARK    6  A    between atoms: N1_8  and  N2_10 
REMARK       I    between atoms: N2_10  and  C7_11 
REMARK    7  A    between atoms: N2_10  and  C18_31 
REMARK       I    between atoms: C7_11  and  N3_13 
REMARK    8  A    between atoms: N3_13  and  C8_15 
REMARK    9  A    between atoms: C8_15  and  C9_16 
REMARK   10  A    between atoms: C8_15  and  C15_28 
REMARK       I    between atoms: C9_16  and  N4_18 
REMARK   11  A    between atoms: N4_18  and  C10_20 
REMARK   12  A    between atoms: C10_20  and  C11_21 
REMARK   13  A    between atoms: C10_20  and  C12_23 
REMARK   14  A    between atoms: C12_23  and  O6_25 
REMARK   15  A    between atoms: O6_25  and  C13_26 
ROOT
HETATM    1  N2  UNL     1      20.281  30.826  15.045  1.00  0.00    -0.236 N 
HETATM    2  C7  UNL     1      19.068  31.262  15.611  1.00  0.00     0.338 C 
HETATM    3  O2  UNL     1      18.117  30.415  15.671  1.00  0.00    -0.245 OA
HETATM    4  N3  UNL     1      18.878  32.555  16.093  1.00  0.00    -0.328 N 
ATOM      5  H3  UNL     1      19.647  33.222  16.030  1.00  0.00     0.165 HD
ENDROOT
BRANCH   1   6
HETATM    6  N1  UNL     1      20.363  29.485  14.530  1.00  0.00    -0.258 N 
HETATM    7  C6  UNL     1      19.906  29.238  13.190  1.00  0.00     0.290 C 
HETATM    8  O1  UNL     1      19.462  30.252  12.570  1.00  0.00    -0.265 OA
ATOM      9  H1  UNL     1      20.736  28.728  15.102  1.00  0.00     0.190 HD
BRANCH   7  10
HETATM   10  C5  UNL     1      19.948  27.911  12.570  1.00  0.00     0.181 C 
BRANCH  10  11
HETATM   11  C4  UNL     1      21.062  27.729  11.569  1.00  0.00     0.071 C 
BRANCH  11  12
HETATM   12  C3  UNL     1      22.393  27.488  12.248  1.00  0.00     0.006 C 
BRANCH  12  13
HETATM   13  C2  UNL     1      23.478  27.221  11.236  1.00  0.00    -0.004 C 
HETATM   14  C1  UNL     1      24.786  26.877  11.892  1.00  0.00     0.005 C 
ENDBRANCH  12  13
ENDBRANCH  11  12
ENDBRANCH  10  11
BRANCH  10  15
HETATM   15  N5  UNL     1      18.691  27.355  12.178  1.00  0.00    -0.047 N 
HETATM   16  C21 UNL     1      18.791  25.931  11.803  1.00  0.00     0.278 C 
HETATM   17  C22 UNL     1      18.151  28.005  10.987  1.00  0.00     0.278 C 
HETATM   18  C23 UNL     1      17.746  27.387  13.269  1.00  0.00     0.278 C 
ENDBRANCH  10  15
ENDBRANCH   7  10
ENDBRANCH   1   6
BRANCH   1  19
HETATM   19  C18 UNL     1      21.428  31.682  14.977  1.00  0.00     0.105 C 
HETATM   20  C19 UNL     1      21.983  32.013  16.321  1.00  0.00     0.034 C 
HETATM   21  C20 UNL     1      22.442  31.239  13.954  1.00  0.00     0.034 C 
ENDBRANCH   1  19
BRANCH   4  22
HETATM   22  C8  UNL     1      17.617  32.988  16.684  1.00  0.00     0.181 C 
BRANCH  22  23
HETATM   23  C9  UNL     1      17.886  33.954  17.744  1.00  0.00     0.241 C 
HETATM   24  O3  UNL     1      16.962  34.370  18.529  1.00  0.00    -0.271 OA
HETATM   25  N4  UNL     1      19.177  34.485  17.967  1.00  0.00    -0.340 N 
ATOM     26  H4  UNL     1      19.955  34.207  17.368  1.00  0.00     0.163 HD
BRANCH  25  27
HETATM   27  C10 UNL     1      19.391  35.416  19.037  1.00  0.00     0.246 C 
BRANCH  27  28
HETATM   28  C11 UNL     1      20.409  34.863  19.958  1.00  0.00     0.266 C 
HETATM   29  O4  UNL     1      21.573  35.212  19.819  1.00  0.00    -0.304 OA
ENDBRANCH  27  28
BRANCH  27  30
HETATM   30  C12 UNL     1      19.837  36.735  18.467  1.00  0.00     0.288 C 
HETATM   31  O5  UNL     1      19.609  37.805  19.065  1.00  0.00    -0.262 OA
BRANCH  30  32
HETATM   32  O6  UNL     1      20.511  36.778  17.257  1.00  0.00    -0.320 OA
BRANCH  32  33
HETATM   33  C13 UNL     1      21.391  37.849  16.998  1.00  0.00     0.174 C 
HETATM   34  C14 UNL     1      22.718  37.507  17.622  1.00  0.00     0.034 C 
ENDBRANCH  32  33
ENDBRANCH  30  32
ENDBRANCH  27  30
ENDBRANCH  25  27
ENDBRANCH  22  23
BRANCH  22  35
HETATM   35  C15 UNL     1      16.688  33.532  15.616  1.00  0.00     0.009 C 
HETATM   36  C16 UNL     1      16.432  35.003  15.751  1.00  0.00     0.012 C 
HETATM   37  C17 UNL     1      15.347  32.842  15.726  1.00  0.00     0.012 C 
ENDBRANCH  22  35
ENDBRANCH   4  22
TORSDOF 15
ENDMDL
MODEL 5
REMARK VINA RESULT: -7.214803405      1.946      4.584
REMARK  15 active torsions:
REMARK  status: ('A' for Active; 'I' for Inactive)
REMARK    1  A    between atoms: C2_2  and  C3_3 
REMARK    2  A    between atoms: C3_3  and  C4_4 
REMARK    3  A    between atoms: C4_4  and  C5_5 
REMARK    4  A    between atoms: C5_5  and  C6_6 
REMARK    5  A    between atoms: C5_5  and  N5_34 
REMARK       I    between atoms: C6_6  and  N1_8 
REMARK    6  A    between atoms: N1_8  and  N2_10 
REMARK       I    between atoms: N2_10  and  C7_11 
REMARK    7  A    between atoms: N2_10  and  C18_31 
REMARK       I    between atoms: C7_11  and  N3_13 
REMARK    8  A    between atoms: N3_13  and  C8_15 
REMARK    9  A    between atoms: C8_15  and  C9_16 
REMARK   10  A    between atoms: C8_15  and  C15_28 
REMARK       I    between atoms: C9_16  and  N4_18 
REMARK   11  A    between atoms: N4_18  and  C10_20 
REMARK   12  A    between atoms: C10_20  and  C11_21 
REMARK   13  A    between atoms: C10_20  and  C12_23 
REMARK   14  A    between atoms: C12_23  and  O6_25 
REMARK   15  A    between atoms: O6_25  and  C13_26 
ROOT
HETATM    1  N2  UNL     1      21.471  32.522  15.943  1.00  0.00    -0.236 N 
HETATM    2  C7  UNL     1      20.888  33.799  16.044  1.00  0.00     0.338 C 
HETATM    3  O2  UNL     1      19.678  33.918  15.663  1.00  0.00    -0.245 OA
HETATM    4  N3  UNL     1      21.575  34.908  16.533  1.00  0.00    -0.328 N 
ATOM      5  H3  UNL     1      22.545  34.797  16.827  1.00  0.00     0.165 HD
ENDROOT
BRANCH   1   6
HETATM    6  N1  UNL     1      20.695  31.449  15.377  1.00  0.00    -0.258 N 
HETATM    7  C6  UNL     1      20.812  31.189  13.969  1.00  0.00     0.290 C 
HETATM    8  O1  UNL     1      21.609  31.949  13.340  1.00  0.00    -0.265 OA
ATOM      9  H1  UNL     1      20.077  30.887  15.963  1.00  0.00     0.190 HD
BRANCH   7  10
HETATM   10  C5  UNL     1      20.069  30.121  13.296  1.00  0.00     0.181 C 
BRANCH  10  11
HETATM   11  C4  UNL     1      18.713  29.835  13.893  1.00  0.00     0.071 C 
BRANCH  11  12
HETATM   12  C3  UNL     1      17.671  30.826  13.421  1.00  0.00     0.006 C 
BRANCH  12  13
HETATM   13  C2  UNL     1      17.228  31.726  14.545  1.00  0.00    -0.004 C 
HETATM   14  C1  UNL     1      17.251  31.020  15.872  1.00  0.00     0.005 C 
ENDBRANCH  12  13
ENDBRANCH  11  12
ENDBRANCH  10  11
BRANCH  10  15
HETATM   15  N5  UNL     1      20.820  28.962  12.928  1.00  0.00    -0.047 N 
HETATM   16  C21 UNL     1      19.961  27.822  12.553  1.00  0.00     0.278 C 
HETATM   17  C22 UNL     1      21.626  28.457  14.037  1.00  0.00     0.278 C 
HETATM   18  C23 UNL     1      21.630  29.216  11.762  1.00  0.00     0.278 C 
ENDBRANCH  10  15
ENDBRANCH   7  10
ENDBRANCH   1   6
BRANCH   1  19
HETATM   19  C18 UNL     1      22.807  32.268  16.393  1.00  0.00     0.105 C 
HETATM   20  C19 UNL     1      23.840  32.900  15.523  1.00  0.00     0.034 C 
HETATM   21  C20 UNL     1      22.989  32.488  17.872  1.00  0.00     0.034 C 
ENDBRANCH   1  19
BRANCH   4  22
HETATM   22  C8  UNL     1      20.954  36.223  16.640  1.00  0.00     0.181 C 
BRANCH  22  23
HETATM   23  C9  UNL     1      19.894  36.179  17.641  1.00  0.00     0.241 C 
HETATM   24  O3  UNL     1      20.143  35.980  18.882  1.00  0.00    -0.271 OA
HETATM   25  N4  UNL     1      18.532  36.354  17.301  1.00  0.00    -0.340 N 
ATOM     26  H4  UNL     1      18.263  36.502  16.329  1.00  0.00     0.163 HD
BRANCH  25  27
HETATM   27  C10 UNL     1      17.531  36.323  18.328  1.00  0.00     0.246 C 
BRANCH  27  28
HETATM   28  C11 UNL     1      16.750  37.580  18.275  1.00  0.00     0.266 C 
HETATM   29  O4  UNL     1      16.343  37.968  17.190  1.00  0.00    -0.304 OA
ENDBRANCH  27  28
BRANCH  27  30
HETATM   30  C12 UNL     1      16.643  35.126  18.120  1.00  0.00     0.288 C 
HETATM   31  O5  UNL     1      15.852  34.750  19.007  1.00  0.00    -0.262 OA
BRANCH  30  32
HETATM   32  O6  UNL     1      16.695  34.419  16.929  1.00  0.00    -0.320 OA
BRANCH  32  33
HETATM   33  C13 UNL     1      15.603  34.491  16.039  1.00  0.00     0.174 C 
HETATM   34  C14 UNL     1      16.083  35.179  14.788  1.00  0.00     0.034 C 
ENDBRANCH  32  33
ENDBRANCH  30  32
ENDBRANCH  27  30
ENDBRANCH  25  27
ENDBRANCH  22  23
BRANCH  22  35
HETATM   35  C15 UNL     1      21.999  37.282  16.938  1.00  0.00     0.009 C 
HETATM   36  C16 UNL     1      22.914  36.905  18.064  1.00  0.00     0.012 C 
HETATM   37  C17 UNL     1      21.306  38.562  17.347  1.00  0.00     0.012 C 
ENDBRANCH  22  35
ENDBRANCH   4  22
TORSDOF 15
ENDMDL
