MODEL 1
REMARK VINA RESULT: -7.639866632      0.000      0.000
REMARK  15 active torsions:
REMARK  status: ('A' for Active; 'I' for Inactive)
REMARK    1  A    between atoms: C2_2  and  C3_3 
REMARK    2  A    between atoms: C3_3  and  O1_4 
REMARK    3  A    between atoms: O1_4  and  C4_5 
REMARK    4  A    between atoms: C4_5  and  C5_6 
REMARK    5  A    between atoms: C5_6  and  C6_7 
REMARK    6  A    between atoms: C6_7  and  N1_8 
REMARK    7  A    between atoms: N1_8  and  C7_10 
REMARK    8  A    between atoms: N3_14  and  C9_16 
REMARK    9  A    between atoms: C9_16  and  C10_17 
REMARK   10  A    between atoms: C10_17  and  C11_18 
REMARK   11  A    between atoms: C11_18  and  N4_19 
REMARK   12  A    between atoms: N5_22  and  C14_23 
REMARK   13  A    between atoms: C14_23  and  C15_24 
REMARK   14  A    between atoms: C22_33  and  N7_34 
REMARK   15  A    between atoms: N7_34  and  C23_36 
ROOT
HETATM    1  C7  UNL     1      20.605  25.818  11.397  1.00  0.00     0.707 A 
HETATM    2  N2  UNL     1      21.124  26.759  12.246  1.00  0.00    -0.022 N 
ATOM      3  H2  UNL     1      20.556  27.072  13.033  1.00  0.00     0.203 HD
HETATM    4  C8  UNL     1      22.342  27.286  12.087  1.00  0.00     0.707 A 
HETATM    5  N3  UNL     1      22.887  28.156  12.832  1.00  0.00    -0.225 N 
ATOM      6  H3  UNL     1      23.827  28.463  12.581  1.00  0.00     0.177 HD
HETATM    7  N6  UNL     1      23.065  26.830  11.008  1.00  0.00    -0.022 N 
ATOM      8  H6  UNL     1      23.999  27.208  10.852  1.00  0.00     0.203 HD
HETATM    9  C22 UNL     1      22.600  25.918  10.161  1.00  0.00     0.707 A 
HETATM   10  N8  UNL     1      21.357  25.424  10.379  1.00  0.00    -0.022 N 
ATOM     11  H8  UNL     1      20.986  24.725   9.736  1.00  0.00     0.203 HD
ENDROOT
BRANCH   5  12
HETATM   12  C9  UNL     1      22.301  28.734  13.981  1.00  0.00     0.140 C 
BRANCH  12  13
HETATM   13  C10 UNL     1      22.380  30.249  13.838  1.00  0.00     0.050 C 
BRANCH  13  14
HETATM   14  C11 UNL     1      21.121  30.740  13.179  1.00  0.00     0.274 C 
BRANCH  14  15
HETATM   15  N4  UNL     1      20.000  30.446  14.021  1.00  0.00     0.094 N 
HETATM   16  C12 UNL     1      20.084  30.955  15.356  1.00  0.00     0.293 C 
HETATM   17  C13 UNL     1      19.483  32.354  15.463  1.00  0.00     0.157 C 
HETATM   18  N5  UNL     1      18.078  32.239  15.207  1.00  0.00    -0.370 N 
HETATM   19  C20 UNL     1      17.687  31.228  14.326  1.00  0.00     0.093 C 
HETATM   20  C21 UNL     1      18.786  30.869  13.347  1.00  0.00     0.317 C 
BRANCH  18  21
HETATM   21  C14 UNL     1      17.229  32.634  16.239  1.00  0.00     0.068 C 
BRANCH  21  22
HETATM   22  C15 UNL     1      15.946  33.276  15.874  1.00  0.00     0.024 C 
HETATM   23  C16 UNL     1      15.255  33.677  17.187  1.00  0.00     0.010 C 
HETATM   24  C17 UNL     1      14.945  35.136  17.084  1.00  0.00     0.001 C 
HETATM   25  C18 UNL     1      16.062  35.663  16.209  1.00  0.00     0.001 C 
HETATM   26  C19 UNL     1      16.136  34.580  15.141  1.00  0.00     0.010 C 
ENDBRANCH  21  22
ENDBRANCH  18  21
ENDBRANCH  14  15
ENDBRANCH  13  14
ENDBRANCH  12  13
ENDBRANCH   5  12
BRANCH   1  27
HETATM   27  N1  UNL     1      19.436  25.396  11.655  1.00  0.00    -0.225 N 
ATOM     28  H1  UNL     1      19.326  24.397  11.828  1.00  0.00     0.177 HD
BRANCH  27  29
HETATM   29  C6  UNL     1      18.255  26.216  11.724  1.00  0.00     0.140 C 
BRANCH  29  30
HETATM   30  C5  UNL     1      18.059  26.802  10.319  1.00  0.00     0.046 C 
BRANCH  30  31
HETATM   31  C4  UNL     1      17.549  25.738   9.399  1.00  0.00     0.169 C 
BRANCH  31  32
HETATM   32  O1  UNL     1      18.536  24.977   8.816  1.00  0.00    -0.391 OA
BRANCH  32  33
HETATM   33  C3  UNL     1      19.013  25.450   7.625  1.00  0.00     0.167 C 
BRANCH  33  34
HETATM   34  C2  UNL     1      17.946  25.871   6.642  1.00  0.00     0.022 C 
HETATM   35  C1  UNL     1      18.296  27.249   6.087  1.00  0.00     0.007 C 
ENDBRANCH  33  34
ENDBRANCH  32  33
ENDBRANCH  31  32
ENDBRANCH  30  31
ENDBRANCH  29  30
ENDBRANCH  27  29
ENDBRANCH   1  27
BRANCH   9  36
HETATM   36  N7  UNL     1      23.335  25.538   9.171  1.00  0.00    -0.220 N 
ATOM     37  H7  UNL     1      24.167  26.091   8.965  1.00  0.00     0.178 HD
BRANCH  36  38
HETATM   38  C23 UNL     1      23.077  24.402   8.338  1.00  0.00     0.099 A 
HETATM   39  C24 UNL     1      22.630  24.659   6.953  1.00  0.00     0.028 A 
HETATM   40  C25 UNL     1      24.049  24.278   7.159  1.00  0.00     0.028 A 
ENDBRANCH  36  38
ENDBRANCH   9  36
TORSDOF 15
ENDMDL
MODEL 2
REMARK VINA RESULT: -7.577746774      1.779      2.583
REMARK  15 active torsions:
REMARK  status: ('A' for Active; 'I' for Inactive)
REMARK    1  A    between atoms: C2_2  and  C3_3 
REMARK    2  A    between atoms: C3_3  and  O1_4 
REMARK    3  A    between atoms: O1_4  and  C4_5 
REMARK    4  A    between atoms: C4_5  and  C5_6 
REMARK    5  A    between atoms: C5_6  and  C6_7 
REMARK    6  A    between atoms: C6_7  and  N1_8 
REMARK    7  A    between atoms: N1_8  and  C7_10 
REMARK    8  A    between atoms: N3_14  and  C9_16 
REMARK    9  A    between atoms: C9_16  and  C10_17 
REMARK   10  A    between atoms: C10_17  and  C11_18 
REMARK   11  A    between atoms: C11_18  and  N4_19 
REMARK   12  A    between atoms: N5_22  and  C14_23 
REMARK   13  A    between atoms: C14_23  and  C15_24 
REMARK   14  A    between atoms: C22_33  and  N7_34 
REMARK   15  A    between atoms: N7_34  and  C23_36 
ROOT
HETATM    1  C7  UNL     1      20.207  28.157  13.727  1.00  0.00     0.707 A 
HETATM    2  N2  UNL     1      20.991  29.151  14.252  1.00  0.00    -0.022 N 
ATOM      3  H2  UNL     1      20.574  29.799  14.920  1.00  0.00     0.203 HD
HETATM    4  C8  UNL     1      22.278  29.308  13.926  1.00  0.00     0.707 A 
HETATM    5  N3  UNL     1      23.062  30.199  14.372  1.00  0.00    -0.225 N 
ATOM      6  H3  UNL     1      24.022  30.192  14.027  1.00  0.00     0.177 HD
HETATM    7  N6  UNL     1      22.788  28.407  13.020  1.00  0.00    -0.022 N 
ATOM      8  H6  UNL     1      23.767  28.493  12.744  1.00  0.00     0.203 HD
HETATM    9  C22 UNL     1      22.064  27.428  12.486  1.00  0.00     0.707 A 
HETATM   10  N8  UNL     1      20.765  27.325  12.859  1.00  0.00    -0.022 N 
ATOM     11  H8  UNL     1      20.197  26.580  12.458  1.00  0.00     0.203 HD
ENDROOT
BRANCH   5  12
HETATM   12  C9  UNL     1      22.716  31.200  15.307  1.00  0.00     0.140 C 
BRANCH  12  13
HETATM   13  C10 UNL     1      22.737  32.544  14.587  1.00  0.00     0.050 C 
BRANCH  13  14
HETATM   14  C11 UNL     1      21.453  33.270  14.882  1.00  0.00     0.274 C 
BRANCH  14  15
HETATM   15  N4  UNL     1      20.412  32.315  15.113  1.00  0.00     0.094 N 
HETATM   16  C12 UNL     1      19.824  32.350  16.418  1.00  0.00     0.293 C 
HETATM   17  C13 UNL     1      18.629  33.297  16.472  1.00  0.00     0.157 C 
HETATM   18  N5  UNL     1      17.608  32.749  15.629  1.00  0.00    -0.370 N 
HETATM   19  C20 UNL     1      18.042  32.016  14.523  1.00  0.00     0.093 C 
HETATM   20  C21 UNL     1      19.420  32.442  14.061  1.00  0.00     0.317 C 
BRANCH  18  21
HETATM   21  C14 UNL     1      16.402  32.431  16.250  1.00  0.00     0.068 C 
BRANCH  21  22
HETATM   22  C15 UNL     1      15.283  33.394  16.127  1.00  0.00     0.024 C 
HETATM   23  C16 UNL     1      15.117  34.067  17.499  1.00  0.00     0.010 C 
HETATM   24  C17 UNL     1      15.186  35.542  17.268  1.00  0.00     0.001 C 
HETATM   25  C18 UNL     1      16.112  35.659  16.077  1.00  0.00     0.001 C 
HETATM   26  C19 UNL     1      15.597  34.533  15.191  1.00  0.00     0.010 C 
ENDBRANCH  21  22
ENDBRANCH  18  21
ENDBRANCH  14  15
ENDBRANCH  13  14
ENDBRANCH  12  13
ENDBRANCH   5  12
BRANCH   1  27
HETATM   27  N1  UNL     1      19.000  28.115  14.117  1.00  0.00    -0.225 N 
ATOM     28  H1  UNL     1      18.795  28.471  15.050  1.00  0.00     0.177 HD
BRANCH  27  29
HETATM   29  C6  UNL     1      17.897  27.602  13.346  1.00  0.00     0.140 C 
BRANCH  29  30
HETATM   30  C5  UNL     1      17.502  28.719  12.370  1.00  0.00     0.046 C 
BRANCH  30  31
HETATM   31  C4  UNL     1      17.659  28.234  10.964  1.00  0.00     0.169 C 
BRANCH  31  32
HETATM   32  O1  UNL     1      18.881  27.658  10.701  1.00  0.00    -0.391 OA
BRANCH  32  33
HETATM   33  C3  UNL     1      18.858  26.618   9.813  1.00  0.00     0.167 C 
BRANCH  33  34
HETATM   34  C2  UNL     1      17.476  26.117   9.465  1.00  0.00     0.022 C 
HETATM   35  C1  UNL     1      17.478  25.609   8.026  1.00  0.00     0.007 C 
ENDBRANCH  33  34
ENDBRANCH  32  33
ENDBRANCH  31  32
ENDBRANCH  30  31
ENDBRANCH  29  30
ENDBRANCH  27  29
ENDBRANCH   1  27
BRANCH   9  36
HETATM   36  N7  UNL     1      22.611  26.621  11.642  1.00  0.00    -0.220 N 
ATOM     37  H7  UNL     1      22.167  25.713  11.505  1.00  0.00     0.178 HD
BRANCH  36  38
HETATM   38  C23 UNL     1      23.792  26.897  10.881  1.00  0.00     0.099 A 
HETATM   39  C24 UNL     1      25.039  26.213  11.284  1.00  0.00     0.028 A 
HETATM   40  C25 UNL     1      24.314  25.683  10.104  1.00  0.00     0.028 A 
ENDBRANCH  36  38
ENDBRANCH   9  36
TORSDOF 15
ENDMDL
MODEL 3
REMARK VINA RESULT: -7.573353800      1.468      2.506
REMARK  15 active torsions:
REMARK  status: ('A' for Active; 'I' for Inactive)
REMARK    1  A    between atoms: C2_2  and  C3_3 
REMARK    2  A    between atoms: C3_3  and  O1_4 
REMARK    3  A    between atoms: O1_4  and  C4_5 
REMARK    4  A    between atoms: C4_5  and  C5_6 
REMARK    5  A    between atoms: C5_6  and  C6_7 
REMARK    6  A    between atoms: C6_7  and  N1_8 
REMARK    7  A    between atoms: N1_8  and  C7_10 
REMARK    8  A    between atoms: N3_14  and  C9_16 
REMARK    9  A    between atoms: C9_16  and  C10_17 
REMARK   10  A    between atoms: C10_17  and  C11_18 
REMARK   11  A    between atoms: C11_18  and  N4_19 
REMARK   12  A    between atoms: N5_22  and  C14_23 
REMARK   13  A    between atoms: C14_23  and  C15_24 
REMARK   14  A    between atoms: C22_33  and  N7_34 
REMARK   15  A    between atoms: N7_34  and  C23_36 
ROOT
HETATM    1  C7  UNL     1      20.363  25.978  11.073  1.00  0.00     0.707 A 
HETATM    2  N2  UNL     1      20.827  26.891  11.984  1.00  0.00    -0.022 N 
ATOM      3  H2  UNL     1      20.156  27.352  12.597  1.00  0.00     0.203 HD
HETATM    4  C8  UNL     1      22.121  27.203  12.102  1.00  0.00     0.707 A 
HETATM    5  N3  UNL     1      22.622  28.032  12.921  1.00  0.00    -0.225 N 
ATOM      6  H3  UNL     1      23.633  28.165  12.891  1.00  0.00     0.177 HD
HETATM    7  N6  UNL     1      22.983  26.552  11.249  1.00  0.00    -0.022 N 
ATOM      8  H6  UNL     1      23.980  26.763  11.307  1.00  0.00     0.203 HD
HETATM    9  C22 UNL     1      22.576  25.660  10.352  1.00  0.00     0.707 A 
HETATM   10  N8  UNL     1      21.250  25.390  10.283  1.00  0.00    -0.022 N 
ATOM     11  H8  UNL     1      20.922  24.709   9.599  1.00  0.00     0.203 HD
ENDROOT
BRANCH   5  12
HETATM   12  C9  UNL     1      21.895  28.786  13.870  1.00  0.00     0.140 C 
BRANCH  12  13
HETATM   13  C10 UNL     1      22.710  30.030  14.205  1.00  0.00     0.050 C 
BRANCH  13  14
HETATM   14  C11 UNL     1      21.952  31.244  13.741  1.00  0.00     0.274 C 
BRANCH  14  15
HETATM   15  N4  UNL     1      20.643  31.236  14.322  1.00  0.00     0.094 N 
HETATM   16  C12 UNL     1      20.576  31.646  15.692  1.00  0.00     0.293 C 
HETATM   17  C13 UNL     1      20.352  33.150  15.818  1.00  0.00     0.157 C 
HETATM   18  N5  UNL     1      19.052  33.437  15.289  1.00  0.00    -0.370 N 
HETATM   19  C20 UNL     1      18.604  32.611  14.256  1.00  0.00     0.093 C 
HETATM   20  C21 UNL     1      19.750  32.004  13.474  1.00  0.00     0.317 C 
BRANCH  18  21
HETATM   21  C14 UNL     1      18.139  34.008  16.175  1.00  0.00     0.068 C 
BRANCH  21  22
HETATM   22  C15 UNL     1      16.696  33.834  15.890  1.00  0.00     0.024 C 
HETATM   23  C16 UNL     1      16.024  33.419  17.209  1.00  0.00     0.010 C 
HETATM   24  C17 UNL     1      14.910  34.385  17.450  1.00  0.00     0.001 C 
HETATM   25  C18 UNL     1      15.420  35.661  16.815  1.00  0.00     0.001 C 
HETATM   26  C19 UNL     1      16.017  35.129  15.519  1.00  0.00     0.010 C 
ENDBRANCH  21  22
ENDBRANCH  18  21
ENDBRANCH  14  15
ENDBRANCH  13  14
ENDBRANCH  12  13
ENDBRANCH   5  12
BRANCH   1  27
HETATM   27  N1  UNL     1      19.111  25.770  11.059  1.00  0.00    -0.225 N 
ATOM     28  H1  UNL     1      18.658  25.574  11.952  1.00  0.00     0.177 HD
BRANCH  27  29
HETATM   29  C6  UNL     1      18.281  25.787   9.883  1.00  0.00     0.140 C 
BRANCH  29  30
HETATM   30  C5  UNL     1      18.173  27.257   9.457  1.00  0.00     0.046 C 
BRANCH  30  31
HETATM   31  C4  UNL     1      17.445  28.032  10.509  1.00  0.00     0.169 C 
BRANCH  31  32
HETATM   32  O1  UNL     1      18.263  28.772  11.332  1.00  0.00    -0.391 OA
BRANCH  32  33
HETATM   33  C3  UNL     1      17.680  29.223  12.484  1.00  0.00     0.167 C 
BRANCH  33  34
HETATM   34  C2  UNL     1      18.228  28.608  13.750  1.00  0.00     0.022 C 
HETATM   35  C1  UNL     1      17.562  27.254  13.975  1.00  0.00     0.007 C 
ENDBRANCH  33  34
ENDBRANCH  32  33
ENDBRANCH  31  32
ENDBRANCH  30  31
ENDBRANCH  29  30
ENDBRANCH  27  29
ENDBRANCH   1  27
BRANCH   9  36
HETATM   36  N7  UNL     1      23.442  25.090   9.584  1.00  0.00    -0.220 N 
ATOM     37  H7  UNL     1      24.427  25.283   9.764  1.00  0.00     0.178 HD
BRANCH  36  38
HETATM   38  C23 UNL     1      23.132  24.207   8.501  1.00  0.00     0.099 A 
HETATM   39  C24 UNL     1      23.100  24.782   7.140  1.00  0.00     0.028 A 
HETATM   40  C25 UNL     1      24.299  24.002   7.529  1.00  0.00     0.028 A 
ENDBRANCH  36  38
ENDBRANCH   9  36
TORSDOF 15
ENDMDL
MODEL 4
REMARK VINA RESULT: -7.564988759      6.009     10.816
REMARK  15 active torsions:
REMARK  status: ('A' for Active; 'I' for Inactive)
REMARK    1  A    between atoms: C2_2  and  C3_3 
REMARK    2  A    between atoms: C3_3  and  O1_4 
REMARK    3  A    between atoms: O1_4  and  C4_5 
REMARK    4  A    between atoms: C4_5  and  C5_6 
REMARK    5  A    between atoms: C5_6  and  C6_7 
REMARK    6  A    between atoms: C6_7  and  N1_8 
REMARK    7  A    between atoms: N1_8  and  C7_10 
REMARK    8  A    between atoms: N3_14  and  C9_16 
REMARK    9  A    between atoms: C9_16  and  C10_17 
REMARK   10  A    between atoms: C10_17  and  C11_18 
REMARK   11  A    between atoms: C11_18  and  N4_19 
REMARK   12  A    between atoms: N5_22  and  C14_23 
REMARK   13  A    between atoms: C14_23  and  C15_24 
REMARK   14  A    between atoms: C22_33  and  N7_34 
REMARK   15  A    between atoms: N7_34  and  C23_36 
ROOT
HETATM    1  C7  UNL     1      20.830  36.729  16.701  1.00  0.00     0.707 A 
HETATM    2  N2  UNL     1      19.657  36.449  17.351  1.00  0.00    -0.022 N 
ATOM      3  H2  UNL     1      18.960  37.188  17.438  1.00  0.00     0.203 HD
HETATM    4  C8  UNL     1      19.387  35.250  17.877  1.00  0.00     0.707 A 
HETATM    5  N3  UNL     1      18.326  34.919  18.487  1.00  0.00    -0.225 N 
ATOM      6  H3  UNL     1      18.266  33.962  18.835  1.00  0.00     0.177 HD
HETATM    7  N6  UNL     1      20.363  34.290  17.732  1.00  0.00    -0.022 N 
ATOM      8  H6  UNL     1      20.196  33.362  18.120  1.00  0.00     0.203 HD
HETATM    9  C22 UNL     1      21.514  34.518  17.109  1.00  0.00     0.707 A 
HETATM   10  N8  UNL     1      21.725  35.756  16.599  1.00  0.00    -0.022 N 
ATOM     11  H8  UNL     1      22.605  35.946  16.119  1.00  0.00     0.203 HD
ENDROOT
BRANCH   5  12
HETATM   12  C9  UNL     1      17.221  35.767  18.726  1.00  0.00     0.140 C 
BRANCH  12  13
HETATM   13  C10 UNL     1      15.957  35.017  18.323  1.00  0.00     0.050 C 
BRANCH  13  14
HETATM   14  C11 UNL     1      15.496  35.529  16.985  1.00  0.00     0.274 C 
BRANCH  14  15
HETATM   15  N4  UNL     1      15.383  34.432  16.072  1.00  0.00     0.094 N 
HETATM   16  C12 UNL     1      16.207  34.518  14.904  1.00  0.00     0.293 C 
HETATM   17  C13 UNL     1      17.570  33.869  15.128  1.00  0.00     0.157 C 
HETATM   18  N5  UNL     1      17.352  32.466  15.316  1.00  0.00    -0.370 N 
HETATM   19  C20 UNL     1      16.145  32.098  15.914  1.00  0.00     0.093 C 
HETATM   20  C21 UNL     1      15.591  33.194  16.801  1.00  0.00     0.317 C 
BRANCH  18  21
HETATM   21  C14 UNL     1      17.962  31.619  14.392  1.00  0.00     0.068 C 
BRANCH  21  22
HETATM   22  C15 UNL     1      18.164  30.203  14.778  1.00  0.00     0.024 C 
HETATM   23  C16 UNL     1      18.173  29.381  13.479  1.00  0.00     0.010 C 
HETATM   24  C17 UNL     1      19.442  28.592  13.476  1.00  0.00     0.001 C 
HETATM   25  C18 UNL     1      20.402  29.483  14.235  1.00  0.00     0.001 C 
HETATM   26  C19 UNL     1      19.521  29.953  15.385  1.00  0.00     0.010 C 
ENDBRANCH  21  22
ENDBRANCH  18  21
ENDBRANCH  14  15
ENDBRANCH  13  14
ENDBRANCH  12  13
ENDBRANCH   5  12
BRANCH   1  27
HETATM   27  N1  UNL     1      20.966  37.905  16.246  1.00  0.00    -0.225 N 
ATOM     28  H1  UNL     1      21.315  38.002  15.292  1.00  0.00     0.177 HD
BRANCH  27  29
HETATM   29  C6  UNL     1      20.669  39.114  16.970  1.00  0.00     0.140 C 
BRANCH  29  30
HETATM   30  C5  UNL     1      20.109  40.103  15.939  1.00  0.00     0.046 C 
BRANCH  30  31
HETATM   31  C4  UNL     1      18.615  40.127  16.027  1.00  0.00     0.169 C 
BRANCH  31  32
HETATM   32  O1  UNL     1      18.061  38.960  16.503  1.00  0.00    -0.391 OA
BRANCH  32  33
HETATM   33  C3  UNL     1      16.791  39.076  16.997  1.00  0.00     0.167 C 
BRANCH  33  34
HETATM   34  C2  UNL     1      16.186  40.454  16.866  1.00  0.00     0.022 C 
HETATM   35  C1  UNL     1      15.109  40.628  17.932  1.00  0.00     0.007 C 
ENDBRANCH  33  34
ENDBRANCH  32  33
ENDBRANCH  31  32
ENDBRANCH  30  31
ENDBRANCH  29  30
ENDBRANCH  27  29
ENDBRANCH   1  27
BRANCH   9  36
HETATM   36  N7  UNL     1      22.383  33.569  17.012  1.00  0.00    -0.220 N 
ATOM     37  H7  UNL     1      23.195  33.612  17.627  1.00  0.00     0.178 HD
BRANCH  36  38
HETATM   38  C23 UNL     1      22.298  32.460  16.110  1.00  0.00     0.099 A 
HETATM   39  C24 UNL     1      22.048  32.758  14.684  1.00  0.00     0.028 A 
HETATM   40  C25 UNL     1      23.436  32.421  15.083  1.00  0.00     0.028 A 
ENDBRANCH  36  38
ENDBRANCH   9  36
TORSDOF 15
ENDMDL
MODEL 5
REMARK VINA RESULT: -7.551965803      3.465     10.304
REMARK  15 active torsions:
REMARK  status: ('A' for Active; 'I' for Inactive)
REMARK    1  A    between atoms: C2_2  and  C3_3 
REMARK    2  A    between atoms: C3_3  and  O1_4 
REMARK    3  A    between atoms: O1_4  and  C4_5 
REMARK    4  A    between atoms: C4_5  and  C5_6 
REMARK    5  A    between atoms: C5_6  and  C6_7 
REMARK    6  A    between atoms: C6_7  and  N1_8 
REMARK    7  A    between atoms: N1_8  and  C7_10 
REMARK    8  A    between atoms: N3_14  and  C9_16 
REMARK    9  A    between atoms: C9_16  and  C10_17 
REMARK   10  A    between atoms: C10_17  and  C11_18 
REMARK   11  A    between atoms: C11_18  and  N4_19 
REMARK   12  A    between atoms: N5_22  and  C14_23 
REMARK   13  A    between atoms: C14_23  and  C15_24 
REMARK   14  A    between atoms: C22_33  and  N7_34 
REMARK   15  A    between atoms: N7_34  and  C23_36 
ROOT
HETATM    1  C7  UNL     1      17.978  31.324  16.252  1.00  0.00     0.707 A 
HETATM    2  N2  UNL     1      17.981  30.159  15.531  1.00  0.00    -0.022 N 
ATOM      3  H2  UNL     1      17.109  29.846  15.106  1.00  0.00     0.203 HD
HETATM    4  C8  UNL     1      19.079  29.415  15.359  1.00  0.00     0.707 A 
HETATM    5  N3  UNL     1      19.158  28.332  14.705  1.00  0.00    -0.225 N 
ATOM      6  H3  UNL     1      20.069  27.876  14.664  1.00  0.00     0.177 HD
HETATM    7  N6  UNL     1      20.229  29.884  15.954  1.00  0.00    -0.022 N 
ATOM      8  H6  UNL     1      21.088  29.344  15.847  1.00  0.00     0.203 HD
HETATM    9  C22 UNL     1      20.270  31.008  16.662  1.00  0.00     0.707 A 
HETATM   10  N8  UNL     1      19.121  31.715  16.797  1.00  0.00    -0.022 N 
ATOM     11  H8  UNL     1      19.137  32.579  17.339  1.00  0.00     0.203 HD
ENDROOT
BRANCH   5  12
HETATM   12  C9  UNL     1      18.087  27.705  14.027  1.00  0.00     0.140 C 
BRANCH  12  13
HETATM   13  C10 UNL     1      18.154  28.115  12.561  1.00  0.00     0.050 C 
BRANCH  13  14
HETATM   14  C11 UNL     1      19.316  27.413  11.914  1.00  0.00     0.274 C 
BRANCH  14  15
HETATM   15  N4  UNL     1      18.827  26.352  11.087  1.00  0.00     0.094 N 
HETATM   16  C12 UNL     1      17.639  26.648  10.344  1.00  0.00     0.293 C 
HETATM   17  C13 UNL     1      17.965  27.234   8.973  1.00  0.00     0.157 C 
HETATM   18  N5  UNL     1      18.621  26.212   8.214  1.00  0.00    -0.370 N 
HETATM   19  C20 UNL     1      19.394  25.300   8.936  1.00  0.00     0.093 C 
HETATM   20  C21 UNL     1      19.907  25.889  10.234  1.00  0.00     0.317 C 
BRANCH  18  21
HETATM   21  C14 UNL     1      17.987  25.816   7.038  1.00  0.00     0.068 C 
BRANCH  21  22
HETATM   22  C15 UNL     1      18.549  26.291   5.753  1.00  0.00     0.024 C 
HETATM   23  C16 UNL     1      17.984  25.381   4.651  1.00  0.00     0.010 C 
HETATM   24  C17 UNL     1      17.348  26.275   3.636  1.00  0.00     0.001 C 
HETATM   25  C18 UNL     1      16.869  27.448   4.464  1.00  0.00     0.001 C 
HETATM   26  C19 UNL     1      18.064  27.670   5.381  1.00  0.00     0.010 C 
ENDBRANCH  21  22
ENDBRANCH  18  21
ENDBRANCH  14  15
ENDBRANCH  13  14
ENDBRANCH  12  13
ENDBRANCH   5  12
BRANCH   1  27
HETATM   27  N1  UNL     1      16.871  31.938  16.341  1.00  0.00    -0.225 N 
ATOM     28  H1  UNL     1      16.298  31.754  17.164  1.00  0.00     0.177 HD
BRANCH  27  29
HETATM   29  C6  UNL     1      16.362  32.874  15.373  1.00  0.00     0.140 C 
BRANCH  29  30
HETATM   30  C5  UNL     1      15.782  34.047  16.176  1.00  0.00     0.046 C 
BRANCH  30  31
HETATM   31  C4  UNL     1      15.330  33.561  17.516  1.00  0.00     0.169 C 
BRANCH  31  32
HETATM   32  O1  UNL     1      15.952  34.178  18.578  1.00  0.00    -0.391 OA
BRANCH  32  33
HETATM   33  C3  UNL     1      16.858  35.145  18.243  1.00  0.00     0.167 C 
BRANCH  33  34
HETATM   34  C2  UNL     1      18.292  34.810  18.580  1.00  0.00     0.022 C 
HETATM   35  C1  UNL     1      19.196  35.294  17.450  1.00  0.00     0.007 C 
ENDBRANCH  33  34
ENDBRANCH  32  33
ENDBRANCH  31  32
ENDBRANCH  30  31
ENDBRANCH  29  30
ENDBRANCH  27  29
ENDBRANCH   1  27
BRANCH   9  36
HETATM   36  N7  UNL     1      21.385  31.385  17.191  1.00  0.00    -0.220 N 
ATOM     37  H7  UNL     1      21.540  31.152  18.171  1.00  0.00     0.178 HD
BRANCH  36  38
HETATM   38  C23 UNL     1      22.420  32.103  16.511  1.00  0.00     0.099 A 
HETATM   39  C24 UNL     1      22.023  33.278  15.710  1.00  0.00     0.028 A 
HETATM   40  C25 UNL     1      22.624  33.526  17.043  1.00  0.00     0.028 A 
ENDBRANCH  36  38
ENDBRANCH   9  36
TORSDOF 15
ENDMDL
