MODEL 1
REMARK VINA RESULT: -6.259316818      0.000      0.000
REMARK  5 active torsions:
REMARK  status: ('A' for Active; 'I' for Inactive)
REMARK    1  A    between atoms: C2_2  and  N1_3 
REMARK    2  A    between atoms: C2_2  and  C3_7 
REMARK    3  A    between atoms: C3_7  and  N2_8 
REMARK    4  A    between atoms: C3_7  and  C4_12 
REMARK    5  A    between atoms: C5_15  and  N4_16 
ROOT
HETATM    1  C4  UNL     1       9.572  25.537  35.283  1.00  0.00     0.145 A 
HETATM    2  N3  UNL     1      10.354  26.470  34.715  1.00  0.00    -0.176 N 
ATOM      3  H3  UNL     1      10.628  26.475  33.732  1.00  0.00     0.185 HD
HETATM    4  C5  UNL     1      10.728  27.398  35.619  1.00  0.00     0.691 A 
HETATM    5  N5  UNL     1      10.150  27.010  36.771  1.00  0.00    -0.131 N 
ATOM      6  H5  UNL     1      10.232  27.500  37.663  1.00  0.00     0.205 HD
HETATM    7  N6  UNL     1       9.458  25.898  36.573  1.00  0.00    -0.272 N 
ATOM      8  H6  UNL     1       8.924  25.397  37.283  1.00  0.00     0.189 HD
ENDROOT
BRANCH   1   9
HETATM    9  C3  UNL     1       8.940  24.341  34.664  1.00  0.00     0.282 C 
BRANCH   9  10
HETATM   10  C2  UNL     1       7.532  24.769  34.224  1.00  0.00     0.217 C 
HETATM   11  C1  UNL     1       7.443  24.859  32.726  1.00  0.00     0.042 C 
BRANCH  10  12
HETATM   12  N1  UNL     1       6.569  23.868  34.799  1.00  0.00    -0.073 N 
ATOM     13  H13 UNL     1       5.642  24.029  34.406  1.00  0.00     0.274 HD
ATOM     14  H12 UNL     1       6.727  22.914  34.475  1.00  0.00     0.274 HD
ATOM     15  H11 UNL     1       6.540  23.904  35.818  1.00  0.00     0.274 HD
ENDBRANCH  10  12
ENDBRANCH   9  10
BRANCH   9  16
HETATM   16  N2  UNL     1       8.866  23.250  35.587  1.00  0.00    -0.066 N 
ATOM     17  H23 UNL     1       9.141  23.530  36.528  1.00  0.00     0.275 HD
ATOM     18  H22 UNL     1       7.901  22.984  35.783  1.00  0.00     0.275 HD
ATOM     19  H21 UNL     1       9.416  22.461  35.250  1.00  0.00     0.275 HD
ENDBRANCH   9  16
ENDBRANCH   1   9
BRANCH   4  20
HETATM   20  N4  UNL     1      11.475  28.443  35.459  1.00  0.00    -0.233 N 
ATOM     21  H42 UNL     1      11.145  29.400  35.335  1.00  0.00     0.174 HD
ATOM     22  H41 UNL     1      12.492  28.511  35.426  1.00  0.00     0.174 HD
ENDBRANCH   4  20
TORSDOF 5
ENDMDL
MODEL 2
REMARK VINA RESULT: -6.193184865      0.804      1.322
REMARK  5 active torsions:
REMARK  status: ('A' for Active; 'I' for Inactive)
REMARK    1  A    between atoms: C2_2  and  N1_3 
REMARK    2  A    between atoms: C2_2  and  C3_7 
REMARK    3  A    between atoms: C3_7  and  N2_8 
REMARK    4  A    between atoms: C3_7  and  C4_12 
REMARK    5  A    between atoms: C5_15  and  N4_16 
ROOT
HETATM    1  C4  UNL     1       9.752  25.837  35.408  1.00  0.00     0.145 A 
HETATM    2  N3  UNL     1       9.861  26.505  36.568  1.00  0.00    -0.176 N 
ATOM      3  H3  UNL     1       9.425  26.217  37.445  1.00  0.00     0.185 HD
HETATM    4  C5  UNL     1      10.625  27.607  36.418  1.00  0.00     0.691 A 
HETATM    5  N5  UNL     1      10.988  27.600  35.121  1.00  0.00    -0.131 N 
ATOM      6  H5  UNL     1      11.576  28.304  34.673  1.00  0.00     0.205 HD
HETATM    7  N6  UNL     1      10.468  26.542  34.516  1.00  0.00    -0.272 N 
ATOM      8  H6  UNL     1      10.591  26.303  33.532  1.00  0.00     0.189 HD
ENDROOT
BRANCH   1   9
HETATM    9  C3  UNL     1       9.012  24.579  35.117  1.00  0.00     0.282 C 
BRANCH   9  10
HETATM   10  C2  UNL     1       7.620  24.996  34.620  1.00  0.00     0.217 C 
HETATM   11  C1  UNL     1       7.585  25.058  33.118  1.00  0.00     0.042 C 
BRANCH  10  12
HETATM   12  N1  UNL     1       6.639  24.104  35.177  1.00  0.00    -0.073 N 
ATOM     13  H13 UNL     1       5.946  23.843  34.474  1.00  0.00     0.274 HD
ATOM     14  H12 UNL     1       7.046  23.187  35.361  1.00  0.00     0.274 HD
ATOM     15  H11 UNL     1       6.185  24.473  36.012  1.00  0.00     0.274 HD
ENDBRANCH  10  12
ENDBRANCH   9  10
BRANCH   9  16
HETATM   16  N2  UNL     1       8.901  23.755  36.281  1.00  0.00    -0.066 N 
ATOM     17  H23 UNL     1       9.377  24.167  37.084  1.00  0.00     0.275 HD
ATOM     18  H22 UNL     1       7.952  23.750  36.653  1.00  0.00     0.275 HD
ATOM     19  H21 UNL     1       9.237  22.813  36.085  1.00  0.00     0.275 HD
ENDBRANCH   9  16
ENDBRANCH   1   9
BRANCH   4  20
HETATM   20  N4  UNL     1      10.958  28.497  37.295  1.00  0.00    -0.233 N 
ATOM     21  H42 UNL     1      11.841  28.534  37.805  1.00  0.00     0.174 HD
ATOM     22  H41 UNL     1      10.428  29.301  37.633  1.00  0.00     0.174 HD
ENDBRANCH   4  20
TORSDOF 5
ENDMDL
MODEL 3
REMARK VINA RESULT: -5.979599756      1.542      2.153
REMARK  5 active torsions:
REMARK  status: ('A' for Active; 'I' for Inactive)
REMARK    1  A    between atoms: C2_2  and  N1_3 
REMARK    2  A    between atoms: C2_2  and  C3_7 
REMARK    3  A    between atoms: C3_7  and  N2_8 
REMARK    4  A    between atoms: C3_7  and  C4_12 
REMARK    5  A    between atoms: C5_15  and  N4_16 
ROOT
HETATM    1  C4  UNL     1       9.234  25.260  33.856  1.00  0.00     0.145 A 
HETATM    2  N3  UNL     1       9.020  25.398  35.175  1.00  0.00    -0.176 N 
ATOM      3  H3  UNL     1       8.315  24.884  35.704  1.00  0.00     0.185 HD
HETATM    4  C5  UNL     1       9.863  26.307  35.706  1.00  0.00     0.691 A 
HETATM    5  N5  UNL     1      10.612  26.729  34.668  1.00  0.00    -0.131 N 
ATOM      6  H5  UNL     1      11.355  27.426  34.726  1.00  0.00     0.205 HD
HETATM    7  N6  UNL     1      10.237  26.104  33.562  1.00  0.00    -0.272 N 
ATOM      8  H6  UNL     1      10.644  26.242  32.637  1.00  0.00     0.189 HD
ENDROOT
BRANCH   1   9
HETATM    9  C3  UNL     1       8.539  24.374  32.882  1.00  0.00     0.282 C 
BRANCH   9  10
HETATM   10  C2  UNL     1       7.335  23.771  33.621  1.00  0.00     0.217 C 
HETATM   11  C1  UNL     1       6.331  23.219  32.647  1.00  0.00     0.042 C 
BRANCH  10  12
HETATM   12  N1  UNL     1       7.808  22.796  34.566  1.00  0.00    -0.073 N 
ATOM     13  H13 UNL     1       7.073  22.128  34.796  1.00  0.00     0.274 HD
ATOM     14  H12 UNL     1       8.480  22.165  34.129  1.00  0.00     0.274 HD
ATOM     15  H11 UNL     1       8.198  23.210  35.413  1.00  0.00     0.274 HD
ENDBRANCH  10  12
ENDBRANCH   9  10
BRANCH   9  16
HETATM   16  N2  UNL     1       9.403  23.339  32.405  1.00  0.00    -0.066 N 
ATOM     17  H23 UNL     1       9.193  22.440  32.838  1.00  0.00     0.275 HD
ATOM     18  H22 UNL     1       9.203  23.093  31.436  1.00  0.00     0.275 HD
ATOM     19  H21 UNL     1      10.380  23.602  32.536  1.00  0.00     0.275 HD
ENDBRANCH   9  16
ENDBRANCH   1   9
BRANCH   4  20
HETATM   20  N4  UNL     1       9.966  26.712  36.930  1.00  0.00    -0.233 N 
ATOM     21  H42 UNL     1       9.224  27.144  37.481  1.00  0.00     0.174 HD
ATOM     22  H41 UNL     1      10.771  26.681  37.555  1.00  0.00     0.174 HD
ENDBRANCH   4  20
TORSDOF 5
ENDMDL
MODEL 4
REMARK VINA RESULT: -5.815494011      1.075      1.126
REMARK  5 active torsions:
REMARK  status: ('A' for Active; 'I' for Inactive)
REMARK    1  A    between atoms: C2_2  and  N1_3 
REMARK    2  A    between atoms: C2_2  and  C3_7 
REMARK    3  A    between atoms: C3_7  and  N2_8 
REMARK    4  A    between atoms: C3_7  and  C4_12 
REMARK    5  A    between atoms: C5_15  and  N4_16 
ROOT
HETATM    1  C4  UNL     1       9.828  26.151  35.743  1.00  0.00     0.145 A 
HETATM    2  N3  UNL     1      10.584  26.941  34.964  1.00  0.00    -0.176 N 
ATOM      3  H3  UNL     1      10.741  26.793  33.966  1.00  0.00     0.185 HD
HETATM    4  C5  UNL     1      11.109  27.959  35.677  1.00  0.00     0.691 A 
HETATM    5  N5  UNL     1      10.651  27.774  36.930  1.00  0.00    -0.131 N 
ATOM      6  H5  UNL     1      10.862  28.375  37.727  1.00  0.00     0.205 HD
HETATM    7  N6  UNL     1       9.884  26.694  36.971  1.00  0.00    -0.272 N 
ATOM      8  H6  UNL     1       9.413  26.333  37.801  1.00  0.00     0.189 HD
ENDROOT
BRANCH   1   9
HETATM    9  C3  UNL     1       9.066  24.926  35.376  1.00  0.00     0.282 C 
BRANCH   9  10
HETATM   10  C2  UNL     1       8.448  25.192  33.996  1.00  0.00     0.217 C 
HETATM   11  C1  UNL     1       9.265  24.548  32.910  1.00  0.00     0.042 C 
BRANCH  10  12
HETATM   12  N1  UNL     1       7.076  24.762  34.008  1.00  0.00    -0.073 N 
ATOM     13  H13 UNL     1       6.934  23.984  33.363  1.00  0.00     0.274 HD
ATOM     14  H12 UNL     1       6.850  24.297  34.887  1.00  0.00     0.274 HD
ATOM     15  H11 UNL     1       6.415  25.515  33.817  1.00  0.00     0.274 HD
ENDBRANCH  10  12
ENDBRANCH   9  10
BRANCH   9  16
HETATM   16  N2  UNL     1       8.045  24.638  36.335  1.00  0.00    -0.066 N 
ATOM     17  H23 UNL     1       7.117  24.629  35.910  1.00  0.00     0.275 HD
ATOM     18  H22 UNL     1       8.079  23.667  36.645  1.00  0.00     0.275 HD
ATOM     19  H21 UNL     1       8.097  25.289  37.118  1.00  0.00     0.275 HD
ENDBRANCH   9  16
ENDBRANCH   1   9
BRANCH   4  20
HETATM   20  N4  UNL     1      11.884  28.919  35.286  1.00  0.00    -0.233 N 
ATOM     21  H42 UNL     1      12.753  28.811  34.765  1.00  0.00     0.174 HD
ATOM     22  H41 UNL     1      11.781  29.926  35.418  1.00  0.00     0.174 HD
ENDBRANCH   4  20
TORSDOF 5
ENDMDL
MODEL 5
REMARK VINA RESULT: -5.743176394      1.788      2.933
REMARK  5 active torsions:
REMARK  status: ('A' for Active; 'I' for Inactive)
REMARK    1  A    between atoms: C2_2  and  N1_3 
REMARK    2  A    between atoms: C2_2  and  C3_7 
REMARK    3  A    between atoms: C3_7  and  N2_8 
REMARK    4  A    between atoms: C3_7  and  C4_12 
REMARK    5  A    between atoms: C5_15  and  N4_16 
ROOT
HETATM    1  C4  UNL     1       9.149  25.392  34.954  1.00  0.00     0.145 A 
HETATM    2  N3  UNL     1       8.769  24.428  35.809  1.00  0.00    -0.176 N 
ATOM      3  H3  UNL     1       8.351  23.539  35.531  1.00  0.00     0.185 HD
HETATM    4  C5  UNL     1       9.013  24.794  37.084  1.00  0.00     0.691 A 
HETATM    5  N5  UNL     1       9.561  26.020  36.992  1.00  0.00    -0.131 N 
ATOM      6  H5  UNL     1       9.866  26.588  37.784  1.00  0.00     0.205 HD
HETATM    7  N6  UNL     1       9.644  26.379  35.720  1.00  0.00    -0.272 N 
ATOM      8  H6  UNL     1      10.022  27.263  35.376  1.00  0.00     0.189 HD
ENDROOT
BRANCH   1   9
HETATM    9  C3  UNL     1       9.066  25.412  33.468  1.00  0.00     0.282 C 
BRANCH   9  10
HETATM   10  C2  UNL     1       8.644  24.001  33.035  1.00  0.00     0.217 C 
HETATM   11  C1  UNL     1       7.269  24.017  32.426  1.00  0.00     0.042 C 
BRANCH  10  12
HETATM   12  N1  UNL     1       9.649  23.461  32.158  1.00  0.00    -0.073 N 
ATOM     13  H13 UNL     1       9.830  22.481  32.375  1.00  0.00     0.274 HD
ATOM     14  H12 UNL     1       9.287  23.362  31.210  1.00  0.00     0.274 HD
ATOM     15  H11 UNL     1      10.517  23.997  32.160  1.00  0.00     0.274 HD
ENDBRANCH  10  12
ENDBRANCH   9  10
BRANCH   9  16
HETATM   16  N2  UNL     1      10.322  25.762  32.878  1.00  0.00    -0.066 N 
ATOM     17  H23 UNL     1      11.059  25.109  33.140  1.00  0.00     0.275 HD
ATOM     18  H22 UNL     1      10.325  25.601  31.871  1.00  0.00     0.275 HD
ATOM     19  H21 UNL     1      10.568  26.724  33.109  1.00  0.00     0.275 HD
ENDBRANCH   9  16
ENDBRANCH   1   9
BRANCH   4  20
HETATM   20  N4  UNL     1       8.787  24.144  38.180  1.00  0.00    -0.233 N 
ATOM     21  H42 UNL     1       8.921  23.142  38.320  1.00  0.00     0.174 HD
ATOM     22  H41 UNL     1       8.447  24.489  39.078  1.00  0.00     0.174 HD
ENDBRANCH   4  20
TORSDOF 5
ENDMDL
