MODEL 1
REMARK VINA RESULT: -5.729547536      0.000      0.000
REMARK  3 active torsions:
REMARK  status: ('A' for Active; 'I' for Inactive)
REMARK    1  A    between atoms: O1_2  and  C2_3 
REMARK    2  A    between atoms: C3_6  and  N2_7 
REMARK    3  A    between atoms: C4_12  and  N4_13 
ROOT
HETATM    1  C2  UNL     1       9.744  25.641  33.997  1.00  0.00     0.252 A 
HETATM    2  N1  UNL     1      10.472  26.655  34.500  1.00  0.00    -0.154 N 
ATOM      3  H1  UNL     1      11.046  27.215  33.870  1.00  0.00     0.188 HD
HETATM    4  C3  UNL     1      10.462  26.951  35.824  1.00  0.00     0.693 A 
HETATM    5  N3  UNL     1       9.717  26.232  36.683  1.00  0.00    -0.023 N 
ATOM      6  H3  UNL     1       9.707  26.452  37.679  1.00  0.00     0.203 HD
HETATM    7  C4  UNL     1       8.985  25.216  36.192  1.00  0.00     0.693 A 
HETATM    8  N5  UNL     1       9.007  24.935  34.873  1.00  0.00    -0.154 N 
ATOM      9  H5  UNL     1       8.443  24.158  34.527  1.00  0.00     0.188 HD
ENDROOT
BRANCH   4  10
HETATM   10  N2  UNL     1      11.152  27.918  36.323  1.00  0.00    -0.234 N 
ATOM     11  H22 UNL     1      10.811  28.864  36.149  1.00  0.00     0.174 HD
ATOM     12  H21 UNL     1      12.000  27.763  36.869  1.00  0.00     0.174 HD
ENDBRANCH   4  10
BRANCH   1  13
HETATM   13  O1  UNL     1       9.725  25.305  32.648  1.00  0.00    -0.326 OA
HETATM   14  C1  UNL     1       9.045  24.212  32.120  1.00  0.00     0.213 C 
ENDBRANCH   1  13
BRANCH   7  15
HETATM   15  N4  UNL     1       8.253  24.503  37.007  1.00  0.00    -0.234 N 
ATOM     16  H42 UNL     1       8.442  24.510  38.010  1.00  0.00     0.174 HD
ATOM     17  H41 UNL     1       7.490  23.940  36.631  1.00  0.00     0.174 HD
ENDBRANCH   7  15
TORSDOF 3
ENDMDL
MODEL 2
REMARK VINA RESULT: -5.712027916      0.196      2.501
REMARK  3 active torsions:
REMARK  status: ('A' for Active; 'I' for Inactive)
REMARK    1  A    between atoms: O1_2  and  C2_3 
REMARK    2  A    between atoms: C3_6  and  N2_7 
REMARK    3  A    between atoms: C4_12  and  N4_13 
ROOT
HETATM    1  C2  UNL     1       9.682  25.597  34.021  1.00  0.00     0.252 A 
HETATM    2  N1  UNL     1       8.964  24.891  34.914  1.00  0.00    -0.154 N 
ATOM      3  H1  UNL     1       8.392  24.112  34.588  1.00  0.00     0.188 HD
HETATM    4  C3  UNL     1       8.982  25.189  36.238  1.00  0.00     0.693 A 
HETATM    5  N3  UNL     1       9.724  26.210  36.702  1.00  0.00    -0.023 N 
ATOM      6  H3  UNL     1       9.740  26.437  37.696  1.00  0.00     0.203 HD
HETATM    7  C4  UNL     1      10.446  26.923  35.819  1.00  0.00     0.693 A 
HETATM    8  N5  UNL     1      10.416  26.614  34.507  1.00  0.00    -0.154 N 
ATOM      9  H5  UNL     1      10.972  27.172  33.858  1.00  0.00     0.188 HD
ENDROOT
BRANCH   4  10
HETATM   10  N2  UNL     1       8.301  24.524  37.108  1.00  0.00    -0.234 N 
ATOM     11  H22 UNL     1       7.349  24.841  37.286  1.00  0.00     0.174 HD
ATOM     12  H21 UNL     1       8.682  23.716  37.602  1.00  0.00     0.174 HD
ENDBRANCH   4  10
BRANCH   1  13
HETATM   13  O1  UNL     1       9.692  25.325  32.658  1.00  0.00    -0.326 OA
HETATM   14  C1  UNL     1       8.678  24.649  31.984  1.00  0.00     0.213 C 
ENDBRANCH   1  13
BRANCH   7  15
HETATM   15  N4  UNL     1      11.175  27.920  36.247  1.00  0.00    -0.234 N 
ATOM     16  H42 UNL     1      11.763  27.812  37.073  1.00  0.00     0.174 HD
ATOM     17  H41 UNL     1      11.151  28.808  35.745  1.00  0.00     0.174 HD
ENDBRANCH   7  15
TORSDOF 3
ENDMDL
MODEL 3
REMARK VINA RESULT: -5.601472069      2.006      4.024
REMARK  3 active torsions:
REMARK  status: ('A' for Active; 'I' for Inactive)
REMARK    1  A    between atoms: O1_2  and  C2_3 
REMARK    2  A    between atoms: C3_6  and  N2_7 
REMARK    3  A    between atoms: C4_12  and  N4_13 
ROOT
HETATM    1  C2  UNL     1      10.531  27.209  36.163  1.00  0.00     0.252 A 
HETATM    2  N1  UNL     1       9.737  26.388  36.875  1.00  0.00    -0.154 N 
ATOM      3  H1  UNL     1       9.635  26.541  37.878  1.00  0.00     0.188 HD
HETATM    4  C3  UNL     1       9.068  25.361  36.292  1.00  0.00     0.693 A 
HETATM    5  N3  UNL     1       9.181  25.130  34.972  1.00  0.00    -0.023 N 
ATOM      6  H3  UNL     1       8.681  24.359  34.530  1.00  0.00     0.203 HD
HETATM    7  C4  UNL     1       9.972  25.944  34.250  1.00  0.00     0.693 A 
HETATM    8  N5  UNL     1      10.629  26.960  34.845  1.00  0.00    -0.154 N 
ATOM      9  H5  UNL     1      11.224  27.561  34.274  1.00  0.00     0.188 HD
ENDROOT
BRANCH   4  10
HETATM   10  N2  UNL     1       8.304  24.565  36.957  1.00  0.00    -0.234 N 
ATOM     11  H22 UNL     1       8.742  23.737  37.360  1.00  0.00     0.174 HD
ATOM     12  H21 UNL     1       7.307  24.740  37.084  1.00  0.00     0.174 HD
ENDBRANCH   4  10
BRANCH   1  13
HETATM   13  O1  UNL     1      11.232  28.272  36.721  1.00  0.00    -0.326 OA
HETATM   14  C1  UNL     1      10.724  29.120  37.701  1.00  0.00     0.213 C 
ENDBRANCH   1  13
BRANCH   7  15
HETATM   15  N4  UNL     1      10.097  25.739  32.965  1.00  0.00    -0.234 N 
ATOM     16  H42 UNL     1      10.901  26.111  32.459  1.00  0.00     0.174 HD
ATOM     17  H41 UNL     1       9.382  25.203  32.472  1.00  0.00     0.174 HD
ENDBRANCH   7  15
TORSDOF 3
ENDMDL
MODEL 4
REMARK VINA RESULT: -5.534120229      1.974      3.526
REMARK  3 active torsions:
REMARK  status: ('A' for Active; 'I' for Inactive)
REMARK    1  A    between atoms: O1_2  and  C2_3 
REMARK    2  A    between atoms: C3_6  and  N2_7 
REMARK    3  A    between atoms: C4_12  and  N4_13 
ROOT
HETATM    1  C2  UNL     1      10.524  27.162  36.078  1.00  0.00     0.252 A 
HETATM    2  N1  UNL     1      10.515  26.873  34.764  1.00  0.00    -0.154 N 
ATOM      3  H1  UNL     1      11.056  27.454  34.123  1.00  0.00     0.188 HD
HETATM    4  C3  UNL     1       9.806  25.828  34.269  1.00  0.00     0.693 A 
HETATM    5  N3  UNL     1       9.081  25.041  35.085  1.00  0.00    -0.023 N 
ATOM      6  H3  UNL     1       8.547  24.255  34.716  1.00  0.00     0.203 HD
HETATM    7  C4  UNL     1       9.081  25.320  36.401  1.00  0.00     0.693 A 
HETATM    8  N5  UNL     1       9.792  26.364  36.876  1.00  0.00    -0.154 N 
ATOM      9  H5  UNL     1       9.774  26.554  37.878  1.00  0.00     0.188 HD
ENDROOT
BRANCH   4  10
HETATM   10  N2  UNL     1       9.786  25.536  33.013  1.00  0.00    -0.234 N 
ATOM     11  H22 UNL     1       9.305  24.676  32.749  1.00  0.00     0.174 HD
ATOM     12  H21 UNL     1      10.226  26.124  32.306  1.00  0.00     0.174 HD
ENDBRANCH   4  10
BRANCH   1  13
HETATM   13  O1  UNL     1      11.236  28.222  36.626  1.00  0.00    -0.326 OA
HETATM   14  C1  UNL     1      10.732  29.097  37.583  1.00  0.00     0.213 C 
ENDBRANCH   1  13
BRANCH   7  15
HETATM   15  N4  UNL     1       8.385  24.570  37.213  1.00  0.00    -0.234 N 
ATOM     16  H42 UNL     1       8.014  24.956  38.082  1.00  0.00     0.174 HD
ATOM     17  H41 UNL     1       8.217  23.593  36.971  1.00  0.00     0.174 HD
ENDBRANCH   7  15
TORSDOF 3
ENDMDL
MODEL 5
REMARK VINA RESULT: -5.319363817      2.745      4.282
REMARK  3 active torsions:
REMARK  status: ('A' for Active; 'I' for Inactive)
REMARK    1  A    between atoms: O1_2  and  C2_3 
REMARK    2  A    between atoms: C3_6  and  N2_7 
REMARK    3  A    between atoms: C4_12  and  N4_13 
ROOT
HETATM    1  C2  UNL     1       8.076  24.693  35.010  1.00  0.00     0.252 A 
HETATM    2  N1  UNL     1       9.081  24.567  34.124  1.00  0.00    -0.154 N 
ATOM      3  H1  UNL     1       9.992  24.968  34.346  1.00  0.00     0.188 HD
HETATM    4  C3  UNL     1       8.913  23.920  32.943  1.00  0.00     0.693 A 
HETATM    5  N3  UNL     1       7.724  23.381  32.619  1.00  0.00    -0.023 N 
ATOM      6  H3  UNL     1       7.594  22.894  31.732  1.00  0.00     0.203 HD
HETATM    7  C4  UNL     1       6.711  23.501  33.496  1.00  0.00     0.693 A 
HETATM    8  N5  UNL     1       6.896  24.147  34.666  1.00  0.00    -0.154 N 
ATOM      9  H5  UNL     1       6.111  24.225  35.313  1.00  0.00     0.188 HD
ENDROOT
BRANCH   4  10
HETATM   10  N2  UNL     1       9.863  23.789  32.083  1.00  0.00    -0.234 N 
ATOM     11  H22 UNL     1      10.801  23.636  32.454  1.00  0.00     0.174 HD
ATOM     12  H21 UNL     1       9.703  23.833  31.076  1.00  0.00     0.174 HD
ENDBRANCH   4  10
BRANCH   1  13
HETATM   13  O1  UNL     1       8.206  25.347  36.230  1.00  0.00    -0.326 OA
HETATM   14  C1  UNL     1       8.963  24.875  37.298  1.00  0.00     0.213 C 
ENDBRANCH   1  13
BRANCH   7  15
HETATM   15  N4  UNL     1       5.547  22.985  33.204  1.00  0.00    -0.234 N 
ATOM     16  H42 UNL     1       5.332  22.019  33.455  1.00  0.00     0.174 HD
ATOM     17  H41 UNL     1       4.854  23.557  32.721  1.00  0.00     0.174 HD
ENDBRANCH   7  15
TORSDOF 3
ENDMDL
