MODEL 1
REMARK VINA RESULT: -5.365561592      0.000      0.000
REMARK  3 active torsions:
REMARK  status: ('A' for Active; 'I' for Inactive)
REMARK    1  A    between atoms: C2_2  and  N1_4 
REMARK    2  A    between atoms: N1_4  and  C5_6 
REMARK    3  A    between atoms: C6_10  and  N5_11 
ROOT
HETATM    1  C5  UNL     1       7.835  23.968  33.940  1.00  0.00     0.239 C 
HETATM    2  N2  UNL     1       6.523  23.490  33.596  1.00  0.00    -0.101 NA
HETATM    3  N3  UNL     1       6.630  23.255  32.207  1.00  0.00    -0.036 NA
HETATM    4  N4  UNL     1       7.176  24.472  31.786  1.00  0.00    -0.093 NA
HETATM    5  C6  UNL     1       8.299  24.677  32.686  1.00  0.00     0.332 C 
ENDROOT
BRANCH   1   6
HETATM    6  N1  UNL     1       7.879  24.877  35.031  1.00  0.00    -0.392 N 
HETATM    7  C4  UNL     1       6.737  24.961  35.853  1.00  0.00     0.145 C 
BRANCH   6   8
HETATM    8  C2  UNL     1       9.159  24.978  35.627  1.00  0.00     0.072 C 
HETATM    9  C1  UNL     1       9.889  26.278  35.355  1.00  0.00     0.031 C 
HETATM   10  C3  UNL     1       9.144  24.681  37.128  1.00  0.00     0.031 C 
ENDBRANCH   6   8
ENDBRANCH   1   6
BRANCH   5  11
HETATM   11  N5  UNL     1       9.523  24.138  32.170  1.00  0.00    -0.057 N 
ATOM     12  H53 UNL     1       9.666  24.416  31.200  1.00  0.00     0.276 HD
ATOM     13  H52 UNL     1      10.331  24.593  32.593  1.00  0.00     0.276 HD
ATOM     14  H51 UNL     1       9.578  23.125  32.272  1.00  0.00     0.276 HD
ENDBRANCH   5  11
TORSDOF 3
ENDMDL
MODEL 2
REMARK VINA RESULT: -5.125121874      1.240      2.456
REMARK  3 active torsions:
REMARK  status: ('A' for Active; 'I' for Inactive)
REMARK    1  A    between atoms: C2_2  and  N1_4 
REMARK    2  A    between atoms: N1_4  and  C5_6 
REMARK    3  A    between atoms: C6_10  and  N5_11 
ROOT
HETATM    1  C5  UNL     1       7.928  24.981  33.571  1.00  0.00     0.239 C 
HETATM    2  N2  UNL     1       7.880  25.117  32.141  1.00  0.00    -0.101 NA
HETATM    3  N3  UNL     1       6.839  24.232  31.777  1.00  0.00    -0.036 NA
HETATM    4  N4  UNL     1       7.238  23.079  32.460  1.00  0.00    -0.093 NA
HETATM    5  C6  UNL     1       7.498  23.549  33.810  1.00  0.00     0.332 C 
ENDROOT
BRANCH   1   6
HETATM    6  N1  UNL     1       9.206  25.186  34.155  1.00  0.00    -0.392 N 
HETATM    7  C4  UNL     1      10.274  25.494  33.288  1.00  0.00     0.145 C 
BRANCH   6   8
HETATM    8  C2  UNL     1       9.151  25.815  35.422  1.00  0.00     0.072 C 
HETATM    9  C1  UNL     1       9.052  24.868  36.601  1.00  0.00     0.031 C 
HETATM   10  C3  UNL     1      10.286  26.817  35.640  1.00  0.00     0.031 C 
ENDBRANCH   6   8
ENDBRANCH   1   6
BRANCH   5  11
HETATM   11  N5  UNL     1       6.346  23.454  34.657  1.00  0.00    -0.057 N 
ATOM     12  H53 UNL     1       6.248  24.287  35.237  1.00  0.00     0.276 HD
ATOM     13  H52 UNL     1       5.485  23.529  34.115  1.00  0.00     0.276 HD
ATOM     14  H51 UNL     1       6.348  22.608  35.227  1.00  0.00     0.276 HD
ENDBRANCH   5  11
TORSDOF 3
ENDMDL
MODEL 3
REMARK VINA RESULT: -4.952917324      2.001      4.312
REMARK  3 active torsions:
REMARK  status: ('A' for Active; 'I' for Inactive)
REMARK    1  A    between atoms: C2_2  and  N1_4 
REMARK    2  A    between atoms: N1_4  and  C5_6 
REMARK    3  A    between atoms: C6_10  and  N5_11 
ROOT
HETATM    1  C5  UNL     1       9.390  25.136  35.447  1.00  0.00     0.239 C 
HETATM    2  N2  UNL     1       9.848  26.496  35.353  1.00  0.00    -0.101 NA
HETATM    3  N3  UNL     1      10.271  26.775  36.673  1.00  0.00    -0.036 NA
HETATM    4  N4  UNL     1       9.148  26.355  37.392  1.00  0.00    -0.093 NA
HETATM    5  C6  UNL     1       8.877  25.028  36.867  1.00  0.00     0.332 C 
ENDROOT
BRANCH   1   6
HETATM    6  N1  UNL     1       8.347  24.788  34.549  1.00  0.00    -0.392 N 
HETATM    7  C4  UNL     1       7.025  24.844  35.035  1.00  0.00     0.145 C 
BRANCH   6   8
HETATM    8  C2  UNL     1       8.601  25.182  33.213  1.00  0.00     0.072 C 
HETATM    9  C1  UNL     1       9.976  24.817  32.690  1.00  0.00     0.031 C 
HETATM   10  C3  UNL     1       7.520  24.713  32.236  1.00  0.00     0.031 C 
ENDBRANCH   6   8
ENDBRANCH   1   6
BRANCH   5  11
HETATM   11  N5  UNL     1       9.536  23.996  37.613  1.00  0.00    -0.057 N 
ATOM     12  H53 UNL     1       8.895  23.234  37.830  1.00  0.00     0.276 HD
ATOM     13  H52 UNL     1      10.202  23.490  37.029  1.00  0.00     0.276 HD
ATOM     14  H51 UNL     1       9.985  24.350  38.458  1.00  0.00     0.276 HD
ENDBRANCH   5  11
TORSDOF 3
ENDMDL
MODEL 4
REMARK VINA RESULT: -4.802119575      1.980      4.341
REMARK  3 active torsions:
REMARK  status: ('A' for Active; 'I' for Inactive)
REMARK    1  A    between atoms: C2_2  and  N1_4 
REMARK    2  A    between atoms: N1_4  and  C5_6 
REMARK    3  A    between atoms: C6_10  and  N5_11 
ROOT
HETATM    1  C5  UNL     1       9.197  25.076  35.174  1.00  0.00     0.239 C 
HETATM    2  N2  UNL     1       9.841  26.360  35.101  1.00  0.00    -0.101 NA
HETATM    3  N3  UNL     1      10.363  26.523  36.404  1.00  0.00    -0.036 NA
HETATM    4  N4  UNL     1       9.226  26.238  37.168  1.00  0.00    -0.093 NA
HETATM    5  C6  UNL     1       8.743  24.984  36.616  1.00  0.00     0.332 C 
ENDROOT
BRANCH   1   6
HETATM    6  N1  UNL     1       8.073  24.916  34.322  1.00  0.00    -0.392 N 
HETATM    7  C4  UNL     1       7.403  26.083  33.904  1.00  0.00     0.145 C 
BRANCH   6   8
HETATM    8  C2  UNL     1       8.209  23.842  33.409  1.00  0.00     0.072 C 
HETATM    9  C1  UNL     1       6.913  23.368  32.783  1.00  0.00     0.031 C 
HETATM   10  C3  UNL     1       9.255  24.109  32.325  1.00  0.00     0.031 C 
ENDBRANCH   6   8
ENDBRANCH   1   6
BRANCH   5  11
HETATM   11  N5  UNL     1       9.282  23.841  37.291  1.00  0.00    -0.057 N 
ATOM     12  H53 UNL     1       8.631  23.057  37.262  1.00  0.00     0.276 HD
ATOM     13  H52 UNL     1      10.053  23.433  36.762  1.00  0.00     0.276 HD
ATOM     14  H51 UNL     1       9.564  24.049  38.249  1.00  0.00     0.276 HD
ENDBRANCH   5  11
TORSDOF 3
ENDMDL
MODEL 5
REMARK VINA RESULT: -4.763323702      1.914      4.133
REMARK  3 active torsions:
REMARK  status: ('A' for Active; 'I' for Inactive)
REMARK    1  A    between atoms: C2_2  and  N1_4 
REMARK    2  A    between atoms: N1_4  and  C5_6 
REMARK    3  A    between atoms: C6_10  and  N5_11 
ROOT
HETATM    1  C5  UNL     1       8.439  24.244  35.076  1.00  0.00     0.239 C 
HETATM    2  N2  UNL     1       9.643  23.615  35.549  1.00  0.00    -0.101 NA
HETATM    3  N3  UNL     1       9.407  23.494  36.937  1.00  0.00    -0.036 NA
HETATM    4  N4  UNL     1       9.012  24.801  37.241  1.00  0.00    -0.093 NA
HETATM    5  C6  UNL     1       7.995  25.096  36.246  1.00  0.00     0.332 C 
ENDROOT
BRANCH   1   6
HETATM    6  N1  UNL     1       8.601  25.073  33.934  1.00  0.00    -0.392 N 
HETATM    7  C4  UNL     1       9.758  25.875  33.872  1.00  0.00     0.145 C 
BRANCH   6   8
HETATM    8  C2  UNL     1       8.110  24.489  32.742  1.00  0.00     0.072 C 
HETATM    9  C1  UNL     1       9.162  23.826  31.875  1.00  0.00     0.031 C 
HETATM   10  C3  UNL     1       6.942  23.530  32.984  1.00  0.00     0.031 C 
ENDBRANCH   6   8
ENDBRANCH   1   6
BRANCH   5  11
HETATM   11  N5  UNL     1       6.674  24.767  36.696  1.00  0.00    -0.057 N 
ATOM     12  H53 UNL     1       6.365  23.878  36.304  1.00  0.00     0.276 HD
ATOM     13  H52 UNL     1       6.675  24.519  37.685  1.00  0.00     0.276 HD
ATOM     14  H51 UNL     1       6.000  25.507  36.503  1.00  0.00     0.276 HD
ENDBRANCH   5  11
TORSDOF 3
ENDMDL
