MODEL 1
REMARK VINA RESULT: -6.144867384      0.000      0.000
REMARK  4 active torsions:
REMARK  status: ('A' for Active; 'I' for Inactive)
REMARK    1  A    between atoms: N1_2  and  N2_3 
REMARK    2  A    between atoms: N1_2  and  C2_6 
REMARK    3  A    between atoms: C3_9  and  N4_10 
REMARK    4  A    between atoms: C4_15  and  N6_16 
ROOT
HETATM    1  C2  UNL     1      10.521  27.147  35.936  1.00  0.00     0.727 A 
HETATM    2  N3  UNL     1       9.836  26.402  36.811  1.00  0.00    -0.020 N 
ATOM      3  H3  UNL     1       9.866  26.644  37.801  1.00  0.00     0.203 HD
HETATM    4  C3  UNL     1       9.111  25.341  36.415  1.00  0.00     0.705 A 
HETATM    5  N5  UNL     1       9.060  25.006  35.112  1.00  0.00    -0.022 N 
ATOM      6  H5  UNL     1       8.512  24.202  34.806  1.00  0.00     0.203 HD
HETATM    7  C4  UNL     1       9.742  25.743  34.221  1.00  0.00     0.705 A 
HETATM    8  N7  UNL     1      10.459  26.799  34.642  1.00  0.00    -0.020 N 
ATOM      9  H7  UNL     1      10.973  27.352  33.956  1.00  0.00     0.203 HD
ENDROOT
BRANCH   1  10
HETATM   10  N1  UNL     1      11.301  28.278  36.325  1.00  0.00    -0.134 N 
HETATM   11  C1  UNL     1      10.853  29.141  37.381  1.00  0.00     0.197 C 
BRANCH  10  12
HETATM   12  N2  UNL     1      12.510  28.502  35.631  1.00  0.00    -0.329 N 
ATOM     13  H22 UNL     1      12.638  28.015  34.745  1.00  0.00     0.177 HD
ATOM     14  H21 UNL     1      13.236  29.122  35.989  1.00  0.00     0.177 HD
ENDBRANCH  10  12
ENDBRANCH   1  10
BRANCH   4  15
HETATM   15  N4  UNL     1       8.469  24.647  37.253  1.00  0.00    -0.234 N 
ATOM     16  H42 UNL     1       8.747  24.673  38.235  1.00  0.00     0.174 HD
ATOM     17  H41 UNL     1       7.684  24.067  36.959  1.00  0.00     0.174 HD
ENDBRANCH   4  15
BRANCH   7  18
HETATM   18  N6  UNL     1       9.725  25.461  32.949  1.00  0.00    -0.234 N 
ATOM     19  H62 UNL     1       9.612  24.490  32.661  1.00  0.00     0.174 HD
ATOM     20  H61 UNL     1       9.824  26.189  32.241  1.00  0.00     0.174 HD
ENDBRANCH   7  18
TORSDOF 4
ENDMDL
MODEL 2
REMARK VINA RESULT: -6.144394188      1.345      4.419
REMARK  4 active torsions:
REMARK  status: ('A' for Active; 'I' for Inactive)
REMARK    1  A    between atoms: N1_2  and  N2_3 
REMARK    2  A    between atoms: N1_2  and  C2_6 
REMARK    3  A    between atoms: C3_9  and  N4_10 
REMARK    4  A    between atoms: C4_15  and  N6_16 
ROOT
HETATM    1  C2  UNL     1       9.186  25.092  34.042  1.00  0.00     0.727 A 
HETATM    2  N3  UNL     1       9.982  26.165  34.112  1.00  0.00    -0.020 N 
ATOM      3  H3  UNL     1      10.348  26.572  33.251  1.00  0.00     0.203 HD
HETATM    4  C3  UNL     1      10.312  26.719  35.292  1.00  0.00     0.705 A 
HETATM    5  N5  UNL     1       9.840  26.197  36.440  1.00  0.00    -0.022 N 
ATOM      6  H5  UNL     1      10.088  26.613  37.338  1.00  0.00     0.203 HD
HETATM    7  C4  UNL     1       9.040  25.121  36.386  1.00  0.00     0.705 A 
HETATM    8  N7  UNL     1       8.725  24.586  35.195  1.00  0.00    -0.020 N 
ATOM      9  H7  UNL     1       8.115  23.768  35.166  1.00  0.00     0.203 HD
ENDROOT
BRANCH   1  10
HETATM   10  N1  UNL     1       8.818  24.481  32.805  1.00  0.00    -0.134 N 
HETATM   11  C1  UNL     1       7.549  24.772  32.200  1.00  0.00     0.197 C 
BRANCH  10  12
HETATM   12  N2  UNL     1       9.746  23.593  32.219  1.00  0.00    -0.329 N 
ATOM     13  H22 UNL     1       9.952  22.731  32.725  1.00  0.00     0.177 HD
ATOM     14  H21 UNL     1      10.200  23.790  31.328  1.00  0.00     0.177 HD
ENDBRANCH  10  12
ENDBRANCH   1  10
BRANCH   4  15
HETATM   15  N4  UNL     1      11.066  27.733  35.342  1.00  0.00    -0.234 N 
ATOM     16  H42 UNL     1      10.871  28.462  36.029  1.00  0.00     0.174 HD
ATOM     17  H41 UNL     1      11.859  27.826  34.708  1.00  0.00     0.174 HD
ENDBRANCH   4  15
BRANCH   7  18
HETATM   18  N6  UNL     1       8.556  24.578  37.468  1.00  0.00    -0.234 N 
ATOM     19  H62 UNL     1       9.186  24.386  38.247  1.00  0.00     0.174 HD
ATOM     20  H61 UNL     1       7.567  24.341  37.548  1.00  0.00     0.174 HD
ENDBRANCH   7  18
TORSDOF 4
ENDMDL
MODEL 3
REMARK VINA RESULT: -6.136517460      1.401      3.955
REMARK  4 active torsions:
REMARK  status: ('A' for Active; 'I' for Inactive)
REMARK    1  A    between atoms: N1_2  and  N2_3 
REMARK    2  A    between atoms: N1_2  and  C2_6 
REMARK    3  A    between atoms: C3_9  and  N4_10 
REMARK    4  A    between atoms: C4_15  and  N6_16 
ROOT
HETATM    1  C2  UNL     1       9.098  24.977  34.087  1.00  0.00     0.727 A 
HETATM    2  N3  UNL     1       8.659  24.470  35.245  1.00  0.00    -0.020 N 
ATOM      3  H3  UNL     1       8.061  23.644  35.232  1.00  0.00     0.203 HD
HETATM    4  C3  UNL     1       8.987  25.024  36.425  1.00  0.00     0.705 A 
HETATM    5  N5  UNL     1       9.775  26.115  36.464  1.00  0.00    -0.022 N 
ATOM      6  H5  UNL     1      10.027  26.540  37.356  1.00  0.00     0.203 HD
HETATM    7  C4  UNL     1      10.224  26.636  35.311  1.00  0.00     0.705 A 
HETATM    8  N7  UNL     1       9.882  26.063  34.145  1.00  0.00    -0.020 N 
ATOM      9  H7  UNL     1      10.230  26.468  33.275  1.00  0.00     0.203 HD
ENDROOT
BRANCH   1  10
HETATM   10  N1  UNL     1       8.768  24.412  32.819  1.00  0.00    -0.134 N 
HETATM   11  C1  UNL     1       7.511  24.713  32.194  1.00  0.00     0.197 C 
BRANCH  10  12
HETATM   12  N2  UNL     1       9.720  23.557  32.222  1.00  0.00    -0.329 N 
ATOM     13  H22 UNL     1       9.572  23.301  31.246  1.00  0.00     0.177 HD
ATOM     14  H21 UNL     1      10.529  23.203  32.732  1.00  0.00     0.177 HD
ENDBRANCH  10  12
ENDBRANCH   1  10
BRANCH   4  15
HETATM   15  N4  UNL     1       8.563  24.533  37.510  1.00  0.00    -0.234 N 
ATOM     16  H42 UNL     1       8.083  23.633  37.494  1.00  0.00     0.174 HD
ATOM     17  H41 UNL     1       8.697  25.026  38.393  1.00  0.00     0.174 HD
ENDBRANCH   4  15
BRANCH   7  18
HETATM   18  N6  UNL     1      10.990  27.691  35.294  1.00  0.00    -0.234 N 
ATOM     19  H62 UNL     1      11.883  27.659  35.786  1.00  0.00     0.174 HD
ATOM     20  H61 UNL     1      10.715  28.541  34.801  1.00  0.00     0.174 HD
ENDBRANCH   7  18
TORSDOF 4
ENDMDL
MODEL 4
REMARK VINA RESULT: -6.036778562      0.279      2.400
REMARK  4 active torsions:
REMARK  status: ('A' for Active; 'I' for Inactive)
REMARK    1  A    between atoms: N1_2  and  N2_3 
REMARK    2  A    between atoms: N1_2  and  C2_6 
REMARK    3  A    between atoms: C3_9  and  N4_10 
REMARK    4  A    between atoms: C4_15  and  N6_16 
ROOT
HETATM    1  C2  UNL     1      10.437  27.053  35.744  1.00  0.00     0.727 A 
HETATM    2  N3  UNL     1      10.306  26.628  34.482  1.00  0.00    -0.020 N 
ATOM      3  H3  UNL     1      10.760  27.148  33.731  1.00  0.00     0.203 HD
HETATM    4  C3  UNL     1       9.589  25.531  34.180  1.00  0.00     0.705 A 
HETATM    5  N5  UNL     1       8.982  24.831  35.157  1.00  0.00    -0.022 N 
ATOM      6  H5  UNL     1       8.436  23.998  34.934  1.00  0.00     0.203 HD
HETATM    7  C4  UNL     1       9.103  25.245  36.428  1.00  0.00     0.705 A 
HETATM    8  N7  UNL     1       9.825  26.344  36.703  1.00  0.00    -0.020 N 
ATOM      9  H7  UNL     1       9.911  26.648  37.674  1.00  0.00     0.203 HD
ENDROOT
BRANCH   1  10
HETATM   10  N1  UNL     1      11.191  28.213  36.096  1.00  0.00    -0.134 N 
HETATM   11  C1  UNL     1      10.897  28.932  37.303  1.00  0.00     0.197 C 
BRANCH  10  12
HETATM   12  N2  UNL     1      12.219  28.611  35.213  1.00  0.00    -0.329 N 
ATOM     13  H22 UNL     1      13.125  28.837  35.623  1.00  0.00     0.177 HD
ATOM     14  H21 UNL     1      12.077  28.674  34.206  1.00  0.00     0.177 HD
ENDBRANCH  10  12
ENDBRANCH   1  10
BRANCH   4  15
HETATM   15  N4  UNL     1       9.474  25.142  32.983  1.00  0.00    -0.234 N 
ATOM     16  H42 UNL     1       9.055  24.231  32.796  1.00  0.00     0.174 HD
ATOM     17  H41 UNL     1       9.795  25.726  32.211  1.00  0.00     0.174 HD
ENDBRANCH   4  15
BRANCH   7  18
HETATM   18  N6  UNL     1       8.536  24.603  37.410  1.00  0.00    -0.234 N 
ATOM     19  H62 UNL     1       7.520  24.632  37.497  1.00  0.00     0.174 HD
ATOM     20  H61 UNL     1       9.085  24.076  38.090  1.00  0.00     0.174 HD
ENDBRANCH   7  18
TORSDOF 4
ENDMDL
MODEL 5
REMARK VINA RESULT: -5.801754026      0.846      2.620
REMARK  4 active torsions:
REMARK  status: ('A' for Active; 'I' for Inactive)
REMARK    1  A    between atoms: N1_2  and  N2_3 
REMARK    2  A    between atoms: N1_2  and  C2_6 
REMARK    3  A    between atoms: C3_9  and  N4_10 
REMARK    4  A    between atoms: C4_15  and  N6_16 
ROOT
HETATM    1  C2  UNL     1      10.510  27.246  36.038  1.00  0.00     0.727 A 
HETATM    2  N3  UNL     1      10.651  26.922  34.747  1.00  0.00    -0.020 N 
ATOM      3  H3  UNL     1      11.246  27.497  34.151  1.00  0.00     0.203 HD
HETATM    4  C3  UNL     1      10.027  25.855  34.218  1.00  0.00     0.705 A 
HETATM    5  N5  UNL     1       9.238  25.083  34.989  1.00  0.00    -0.022 N 
ATOM      6  H5  UNL     1       8.762  24.272  34.593  1.00  0.00     0.203 HD
HETATM    7  C4  UNL     1       9.086  25.395  36.286  1.00  0.00     0.705 A 
HETATM    8  N7  UNL     1       9.721  26.466  36.790  1.00  0.00    -0.020 N 
ATOM      9  H7  UNL     1       9.598  26.693  37.778  1.00  0.00     0.203 HD
ENDROOT
BRANCH   1  10
HETATM   10  N1  UNL     1      11.159  28.372  36.628  1.00  0.00    -0.134 N 
HETATM   11  C1  UNL     1      12.456  28.786  36.173  1.00  0.00     0.197 C 
BRANCH  10  12
HETATM   12  N2  UNL     1      10.474  29.046  37.664  1.00  0.00    -0.329 N 
ATOM     13  H22 UNL     1       9.969  28.474  38.340  1.00  0.00     0.177 HD
ATOM     14  H21 UNL     1      10.476  30.062  37.746  1.00  0.00     0.177 HD
ENDBRANCH  10  12
ENDBRANCH   1  10
BRANCH   4  15
HETATM   15  N4  UNL     1      10.170  25.561  32.997  1.00  0.00    -0.234 N 
ATOM     16  H42 UNL     1      10.428  24.607  32.744  1.00  0.00     0.174 HD
ATOM     17  H41 UNL     1      10.032  26.264  32.271  1.00  0.00     0.174 HD
ENDBRANCH   4  15
BRANCH   7  18
HETATM   18  N6  UNL     1       8.334  24.680  37.074  1.00  0.00    -0.234 N 
ATOM     19  H62 UNL     1       7.766  25.154  37.777  1.00  0.00     0.174 HD
ATOM     20  H61 UNL     1       8.304  23.663  37.004  1.00  0.00     0.174 HD
ENDBRANCH   7  18
TORSDOF 4
ENDMDL
