MODEL 1
REMARK VINA RESULT: -5.805278654      0.000      0.000
REMARK  5 active torsions:
REMARK  status: ('A' for Active; 'I' for Inactive)
REMARK    1  A    between atoms: N1_1  and  C1_4 
REMARK    2  A    between atoms: C2_7  and  N3_8 
REMARK    3  A    between atoms: N3_8  and  N4_10 
REMARK    4  A    between atoms: N5_13  and  C3_14 
REMARK    5  A    between atoms: C3_14  and  C4_15 
ROOT
HETATM    1  C1  UNL     1      26.963  28.569 -19.266  1.00  0.00     0.705 A 
HETATM    2  N2  UNL     1      27.715  29.245 -18.373  1.00  0.00    -0.018 N 
ATOM      3  H2  UNL     1      27.780  29.034 -17.377  1.00  0.00     0.203 HD
HETATM    4  C2  UNL     1      28.369  30.247 -19.003  1.00  0.00     0.728 A 
HETATM    5  N5  UNL     1      27.988  30.150 -20.289  1.00  0.00    -0.107 N 
HETATM    6  N6  UNL     1      27.147  29.151 -20.466  1.00  0.00    -0.115 N 
ATOM      7  H6  UNL     1      26.716  28.870 -21.347  1.00  0.00     0.206 HD
ENDROOT
BRANCH   4   8
HETATM    8  N3  UNL     1      29.175  31.094 -18.455  1.00  0.00    -0.137 N 
ATOM      9  H3  UNL     1      28.871  32.057 -18.312  1.00  0.00     0.205 HD
BRANCH   8  10
HETATM   10  N4  UNL     1      30.450  30.711 -18.058  1.00  0.00    -0.331 N 
ATOM     11  H42 UNL     1      30.907  29.947 -18.556  1.00  0.00     0.177 HD
ATOM     12  H41 UNL     1      30.920  31.181 -17.285  1.00  0.00     0.177 HD
ENDBRANCH   8  10
ENDBRANCH   4   8
BRANCH   5  13
HETATM   13  C3  UNL     1      28.442  31.020 -21.328  1.00  0.00     0.183 C 
BRANCH  13  14
HETATM   14  C4  UNL     1      29.843  30.719 -21.816  1.00  0.00     0.137 C 
HETATM   15 CL1  UNL     1      31.034  31.914 -21.345  1.00  0.00    -0.129 Cl
ENDBRANCH  13  14
ENDBRANCH   5  13
BRANCH   1  16
HETATM   16  N1  UNL     1      26.201  27.545 -19.019  1.00  0.00    -0.233 N 
ATOM     17  H12 UNL     1      26.423  26.764 -18.401  1.00  0.00     0.174 HD
ATOM     18  H11 UNL     1      25.273  27.371 -19.405  1.00  0.00     0.174 HD
ENDBRANCH   1  16
TORSDOF 5
ENDMDL
MODEL 2
REMARK VINA RESULT: -5.509088651      1.331      3.169
REMARK  5 active torsions:
REMARK  status: ('A' for Active; 'I' for Inactive)
REMARK    1  A    between atoms: N1_1  and  C1_4 
REMARK    2  A    between atoms: C2_7  and  N3_8 
REMARK    3  A    between atoms: N3_8  and  N4_10 
REMARK    4  A    between atoms: N5_13  and  C3_14 
REMARK    5  A    between atoms: C3_14  and  C4_15 
ROOT
HETATM    1  C1  UNL     1      28.238  29.987 -17.584  1.00  0.00     0.705 A 
HETATM    2  N2  UNL     1      27.469  28.878 -17.575  1.00  0.00    -0.018 N 
ATOM      3  H2  UNL     1      27.219  28.341 -16.744  1.00  0.00     0.203 HD
HETATM    4  C2  UNL     1      27.083  28.589 -18.838  1.00  0.00     0.728 A 
HETATM    5  N5  UNL     1      27.639  29.550 -19.596  1.00  0.00    -0.107 N 
HETATM    6  N6  UNL     1      28.334  30.396 -18.863  1.00  0.00    -0.115 N 
ATOM      7  H6  UNL     1      28.848  31.210 -19.201  1.00  0.00     0.206 HD
ENDROOT
BRANCH   4   8
HETATM    8  N3  UNL     1      26.341  27.595 -19.199  1.00  0.00    -0.137 N 
ATOM      9  H3  UNL     1      26.474  27.176 -20.118  1.00  0.00     0.205 HD
BRANCH   8  10
HETATM   10  N4  UNL     1      25.364  27.090 -18.350  1.00  0.00    -0.331 N 
ATOM     11  H42 UNL     1      25.501  27.176 -17.343  1.00  0.00     0.177 HD
ATOM     12  H41 UNL     1      24.527  26.642 -18.723  1.00  0.00     0.177 HD
ENDBRANCH   8  10
ENDBRANCH   4   8
BRANCH   5  13
HETATM   13  C3  UNL     1      27.491  29.638 -21.015  1.00  0.00     0.183 C 
BRANCH  13  14
HETATM   14  C4  UNL     1      28.225  30.806 -21.639  1.00  0.00     0.137 C 
HETATM   15 CL1  UNL     1      29.774  30.384 -22.340  1.00  0.00    -0.129 Cl
ENDBRANCH  13  14
ENDBRANCH   5  13
BRANCH   1  16
HETATM   16  N1  UNL     1      28.787  30.558 -16.553  1.00  0.00    -0.233 N 
ATOM     17  H12 UNL     1      28.325  30.777 -15.670  1.00  0.00     0.174 HD
ATOM     18  H11 UNL     1      29.754  30.870 -16.474  1.00  0.00     0.174 HD
ENDBRANCH   1  16
TORSDOF 5
ENDMDL
MODEL 3
REMARK VINA RESULT: -5.474625633      1.258      1.344
REMARK  5 active torsions:
REMARK  status: ('A' for Active; 'I' for Inactive)
REMARK    1  A    between atoms: N1_1  and  C1_4 
REMARK    2  A    between atoms: C2_7  and  N3_8 
REMARK    3  A    between atoms: N3_8  and  N4_10 
REMARK    4  A    between atoms: N5_13  and  C3_14 
REMARK    5  A    between atoms: C3_14  and  C4_15 
ROOT
HETATM    1  C1  UNL     1      27.036  28.444 -18.351  1.00  0.00     0.705 A 
HETATM    2  N2  UNL     1      27.842  29.271 -17.655  1.00  0.00    -0.018 N 
ATOM      3  H2  UNL     1      27.896  29.324 -16.637  1.00  0.00     0.203 HD
HETATM    4  C2  UNL     1      28.567  30.021 -18.516  1.00  0.00     0.728 A 
HETATM    5  N5  UNL     1      28.172  29.620 -19.737  1.00  0.00    -0.107 N 
HETATM    6  N6  UNL     1      27.257  28.676 -19.659  1.00  0.00    -0.115 N 
ATOM      7  H6  UNL     1      26.801  28.209 -20.442  1.00  0.00     0.206 HD
ENDROOT
BRANCH   4   8
HETATM    8  N3  UNL     1      29.439  30.919 -18.196  1.00  0.00    -0.137 N 
ATOM      9  H3  UNL     1      29.186  31.905 -18.244  1.00  0.00     0.205 HD
BRANCH   8  10
HETATM   10  N4  UNL     1      30.717  30.558 -17.788  1.00  0.00    -0.331 N 
ATOM     11  H42 UNL     1      30.868  30.324 -16.807  1.00  0.00     0.177 HD
ATOM     12  H41 UNL     1      31.489  30.527 -18.454  1.00  0.00     0.177 HD
ENDBRANCH   8  10
ENDBRANCH   4   8
BRANCH   5  13
HETATM   13  C3  UNL     1      28.686  30.152 -20.960  1.00  0.00     0.183 C 
BRANCH  13  14
HETATM   14  C4  UNL     1      27.837  31.255 -21.557  1.00  0.00     0.137 C 
HETATM   15 CL1  UNL     1      28.114  32.832 -20.846  1.00  0.00    -0.129 Cl
ENDBRANCH  13  14
ENDBRANCH   5  13
BRANCH   1  16
HETATM   16  N1  UNL     1      26.198  27.580 -17.857  1.00  0.00    -0.233 N 
ATOM     17  H12 UNL     1      25.376  27.795 -17.292  1.00  0.00     0.174 HD
ATOM     18  H11 UNL     1      26.238  26.567 -17.961  1.00  0.00     0.174 HD
ENDBRANCH   1  16
TORSDOF 5
ENDMDL
MODEL 4
REMARK VINA RESULT: -5.414779613      1.453      3.136
REMARK  5 active torsions:
REMARK  status: ('A' for Active; 'I' for Inactive)
REMARK    1  A    between atoms: N1_1  and  C1_4 
REMARK    2  A    between atoms: C2_7  and  N3_8 
REMARK    3  A    between atoms: N3_8  and  N4_10 
REMARK    4  A    between atoms: N5_13  and  C3_14 
REMARK    5  A    between atoms: C3_14  and  C4_15 
ROOT
HETATM    1  C1  UNL     1      28.414  30.207 -17.358  1.00  0.00     0.705 A 
HETATM    2  N2  UNL     1      27.485  29.280 -17.667  1.00  0.00    -0.018 N 
ATOM      3  H2  UNL     1      26.893  28.792 -16.994  1.00  0.00     0.203 HD
HETATM    4  C2  UNL     1      27.460  29.096 -19.006  1.00  0.00     0.728 A 
HETATM    5  N5  UNL     1      28.395  29.935 -19.485  1.00  0.00    -0.107 N 
HETATM    6  N6  UNL     1      28.977  30.609 -18.514  1.00  0.00    -0.115 N 
ATOM      7  H6  UNL     1      29.715  31.306 -18.618  1.00  0.00     0.206 HD
ENDROOT
BRANCH   4   8
HETATM    8  N3  UNL     1      26.691  28.282 -19.649  1.00  0.00    -0.137 N 
ATOM      9  H3  UNL     1      26.611  28.360 -20.663  1.00  0.00     0.205 HD
BRANCH   8  10
HETATM   10  N4  UNL     1      25.973  27.300 -18.978  1.00  0.00    -0.331 N 
ATOM     11  H42 UNL     1      24.997  27.150 -19.233  1.00  0.00     0.177 HD
ATOM     12  H41 UNL     1      26.410  26.740 -18.247  1.00  0.00     0.177 HD
ENDBRANCH   8  10
ENDBRANCH   4   8
BRANCH   5  13
HETATM   13  C3  UNL     1      28.712  30.076 -20.872  1.00  0.00     0.183 C 
BRANCH  13  14
HETATM   14  C4  UNL     1      27.915  31.151 -21.581  1.00  0.00     0.137 C 
HETATM   15 CL1  UNL     1      28.062  32.740 -20.860  1.00  0.00    -0.129 Cl
ENDBRANCH  13  14
ENDBRANCH   5  13
BRANCH   1  16
HETATM   16  N1  UNL     1      28.716  30.638 -16.169  1.00  0.00    -0.233 N 
ATOM     17  H12 UNL     1      28.107  31.175 -15.552  1.00  0.00     0.174 HD
ATOM     18  H11 UNL     1      29.600  30.503 -15.680  1.00  0.00     0.174 HD
ENDBRANCH   1  16
TORSDOF 5
ENDMDL
MODEL 5
REMARK VINA RESULT: -5.170487217      1.522      2.889
REMARK  5 active torsions:
REMARK  status: ('A' for Active; 'I' for Inactive)
REMARK    1  A    between atoms: N1_1  and  C1_4 
REMARK    2  A    between atoms: C2_7  and  N3_8 
REMARK    3  A    between atoms: N3_8  and  N4_10 
REMARK    4  A    between atoms: N5_13  and  C3_14 
REMARK    5  A    between atoms: C3_14  and  C4_15 
ROOT
HETATM    1  C1  UNL     1      28.233  30.732 -17.295  1.00  0.00     0.705 A 
HETATM    2  N2  UNL     1      27.999  29.645 -18.060  1.00  0.00    -0.018 N 
ATOM      3  H2  UNL     1      27.758  28.718 -17.709  1.00  0.00     0.203 HD
HETATM    4  C2  UNL     1      28.134  29.976 -19.364  1.00  0.00     0.728 A 
HETATM    5  N5  UNL     1      28.453  31.282 -19.356  1.00  0.00    -0.107 N 
HETATM    6  N6  UNL     1      28.516  31.752 -18.127  1.00  0.00    -0.115 N 
ATOM      7  H6  UNL     1      28.738  32.710 -17.856  1.00  0.00     0.206 HD
ENDROOT
BRANCH   4   8
HETATM    8  N3  UNL     1      27.984  29.182 -20.371  1.00  0.00    -0.137 N 
ATOM      9  H3  UNL     1      28.755  28.580 -20.657  1.00  0.00     0.205 HD
BRANCH   8  10
HETATM   10  N4  UNL     1      26.783  29.136 -21.069  1.00  0.00    -0.331 N 
ATOM     11  H42 UNL     1      26.643  28.389 -21.750  1.00  0.00     0.177 HD
ATOM     12  H41 UNL     1      26.056  29.832 -20.906  1.00  0.00     0.177 HD
ENDBRANCH   8  10
ENDBRANCH   4   8
BRANCH   5  13
HETATM   13  C3  UNL     1      28.691  32.057 -20.533  1.00  0.00     0.183 C 
BRANCH  13  14
HETATM   14  C4  UNL     1      30.057  31.842 -21.148  1.00  0.00     0.137 C 
HETATM   15 CL1  UNL     1      30.085  30.641 -22.424  1.00  0.00    -0.129 Cl
ENDBRANCH  13  14
ENDBRANCH   5  13
BRANCH   1  16
HETATM   16  N1  UNL     1      28.193  30.790 -15.997  1.00  0.00    -0.233 N 
ATOM     17  H12 UNL     1      28.156  29.993 -15.361  1.00  0.00     0.174 HD
ATOM     18  H11 UNL     1      28.193  31.634 -15.426  1.00  0.00     0.174 HD
ENDBRANCH   1  16
TORSDOF 5
ENDMDL
