MODEL 1
REMARK VINA RESULT: -6.410868982      0.000      0.000
REMARK  5 active torsions:
REMARK  status: ('A' for Active; 'I' for Inactive)
REMARK    1  A    between atoms: N1_1  and  C1_4 
REMARK    2  A    between atoms: C3_11  and  N4_12 
REMARK    3  A    between atoms: N4_12  and  O1_14 
REMARK    4  A    between atoms: O1_14  and  C4_15 
REMARK    5  A    between atoms: C4_15  and  N5_16 
ROOT
HETATM    1  C1  UNL     1      28.167  29.782 -17.714  1.00  0.00     0.692 A 
HETATM    2  N2  UNL     1      28.252  30.119 -19.015  1.00  0.00    -0.165 N 
ATOM      3  H2  UNL     1      28.840  30.906 -19.289  1.00  0.00     0.186 HD
HETATM    4  C2  UNL     1      27.574  29.436 -19.969  1.00  0.00     0.208 A 
HETATM    5 CL1  UNL     1      27.711  29.907 -21.651  1.00  0.00    -0.044 Cl
HETATM    6  N3  UNL     1      26.793  28.397 -19.650  1.00  0.00    -0.163 N 
ATOM      7  H3  UNL     1      26.284  27.884 -20.370  1.00  0.00     0.187 HD
HETATM    8  C3  UNL     1      26.696  28.046 -18.355  1.00  0.00     0.718 A 
HETATM    9  N6  UNL     1      27.373  28.729 -17.404  1.00  0.00    -0.021 N 
ATOM     10  H6  UNL     1      27.284  28.443 -16.429  1.00  0.00     0.203 HD
ENDROOT
BRANCH   8  11
HETATM   11  N4  UNL     1      25.938  27.037 -18.034  1.00  0.00    -0.094 N 
ATOM     12  H4  UNL     1      25.069  27.215 -17.532  1.00  0.00     0.213 HD
BRANCH  11  13
HETATM   13  O1  UNL     1      26.264  25.752 -18.343  1.00  0.00    -0.239 OA
BRANCH  13  14
HETATM   14  C4  UNL     1      25.345  24.831 -18.904  1.00  0.00     0.430 C 
BRANCH  14  15
HETATM   15  N5  UNL     1      24.948  25.402 -20.199  1.00  0.00    -0.056 N 
ATOM     16  H53 UNL     1      25.700  25.414 -20.888  1.00  0.00     0.276 HD
ATOM     17  H52 UNL     1      24.308  24.810 -20.728  1.00  0.00     0.276 HD
ATOM     18  H51 UNL     1      24.570  26.326 -19.990  1.00  0.00     0.276 HD
ENDBRANCH  14  15
ENDBRANCH  13  14
ENDBRANCH  11  13
ENDBRANCH   8  11
BRANCH   1  19
HETATM   19  N1  UNL     1      28.805  30.418 -16.781  1.00  0.00    -0.234 N 
ATOM     20  H12 UNL     1      29.386  31.225 -17.011  1.00  0.00     0.174 HD
ATOM     21  H11 UNL     1      28.757  30.151 -15.798  1.00  0.00     0.174 HD
ENDBRANCH   1  19
TORSDOF 5
ENDMDL
MODEL 2
REMARK VINA RESULT: -6.231926629      1.731      2.484
REMARK  5 active torsions:
REMARK  status: ('A' for Active; 'I' for Inactive)
REMARK    1  A    between atoms: N1_1  and  C1_4 
REMARK    2  A    between atoms: C3_11  and  N4_12 
REMARK    3  A    between atoms: N4_12  and  O1_14 
REMARK    4  A    between atoms: O1_14  and  C4_15 
REMARK    5  A    between atoms: C4_15  and  N5_16 
ROOT
HETATM    1  C1  UNL     1      27.403  29.227 -19.879  1.00  0.00     0.692 A 
HETATM    2  N2  UNL     1      27.993  29.919 -18.886  1.00  0.00    -0.165 N 
ATOM      3  H2  UNL     1      28.532  30.755 -19.113  1.00  0.00     0.186 HD
HETATM    4  C2  UNL     1      27.887  29.531 -17.592  1.00  0.00     0.208 A 
HETATM    5 CL1  UNL     1      28.672  30.459 -16.329  1.00  0.00    -0.044 Cl
HETATM    6  N3  UNL     1      27.188  28.441 -17.253  1.00  0.00    -0.163 N 
ATOM      7  H3  UNL     1      27.109  28.152 -16.278  1.00  0.00     0.187 HD
HETATM    8  C3  UNL     1      26.591  27.738 -18.232  1.00  0.00     0.718 A 
HETATM    9  N6  UNL     1      26.697  28.126 -19.523  1.00  0.00    -0.021 N 
ATOM     10  H6  UNL     1      26.234  27.577 -20.247  1.00  0.00     0.203 HD
ENDROOT
BRANCH   8  11
HETATM   11  N4  UNL     1      25.908  26.676 -17.913  1.00  0.00    -0.094 N 
ATOM     12  H4  UNL     1      25.130  26.769 -17.260  1.00  0.00     0.213 HD
BRANCH  11  13
HETATM   13  O1  UNL     1      26.193  25.446 -18.419  1.00  0.00    -0.239 OA
BRANCH  13  14
HETATM   14  C4  UNL     1      25.237  24.637 -19.082  1.00  0.00     0.430 C 
BRANCH  14  15
HETATM   15  N5  UNL     1      24.906  25.349 -20.326  1.00  0.00    -0.056 N 
ATOM     16  H53 UNL     1      24.744  26.347 -20.194  1.00  0.00     0.276 HD
ATOM     17  H52 UNL     1      25.693  25.436 -20.968  1.00  0.00     0.276 HD
ATOM     18  H51 UNL     1      24.108  24.854 -20.723  1.00  0.00     0.276 HD
ENDBRANCH  14  15
ENDBRANCH  13  14
ENDBRANCH  11  13
ENDBRANCH   8  11
BRANCH   1  19
HETATM   19  N1  UNL     1      27.488  29.576 -21.125  1.00  0.00    -0.234 N 
ATOM     20  H12 UNL     1      27.965  28.976 -21.797  1.00  0.00     0.174 HD
ATOM     21  H11 UNL     1      27.090  30.445 -21.484  1.00  0.00     0.174 HD
ENDBRANCH   1  19
TORSDOF 5
ENDMDL
MODEL 3
REMARK VINA RESULT: -6.184006892      1.751      2.029
REMARK  5 active torsions:
REMARK  status: ('A' for Active; 'I' for Inactive)
REMARK    1  A    between atoms: N1_1  and  C1_4 
REMARK    2  A    between atoms: C3_11  and  N4_12 
REMARK    3  A    between atoms: N4_12  and  O1_14 
REMARK    4  A    between atoms: O1_14  and  C4_15 
REMARK    5  A    between atoms: C4_15  and  N5_16 
ROOT
HETATM    1  C1  UNL     1      29.679  30.267 -18.756  1.00  0.00     0.692 A 
HETATM    2  N2  UNL     1      29.970  30.463 -20.056  1.00  0.00    -0.165 N 
ATOM      3  H2  UNL     1      30.818  30.971 -20.306  1.00  0.00     0.186 HD
HETATM    4  C2  UNL     1      29.162  29.999 -21.040  1.00  0.00     0.208 A 
HETATM    5 CL1  UNL     1      29.576  30.276 -22.720  1.00  0.00    -0.044 Cl
HETATM    6  N3  UNL     1      28.041  29.326 -20.753  1.00  0.00    -0.163 N 
ATOM      7  H3  UNL     1      27.435  28.978 -21.496  1.00  0.00     0.187 HD
HETATM    8  C3  UNL     1      27.735  29.121 -19.459  1.00  0.00     0.718 A 
HETATM    9  N6  UNL     1      28.542  29.584 -18.478  1.00  0.00    -0.021 N 
ATOM     10  H6  UNL     1      28.288  29.415 -17.505  1.00  0.00     0.203 HD
ENDROOT
BRANCH   8  11
HETATM   11  N4  UNL     1      26.646  28.467 -19.169  1.00  0.00    -0.094 N 
ATOM     12  H4  UNL     1      25.935  28.351 -19.891  1.00  0.00     0.213 HD
BRANCH  11  13
HETATM   13  O1  UNL     1      26.422  27.934 -17.938  1.00  0.00    -0.239 OA
BRANCH  13  14
HETATM   14  C4  UNL     1      25.833  26.661 -17.738  1.00  0.00     0.430 C 
BRANCH  14  15
HETATM   15  N5  UNL     1      24.530  26.713 -18.418  1.00  0.00    -0.056 N 
ATOM     16  H53 UNL     1      24.461  27.458 -19.112  1.00  0.00     0.276 HD
ATOM     17  H52 UNL     1      24.373  25.935 -19.059  1.00  0.00     0.276 HD
ATOM     18  H51 UNL     1      23.833  26.778 -17.677  1.00  0.00     0.276 HD
ENDBRANCH  14  15
ENDBRANCH  13  14
ENDBRANCH  11  13
ENDBRANCH   8  11
BRANCH   1  19
HETATM   19  N1  UNL     1      30.435  30.699 -17.794  1.00  0.00    -0.234 N 
ATOM     20  H12 UNL     1      31.450  30.629 -17.865  1.00  0.00     0.174 HD
ATOM     21  H11 UNL     1      30.061  31.121 -16.944  1.00  0.00     0.174 HD
ENDBRANCH   1  19
TORSDOF 5
ENDMDL
MODEL 4
REMARK VINA RESULT: -5.839694300      2.729      4.749
REMARK  5 active torsions:
REMARK  status: ('A' for Active; 'I' for Inactive)
REMARK    1  A    between atoms: N1_1  and  C1_4 
REMARK    2  A    between atoms: C3_11  and  N4_12 
REMARK    3  A    between atoms: N4_12  and  O1_14 
REMARK    4  A    between atoms: O1_14  and  C4_15 
REMARK    5  A    between atoms: C4_15  and  N5_16 
ROOT
HETATM    1  C1  UNL     1      26.190  26.241 -16.542  1.00  0.00     0.692 A 
HETATM    2  N2  UNL     1      25.560  25.388 -17.373  1.00  0.00    -0.165 N 
ATOM      3  H2  UNL     1      25.185  24.516 -17.001  1.00  0.00     0.186 HD
HETATM    4  C2  UNL     1      25.413  25.664 -18.691  1.00  0.00     0.208 A 
HETATM    5 CL1  UNL     1      24.587  24.527 -19.739  1.00  0.00    -0.044 Cl
HETATM    6  N3  UNL     1      25.890  26.798 -19.218  1.00  0.00    -0.163 N 
ATOM      7  H3  UNL     1      25.777  27.003 -20.210  1.00  0.00     0.187 HD
HETATM    8  C3  UNL     1      26.522  27.662 -18.402  1.00  0.00     0.718 A 
HETATM    9  N6  UNL     1      26.669  27.386 -17.087  1.00  0.00    -0.021 N 
ATOM     10  H6  UNL     1      27.151  28.058 -16.489  1.00  0.00     0.203 HD
ENDROOT
BRANCH   8  11
HETATM   11  N4  UNL     1      26.990  28.769 -18.904  1.00  0.00    -0.094 N 
ATOM     12  H4  UNL     1      26.788  28.991 -19.879  1.00  0.00     0.213 HD
BRANCH  11  13
HETATM   13  O1  UNL     1      27.739  29.641 -18.176  1.00  0.00    -0.239 OA
BRANCH  13  14
HETATM   14  C4  UNL     1      28.541  30.652 -18.760  1.00  0.00     0.430 C 
BRANCH  14  15
HETATM   15  N5  UNL     1      28.199  31.893 -18.048  1.00  0.00    -0.056 N 
ATOM     16  H53 UNL     1      27.241  31.912 -17.699  1.00  0.00     0.276 HD
ATOM     17  H52 UNL     1      28.660  31.986 -17.143  1.00  0.00     0.276 HD
ATOM     18  H51 UNL     1      28.414  32.651 -18.695  1.00  0.00     0.276 HD
ENDBRANCH  14  15
ENDBRANCH  13  14
ENDBRANCH  11  13
ENDBRANCH   8  11
BRANCH   1  19
HETATM   19  N1  UNL     1      26.345  26.003 -15.277  1.00  0.00    -0.234 N 
ATOM     20  H12 UNL     1      27.273  25.819 -14.896  1.00  0.00     0.174 HD
ATOM     21  H11 UNL     1      25.566  25.990 -14.618  1.00  0.00     0.174 HD
ENDBRANCH   1  19
TORSDOF 5
ENDMDL
MODEL 5
REMARK VINA RESULT: -5.780634511      2.830      4.360
REMARK  5 active torsions:
REMARK  status: ('A' for Active; 'I' for Inactive)
REMARK    1  A    between atoms: N1_1  and  C1_4 
REMARK    2  A    between atoms: C3_11  and  N4_12 
REMARK    3  A    between atoms: N4_12  and  O1_14 
REMARK    4  A    between atoms: O1_14  and  C4_15 
REMARK    5  A    between atoms: C4_15  and  N5_16 
ROOT
HETATM    1  C1  UNL     1      28.087  29.717 -17.660  1.00  0.00     0.692 A 
HETATM    2  N2  UNL     1      27.396  28.642 -17.233  1.00  0.00    -0.165 N 
ATOM      3  H2  UNL     1      27.401  28.410 -16.240  1.00  0.00     0.186 HD
HETATM    4  C2  UNL     1      26.696  27.864 -18.092  1.00  0.00     0.208 A 
HETATM    5 CL1  UNL     1      25.812  26.473 -17.496  1.00  0.00    -0.044 Cl
HETATM    6  N3  UNL     1      26.664  28.137 -19.402  1.00  0.00    -0.163 N 
ATOM      7  H3  UNL     1      26.135  27.549 -20.047  1.00  0.00     0.187 HD
HETATM    8  C3  UNL     1      27.347  29.207 -19.846  1.00  0.00     0.718 A 
HETATM    9  N6  UNL     1      28.047  29.984 -18.988  1.00  0.00    -0.021 N 
ATOM     10  H6  UNL     1      28.556  30.790 -19.350  1.00  0.00     0.203 HD
ENDROOT
BRANCH   8  11
HETATM   11  N4  UNL     1      27.323  29.482 -21.120  1.00  0.00    -0.094 N 
ATOM     12  H4  UNL     1      26.717  28.932 -21.729  1.00  0.00     0.213 HD
BRANCH  11  13
HETATM   13  O1  UNL     1      28.076  30.474 -21.667  1.00  0.00    -0.239 OA
BRANCH  13  14
HETATM   14  C4  UNL     1      29.354  30.255 -22.239  1.00  0.00     0.430 C 
BRANCH  14  15
HETATM   15  N5  UNL     1      30.270  31.158 -21.526  1.00  0.00    -0.056 N 
ATOM     16  H53 UNL     1      29.832  31.654 -20.749  1.00  0.00     0.276 HD
ATOM     17  H52 UNL     1      30.977  30.672 -20.976  1.00  0.00     0.276 HD
ATOM     18  H51 UNL     1      30.659  31.775 -22.238  1.00  0.00     0.276 HD
ENDBRANCH  14  15
ENDBRANCH  13  14
ENDBRANCH  11  13
ENDBRANCH   8  11
BRANCH   1  19
HETATM   19  N1  UNL     1      28.765  30.480 -16.860  1.00  0.00    -0.234 N 
ATOM     20  H12 UNL     1      29.057  30.137 -15.945  1.00  0.00     0.174 HD
ATOM     21  H11 UNL     1      29.034  31.434 -17.101  1.00  0.00     0.174 HD
ENDBRANCH   1  19
TORSDOF 5
ENDMDL
