MODEL 1
REMARK VINA RESULT: -7.651842621      0.000      0.000
REMARK  3 active torsions:
REMARK  status: ('A' for Active; 'I' for Inactive)
REMARK    1  A    between atoms: C4_11  and  N5_12 
REMARK    2  A    between atoms: N6_15  and  C5_16 
REMARK    3  A    between atoms: C5_16  and  C6_17 
ROOT
HETATM    1  N1  UNL     1      26.774  28.653 -19.750  1.00  0.00    -0.234 N 
ATOM      2  H11 UNL     1      26.688  28.543 -18.739  1.00  0.00     0.174 HD
ATOM      3  H12 UNL     1      26.106  28.229 -20.393  1.00  0.00     0.174 HD
HETATM    4  C1  UNL     1      27.771  29.369 -20.119  1.00  0.00     0.681 A 
HETATM    5  N2  UNL     1      27.887  29.516 -21.474  1.00  0.00    -0.177 N 
ATOM      6  H2  UNL     1      27.190  29.073 -22.073  1.00  0.00     0.185 HD
HETATM    7  C2  UNL     1      28.876  30.217 -22.050  1.00  0.00     0.159 A 
HETATM    8  N3  UNL     1      28.989  30.365 -23.464  1.00  0.00    -0.080 NA
HETATM    9  C3  UNL     1      29.791  30.797 -21.198  1.00  0.00     0.132 A 
HETATM   10  N4  UNL     1      30.864  31.554 -21.750  1.00  0.00    -0.095 NA
HETATM   11  C4  UNL     1      29.655  30.638 -19.847  1.00  0.00     0.145 A 
HETATM   12  N6  UNL     1      28.651  29.927 -19.272  1.00  0.00    -0.165 N 
ENDROOT
BRANCH  12  13
HETATM   13  C5  UNL     1      28.524  29.802 -17.867  1.00  0.00     0.180 C 
BRANCH  13  14
HETATM   14  C6  UNL     1      28.042  30.964 -17.105  1.00  0.00     0.242 C 
HETATM   15  F1  UNL     1      28.199  30.842 -15.741  1.00  0.00    -0.254 F 
ENDBRANCH  13  14
ENDBRANCH  12  13
BRANCH  11  16
HETATM   16  N5  UNL     1      30.487  31.163 -19.027  1.00  0.00    -0.383 N 
ATOM     17  H52 UNL     1      30.581  32.177 -19.095  1.00  0.00     0.157 HD
ATOM     18  H51 UNL     1      31.009  30.592 -18.362  1.00  0.00     0.157 HD
ENDBRANCH  11  16
TORSDOF 3
ENDMDL
MODEL 2
REMARK VINA RESULT: -6.811642533      0.898      2.537
REMARK  3 active torsions:
REMARK  status: ('A' for Active; 'I' for Inactive)
REMARK    1  A    between atoms: C4_11  and  N5_12 
REMARK    2  A    between atoms: N6_15  and  C5_16 
REMARK    3  A    between atoms: C5_16  and  C6_17 
ROOT
HETATM    1  N1  UNL     1      30.587  30.784 -17.823  1.00  0.00    -0.234 N 
ATOM      2  H11 UNL     1      30.089  30.402 -17.018  1.00  0.00     0.174 HD
ATOM      3  H12 UNL     1      31.491  31.244 -17.723  1.00  0.00     0.174 HD
HETATM    4  C1  UNL     1      29.985  30.619 -18.942  1.00  0.00     0.681 A 
HETATM    5  N2  UNL     1      30.651  31.131 -20.021  1.00  0.00    -0.177 N 
ATOM      6  H2  UNL     1      31.555  31.580 -19.867  1.00  0.00     0.185 HD
HETATM    7  C2  UNL     1      30.172  31.069 -21.273  1.00  0.00     0.159 A 
HETATM    8  N3  UNL     1      30.873  31.605 -22.392  1.00  0.00    -0.080 NA
HETATM    9  C3  UNL     1      28.948  30.452 -21.429  1.00  0.00     0.132 A 
HETATM   10  N4  UNL     1      28.386  30.355 -22.734  1.00  0.00    -0.095 NA
HETATM   11  C4  UNL     1      28.300  29.946 -20.336  1.00  0.00     0.145 A 
HETATM   12  N6  UNL     1      28.794  30.014 -19.073  1.00  0.00    -0.165 N 
ENDROOT
BRANCH  12  13
HETATM   13  C5  UNL     1      28.108  29.457 -17.965  1.00  0.00     0.180 C 
BRANCH  13  14
HETATM   14  C6  UNL     1      28.057  30.231 -16.716  1.00  0.00     0.242 C 
HETATM   15  F1  UNL     1      27.670  31.543 -16.887  1.00  0.00    -0.254 F 
ENDBRANCH  13  14
ENDBRANCH  12  13
BRANCH  11  16
HETATM   16  N5  UNL     1      27.163  29.367 -20.445  1.00  0.00    -0.383 N 
ATOM     17  H52 UNL     1      26.369  29.993 -20.585  1.00  0.00     0.157 HD
ATOM     18  H51 UNL     1      27.077  28.352 -20.394  1.00  0.00     0.157 HD
ENDBRANCH  11  16
TORSDOF 3
ENDMDL
MODEL 3
REMARK VINA RESULT: -6.682730459      2.535      4.200
REMARK  3 active torsions:
REMARK  status: ('A' for Active; 'I' for Inactive)
REMARK    1  A    between atoms: C4_11  and  N5_12 
REMARK    2  A    between atoms: N6_15  and  C5_16 
REMARK    3  A    between atoms: C5_16  and  C6_17 
ROOT
HETATM    1  N1  UNL     1      27.029  29.306 -21.703  1.00  0.00    -0.234 N 
ATOM      2  H11 UNL     1      27.425  30.008 -22.329  1.00  0.00     0.174 HD
ATOM      3  H12 UNL     1      26.425  28.561 -22.050  1.00  0.00     0.174 HD
HETATM    4  C1  UNL     1      27.370  29.442 -20.476  1.00  0.00     0.681 A 
HETATM    5  N2  UNL     1      26.839  28.500 -19.637  1.00  0.00    -0.177 N 
ATOM      6  H2  UNL     1      26.242  27.775 -20.035  1.00  0.00     0.185 HD
HETATM    7  C2  UNL     1      27.068  28.487 -18.315  1.00  0.00     0.159 A 
HETATM    8  N3  UNL     1      26.510  27.502 -17.448  1.00  0.00    -0.080 NA
HETATM    9  C3  UNL     1      27.881  29.488 -17.826  1.00  0.00     0.132 A 
HETATM   10  N4  UNL     1      28.162  29.528 -16.430  1.00  0.00    -0.095 NA
HETATM   11  C4  UNL     1      28.401  30.418 -18.682  1.00  0.00     0.145 A 
HETATM   12  N6  UNL     1      28.164  30.422 -20.020  1.00  0.00    -0.165 N 
ENDROOT
BRANCH  12  13
HETATM   13  C5  UNL     1      28.740  31.386 -20.884  1.00  0.00     0.180 C 
BRANCH  13  14
HETATM   14  C6  UNL     1      30.057  31.097 -21.470  1.00  0.00     0.242 C 
HETATM   15  F1  UNL     1      30.003  30.348 -22.626  1.00  0.00    -0.254 F 
ENDBRANCH  13  14
ENDBRANCH  12  13
BRANCH  11  16
HETATM   16  N5  UNL     1      29.161  31.360 -18.262  1.00  0.00    -0.383 N 
ATOM     17  H52 UNL     1      29.727  31.128 -17.445  1.00  0.00     0.157 HD
ATOM     18  H51 UNL     1      29.183  32.269 -18.723  1.00  0.00     0.157 HD
ENDBRANCH  11  16
TORSDOF 3
ENDMDL
MODEL 4
REMARK VINA RESULT: -6.662038032      2.080      3.918
REMARK  3 active torsions:
REMARK  status: ('A' for Active; 'I' for Inactive)
REMARK    1  A    between atoms: C4_11  and  N5_12 
REMARK    2  A    between atoms: N6_15  and  C5_16 
REMARK    3  A    between atoms: C5_16  and  C6_17 
ROOT
HETATM    1  N1  UNL     1      27.040  29.426 -21.699  1.00  0.00    -0.234 N 
ATOM      2  H11 UNL     1      27.542  30.116 -22.258  1.00  0.00     0.174 HD
ATOM      3  H12 UNL     1      26.346  28.804 -22.113  1.00  0.00     0.174 HD
HETATM    4  C1  UNL     1      27.370  29.411 -20.461  1.00  0.00     0.681 A 
HETATM    5  N2  UNL     1      26.697  28.486 -19.710  1.00  0.00    -0.177 N 
ATOM      6  H2  UNL     1      26.015  27.886 -20.174  1.00  0.00     0.185 HD
HETATM    7  C2  UNL     1      26.895  28.332 -18.392  1.00  0.00     0.159 A 
HETATM    8  N3  UNL     1      26.188  27.365 -17.617  1.00  0.00    -0.080 NA
HETATM    9  C3  UNL     1      27.827  29.166 -17.812  1.00  0.00     0.132 A 
HETATM   10  N4  UNL     1      28.081  29.050 -16.415  1.00  0.00    -0.095 NA
HETATM   11  C4  UNL     1      28.488  30.082 -18.581  1.00  0.00     0.145 A 
HETATM   12  N6  UNL     1      28.282  30.231 -19.915  1.00  0.00    -0.165 N 
ENDROOT
BRANCH  12  13
HETATM   13  C5  UNL     1      29.003  31.173 -20.689  1.00  0.00     0.180 C 
BRANCH  13  14
HETATM   14  C6  UNL     1      28.410  32.502 -20.900  1.00  0.00     0.242 C 
HETATM   15  F1  UNL     1      28.642  33.388 -19.869  1.00  0.00    -0.254 F 
ENDBRANCH  13  14
ENDBRANCH  12  13
BRANCH  11  16
HETATM   16  N5  UNL     1      29.361  30.872 -18.075  1.00  0.00    -0.383 N 
ATOM     17  H52 UNL     1      29.022  31.463 -17.316  1.00  0.00     0.157 HD
ATOM     18  H51 UNL     1      30.321  30.893 -18.419  1.00  0.00     0.157 HD
ENDBRANCH  11  16
TORSDOF 3
ENDMDL
MODEL 5
REMARK VINA RESULT: -6.624196508      2.775      4.942
REMARK  3 active torsions:
REMARK  status: ('A' for Active; 'I' for Inactive)
REMARK    1  A    between atoms: C4_11  and  N5_12 
REMARK    2  A    between atoms: N6_15  and  C5_16 
REMARK    3  A    between atoms: C5_16  and  C6_17 
ROOT
HETATM    1  N1  UNL     1      28.988  32.819 -19.897  1.00  0.00    -0.234 N 
ATOM      2  H11 UNL     1      28.990  32.841 -20.917  1.00  0.00     0.174 HD
ATOM      3  H12 UNL     1      29.320  33.610 -19.345  1.00  0.00     0.174 HD
HETATM    4  C1  UNL     1      28.527  31.735 -19.394  1.00  0.00     0.681 A 
HETATM    5  N2  UNL     1      28.525  31.705 -18.027  1.00  0.00    -0.177 N 
ATOM      6  H2  UNL     1      28.865  32.523 -17.521  1.00  0.00     0.185 HD
HETATM    7  C2  UNL     1      28.095  30.648 -17.320  1.00  0.00     0.159 A 
HETATM    8  N3  UNL     1      28.096  30.625 -15.894  1.00  0.00    -0.080 NA
HETATM    9  C3  UNL     1      27.644  29.568 -18.049  1.00  0.00     0.132 A 
HETATM   10  N4  UNL     1      27.174  28.416 -17.355  1.00  0.00    -0.095 NA
HETATM   11  C4  UNL     1      27.654  29.620 -19.415  1.00  0.00     0.145 A 
HETATM   12  N6  UNL     1      28.091  30.694 -20.121  1.00  0.00    -0.165 N 
ENDROOT
BRANCH  12  13
HETATM   13  C5  UNL     1      28.064  30.726 -21.537  1.00  0.00     0.180 C 
BRANCH  13  14
HETATM   14  C6  UNL     1      29.279  30.334 -22.267  1.00  0.00     0.242 C 
HETATM   15  F1  UNL     1      29.072  30.090 -23.607  1.00  0.00    -0.254 F 
ENDBRANCH  13  14
ENDBRANCH  12  13
BRANCH  11  16
HETATM   16  N5  UNL     1      27.242  28.635 -20.122  1.00  0.00    -0.383 N 
ATOM     17  H52 UNL     1      26.412  28.161 -19.764  1.00  0.00     0.157 HD
ATOM     18  H51 UNL     1      27.722  28.359 -20.979  1.00  0.00     0.157 HD
ENDBRANCH  11  16
TORSDOF 3
ENDMDL
