MODEL 1
REMARK VINA RESULT: -6.441115445      0.000      0.000
REMARK  6 active torsions:
REMARK  status: ('A' for Active; 'I' for Inactive)
REMARK    1  A    between atoms: N1_1  and  C1_4 
REMARK    2  A    between atoms: C2_7  and  O1_8 
REMARK    3  A    between atoms: O1_8  and  C3_9 
REMARK    4  A    between atoms: C3_9  and  O2_10 
REMARK    5  A    between atoms: O2_10  and  N3_11 
REMARK    6  A    between atoms: C4_16  and  N5_17 
ROOT
HETATM    1  C1  UNL     1      27.193  29.096 -19.778  1.00  0.00     0.693 A 
HETATM    2  N2  UNL     1      26.638  28.120 -19.025  1.00  0.00    -0.154 N 
ATOM      3  H2  UNL     1      26.010  27.451 -19.471  1.00  0.00     0.188 HD
HETATM    4  C2  UNL     1      26.887  27.998 -17.703  1.00  0.00     0.254 A 
HETATM    5  N4  UNL     1      27.715  28.878 -17.103  1.00  0.00    -0.154 N 
ATOM      6  H4  UNL     1      27.916  28.806 -16.105  1.00  0.00     0.188 HD
HETATM    7  C4  UNL     1      28.272  29.853 -17.843  1.00  0.00     0.693 A 
HETATM    8  N6  UNL     1      28.018  29.971 -19.178  1.00  0.00    -0.023 N 
ATOM      9  H6  UNL     1      28.452  30.719 -19.718  1.00  0.00     0.203 HD
ENDROOT
BRANCH   4  10
HETATM   10  O1  UNL     1      26.329  27.007 -16.920  1.00  0.00    -0.293 OA
BRANCH  10  11
HETATM   11  C3  UNL     1      25.483  26.063 -17.547  1.00  0.00     0.379 C 
BRANCH  11  12
HETATM   12  O2  UNL     1      24.178  26.528 -17.417  1.00  0.00    -0.261 OA
BRANCH  12  13
HETATM   13  N3  UNL     1      23.627  26.531 -18.649  1.00  0.00    -0.309 N 
ATOM     14  H32 UNL     1      23.659  25.759 -19.315  1.00  0.00     0.184 HD
ATOM     15  H31 UNL     1      23.184  27.440 -18.781  1.00  0.00     0.184 HD
ENDBRANCH  12  13
ENDBRANCH  11  12
ENDBRANCH  10  11
ENDBRANCH   4  10
BRANCH   1  16
HETATM   16  N1  UNL     1      26.959  29.218 -21.046  1.00  0.00    -0.234 N 
ATOM     17  H12 UNL     1      27.735  29.147 -21.703  1.00  0.00     0.174 HD
ATOM     18  H11 UNL     1      26.025  29.384 -21.419  1.00  0.00     0.174 HD
ENDBRANCH   1  16
BRANCH   7  19
HETATM   19  N5  UNL     1      29.063  30.709 -17.321  1.00  0.00    -0.234 N 
ATOM     20  H52 UNL     1      29.964  30.851 -17.777  1.00  0.00     0.174 HD
ATOM     21  H51 UNL     1      28.801  31.227 -16.482  1.00  0.00     0.174 HD
ENDBRANCH   7  19
TORSDOF 6
ENDMDL
MODEL 2
REMARK VINA RESULT: -6.426457600      1.138      2.558
REMARK  6 active torsions:
REMARK  status: ('A' for Active; 'I' for Inactive)
REMARK    1  A    between atoms: N1_1  and  C1_4 
REMARK    2  A    between atoms: C2_7  and  O1_8 
REMARK    3  A    between atoms: O1_8  and  C3_9 
REMARK    4  A    between atoms: C3_9  and  O2_10 
REMARK    5  A    between atoms: O2_10  and  N3_11 
REMARK    6  A    between atoms: C4_16  and  N5_17 
ROOT
HETATM    1  C1  UNL     1      28.219  29.788 -17.946  1.00  0.00     0.693 A 
HETATM    2  N2  UNL     1      27.561  28.798 -17.303  1.00  0.00    -0.154 N 
ATOM      3  H2  UNL     1      27.696  28.689 -16.298  1.00  0.00     0.188 HD
HETATM    4  C2  UNL     1      26.730  27.947 -17.945  1.00  0.00     0.254 A 
HETATM    5  N4  UNL     1      26.545  28.081 -19.275  1.00  0.00    -0.154 N 
ATOM      6  H4  UNL     1      25.924  27.449 -19.779  1.00  0.00     0.188 HD
HETATM    7  C4  UNL     1      27.196  29.063 -19.924  1.00  0.00     0.693 A 
HETATM    8  N6  UNL     1      28.033  29.920 -19.270  1.00  0.00    -0.023 N 
ATOM      9  H6  UNL     1      28.515  30.657 -19.785  1.00  0.00     0.203 HD
ENDROOT
BRANCH   4  10
HETATM   10  O1  UNL     1      26.050  26.931 -17.303  1.00  0.00    -0.293 OA
BRANCH  10  11
HETATM   11  C3  UNL     1      25.214  26.098 -18.081  1.00  0.00     0.379 C 
BRANCH  11  12
HETATM   12  O2  UNL     1      25.992  25.034 -18.529  1.00  0.00    -0.261 OA
BRANCH  12  13
HETATM   13  N3  UNL     1      25.372  24.510 -19.608  1.00  0.00    -0.309 N 
ATOM     14  H32 UNL     1      24.627  23.814 -19.584  1.00  0.00     0.184 HD
ATOM     15  H31 UNL     1      25.789  24.938 -20.435  1.00  0.00     0.184 HD
ENDBRANCH  12  13
ENDBRANCH  11  12
ENDBRANCH  10  11
ENDBRANCH   4  10
BRANCH   1  16
HETATM   16  N1  UNL     1      29.016  30.607 -17.337  1.00  0.00    -0.234 N 
ATOM     17  H12 UNL     1      28.723  31.018 -16.450  1.00  0.00     0.174 HD
ATOM     18  H11 UNL     1      29.931  30.861 -17.708  1.00  0.00     0.174 HD
ENDBRANCH   1  16
BRANCH   7  19
HETATM   19  N5  UNL     1      27.053  29.231 -21.182  1.00  0.00    -0.234 N 
ATOM     20  H52 UNL     1      26.380  28.632 -21.659  1.00  0.00     0.174 HD
ATOM     21  H51 UNL     1      27.592  29.937 -21.684  1.00  0.00     0.174 HD
ENDBRANCH   7  19
TORSDOF 6
ENDMDL
MODEL 3
REMARK VINA RESULT: -6.390006631      0.079      2.289
REMARK  6 active torsions:
REMARK  status: ('A' for Active; 'I' for Inactive)
REMARK    1  A    between atoms: N1_1  and  C1_4 
REMARK    2  A    between atoms: C2_7  and  O1_8 
REMARK    3  A    between atoms: O1_8  and  C3_9 
REMARK    4  A    between atoms: C3_9  and  O2_10 
REMARK    5  A    between atoms: O2_10  and  N3_11 
REMARK    6  A    between atoms: C4_16  and  N5_17 
ROOT
HETATM    1  C1  UNL     1      28.349  29.885 -17.900  1.00  0.00     0.693 A 
HETATM    2  N2  UNL     1      27.763  28.918 -17.161  1.00  0.00    -0.154 N 
ATOM      3  H2  UNL     1      27.982  28.858 -16.166  1.00  0.00     0.188 HD
HETATM    4  C2  UNL     1      26.897  28.027 -17.691  1.00  0.00     0.254 A 
HETATM    5  N4  UNL     1      26.601  28.096 -19.006  1.00  0.00    -0.154 N 
ATOM      6  H4  UNL     1      25.950  27.432 -19.427  1.00  0.00     0.188 HD
HETATM    7  C4  UNL     1      27.178  29.055 -19.751  1.00  0.00     0.693 A 
HETATM    8  N6  UNL     1      28.052  29.952 -19.209  1.00  0.00    -0.023 N 
ATOM      9  H6  UNL     1      28.477  30.670 -19.796  1.00  0.00     0.203 HD
ENDROOT
BRANCH   4  10
HETATM   10  O1  UNL     1      26.290  27.032 -16.949  1.00  0.00    -0.293 OA
BRANCH  10  11
HETATM   11  C3  UNL     1      25.488  26.090 -17.633  1.00  0.00     0.379 C 
BRANCH  11  12
HETATM   12  O2  UNL     1      24.160  26.451 -17.425  1.00  0.00    -0.261 OA
BRANCH  12  13
HETATM   13  N3  UNL     1      23.587  26.592 -18.639  1.00  0.00    -0.309 N 
ATOM     14  H32 UNL     1      22.591  26.722 -18.814  1.00  0.00     0.184 HD
ATOM     15  H31 UNL     1      24.332  26.542 -19.334  1.00  0.00     0.184 HD
ENDBRANCH  12  13
ENDBRANCH  11  12
ENDBRANCH  10  11
ENDBRANCH   4  10
BRANCH   1  16
HETATM   16  N1  UNL     1      29.179  30.742 -17.398  1.00  0.00    -0.234 N 
ATOM     17  H12 UNL     1      29.918  30.412 -16.777  1.00  0.00     0.174 HD
ATOM     18  H11 UNL     1      29.127  31.740 -17.597  1.00  0.00     0.174 HD
ENDBRANCH   1  16
BRANCH   7  19
HETATM   19  N5  UNL     1      26.929  29.161 -20.999  1.00  0.00    -0.234 N 
ATOM     20  H52 UNL     1      27.465  28.570 -21.635  1.00  0.00     0.174 HD
ATOM     21  H51 UNL     1      26.223  29.812 -21.342  1.00  0.00     0.174 HD
ENDBRANCH   7  19
TORSDOF 6
ENDMDL
MODEL 4
REMARK VINA RESULT: -6.372753811      1.142      1.155
REMARK  6 active torsions:
REMARK  status: ('A' for Active; 'I' for Inactive)
REMARK    1  A    between atoms: N1_1  and  C1_4 
REMARK    2  A    between atoms: C2_7  and  O1_8 
REMARK    3  A    between atoms: O1_8  and  C3_9 
REMARK    4  A    between atoms: C3_9  and  O2_10 
REMARK    5  A    between atoms: O2_10  and  N3_11 
REMARK    6  A    between atoms: C4_16  and  N5_17 
ROOT
HETATM    1  C1  UNL     1      27.241  29.184 -19.917  1.00  0.00     0.693 A 
HETATM    2  N2  UNL     1      26.611  28.167 -19.289  1.00  0.00    -0.154 N 
ATOM      3  H2  UNL     1      26.016  27.545 -19.835  1.00  0.00     0.188 HD
HETATM    4  C2  UNL     1      26.743  27.944 -17.963  1.00  0.00     0.254 A 
HETATM    5  N4  UNL     1      27.527  28.762 -17.230  1.00  0.00    -0.154 N 
ATOM      6  H4  UNL     1      27.639  28.612 -16.227  1.00  0.00     0.188 HD
HETATM    7  C4  UNL     1      28.158  29.777 -17.845  1.00  0.00     0.693 A 
HETATM    8  N6  UNL     1      28.022  29.997 -19.184  1.00  0.00    -0.023 N 
ATOM      9  H6  UNL     1      28.512  30.774 -19.628  1.00  0.00     0.203 HD
ENDROOT
BRANCH   4  10
HETATM   10  O1  UNL     1      26.106  26.909 -17.306  1.00  0.00    -0.293 OA
BRANCH  10  11
HETATM   11  C3  UNL     1      25.255  26.069 -18.061  1.00  0.00     0.379 C 
BRANCH  11  12
HETATM   12  O2  UNL     1      26.047  25.063 -18.606  1.00  0.00    -0.261 OA
BRANCH  12  13
HETATM   13  N3  UNL     1      25.347  24.504 -19.616  1.00  0.00    -0.309 N 
ATOM     14  H32 UNL     1      24.348  24.299 -19.603  1.00  0.00     0.184 HD
ATOM     15  H31 UNL     1      26.001  24.330 -20.379  1.00  0.00     0.184 HD
ENDBRANCH  12  13
ENDBRANCH  11  12
ENDBRANCH  10  11
ENDBRANCH   4  10
BRANCH   1  16
HETATM   16  N1  UNL     1      27.120  29.403 -21.187  1.00  0.00    -0.234 N 
ATOM     17  H12 UNL     1      26.521  28.791 -21.741  1.00  0.00     0.174 HD
ATOM     18  H11 UNL     1      27.601  30.166 -21.662  1.00  0.00     0.174 HD
ENDBRANCH   1  16
BRANCH   7  19
HETATM   19  N5  UNL     1      28.912  30.577 -17.195  1.00  0.00    -0.234 N 
ATOM     20  H52 UNL     1      29.665  30.165 -16.644  1.00  0.00     0.174 HD
ATOM     21  H51 UNL     1      28.764  31.586 -17.228  1.00  0.00     0.174 HD
ENDBRANCH   7  19
TORSDOF 6
ENDMDL
MODEL 5
REMARK VINA RESULT: -6.217542131      2.767      4.189
REMARK  6 active torsions:
REMARK  status: ('A' for Active; 'I' for Inactive)
REMARK    1  A    between atoms: N1_1  and  C1_4 
REMARK    2  A    between atoms: C2_7  and  O1_8 
REMARK    3  A    between atoms: O1_8  and  C3_9 
REMARK    4  A    between atoms: C3_9  and  O2_10 
REMARK    5  A    between atoms: O2_10  and  N3_11 
REMARK    6  A    between atoms: C4_16  and  N5_17 
ROOT
HETATM    1  C1  UNL     1      30.484  31.558 -20.773  1.00  0.00     0.693 A 
HETATM    2  N2  UNL     1      30.461  30.936 -19.574  1.00  0.00    -0.154 N 
ATOM      3  H2  UNL     1      31.308  30.931 -19.006  1.00  0.00     0.188 HD
HETATM    4  C2  UNL     1      29.355  30.322 -19.099  1.00  0.00     0.254 A 
HETATM    5  N4  UNL     1      28.229  30.321 -19.842  1.00  0.00    -0.154 N 
ATOM      6  H4  UNL     1      27.383  29.862 -19.504  1.00  0.00     0.188 HD
HETATM    7  C4  UNL     1      28.241  30.937 -21.038  1.00  0.00     0.693 A 
HETATM    8  N6  UNL     1      29.360  31.557 -21.511  1.00  0.00    -0.023 N 
ATOM      9  H6  UNL     1      29.345  32.017 -22.422  1.00  0.00     0.203 HD
ENDROOT
BRANCH   4  10
HETATM   10  O1  UNL     1      29.315  29.682 -17.876  1.00  0.00    -0.293 OA
BRANCH  10  11
HETATM   11  C3  UNL     1      28.171  29.869 -17.066  1.00  0.00     0.379 C 
BRANCH  11  12
HETATM   12  O2  UNL     1      27.830  28.627 -16.540  1.00  0.00    -0.261 OA
BRANCH  12  13
HETATM   13  N3  UNL     1      26.942  28.063 -17.386  1.00  0.00    -0.309 N 
ATOM     14  H32 UNL     1      26.589  27.108 -17.326  1.00  0.00     0.184 HD
ATOM     15  H31 UNL     1      26.698  28.767 -18.083  1.00  0.00     0.184 HD
ENDBRANCH  12  13
ENDBRANCH  11  12
ENDBRANCH  10  11
ENDBRANCH   4  10
BRANCH   1  16
HETATM   16  N1  UNL     1      31.540  32.149 -21.234  1.00  0.00    -0.234 N 
ATOM     17  H12 UNL     1      32.345  32.275 -20.621  1.00  0.00     0.174 HD
ATOM     18  H11 UNL     1      31.602  32.497 -22.190  1.00  0.00     0.174 HD
ENDBRANCH   1  16
BRANCH   7  19
HETATM   19  N5  UNL     1      27.200  30.965 -21.777  1.00  0.00    -0.234 N 
ATOM     20  H52 UNL     1      27.214  31.595 -22.580  1.00  0.00     0.174 HD
ATOM     21  H51 UNL     1      26.390  30.381 -21.570  1.00  0.00     0.174 HD
ENDBRANCH   7  19
TORSDOF 6
ENDMDL
