MODEL 1
REMARK VINA RESULT: -6.811519808      0.000      0.000
REMARK  4 active torsions:
REMARK  status: ('A' for Active; 'I' for Inactive)
REMARK    1  A    between atoms: N1_1  and  C1_4 
REMARK    2  A    between atoms: N6_15  and  C4_16 
REMARK    3  A    between atoms: C4_16  and  C5_17 
REMARK    4  A    between atoms: C5_17  and  O1_18 
ROOT
HETATM    1  C1  UNL     1      28.249  30.028 -18.492  1.00  0.00     0.146 A 
HETATM    2  N2  UNL     1      28.422  29.863 -17.173  1.00  0.00    -0.282 N 
ATOM      3  H2  UNL     1      29.014  30.447 -16.582  1.00  0.00     0.188 HD
HETATM    4  N3  UNL     1      27.707  28.821 -16.745  1.00  0.00    -0.281 N 
ATOM      5  H3  UNL     1      27.674  28.493 -15.779  1.00  0.00     0.188 HD
HETATM    6  C2  UNL     1      27.038  28.265 -17.768  1.00  0.00     0.170 A 
HETATM    7  C3  UNL     1      27.380  29.027 -18.874  1.00  0.00     0.141 A 
HETATM    8  N4  UNL     1      26.706  28.465 -19.894  1.00  0.00    -0.279 N 
ATOM      9  H4  UNL     1      26.726  28.778 -20.866  1.00  0.00     0.189 HD
HETATM   10  N5  UNL     1      26.008  27.432 -19.421  1.00  0.00    -0.238 N 
ATOM     11  H5  UNL     1      25.410  26.832 -19.990  1.00  0.00     0.208 HD
HETATM   12  N6  UNL     1      26.190  27.286 -18.133  1.00  0.00    -0.257 N 
ENDROOT
BRANCH  12  13
HETATM   13  C4  UNL     1      25.580  26.262 -17.306  1.00  0.00     0.178 C 
BRANCH  13  14
HETATM   14  C5  UNL     1      26.610  25.678 -16.328  1.00  0.00     0.186 C 
BRANCH  14  15
HETATM   15  O1  UNL     1      26.363  26.206 -15.069  1.00  0.00    -0.399 OA
ATOM     16  H1  UNL     1      26.593  25.551 -14.421  1.00  0.00     0.209 HD
ENDBRANCH  14  15
ENDBRANCH  13  14
ENDBRANCH  12  13
BRANCH   1  17
HETATM   17  N1  UNL     1      28.793  30.940 -19.222  1.00  0.00    -0.382 N 
ATOM     18  H12 UNL     1      28.362  31.773 -19.624  1.00  0.00     0.157 HD
ATOM     19  H11 UNL     1      29.769  30.972 -19.518  1.00  0.00     0.157 HD
ENDBRANCH   1  17
TORSDOF 4
ENDMDL
MODEL 2
REMARK VINA RESULT: -6.688883849      0.797      2.079
REMARK  4 active torsions:
REMARK  status: ('A' for Active; 'I' for Inactive)
REMARK    1  A    between atoms: N1_1  and  C1_4 
REMARK    2  A    between atoms: N6_15  and  C4_16 
REMARK    3  A    between atoms: C4_16  and  C5_17 
REMARK    4  A    between atoms: C5_17  and  O1_18 
ROOT
HETATM    1  C1  UNL     1      28.154  30.162 -19.833  1.00  0.00     0.146 A 
HETATM    2  N2  UNL     1      27.383  29.563 -20.751  1.00  0.00    -0.282 N 
ATOM      3  H2  UNL     1      27.329  29.831 -21.734  1.00  0.00     0.188 HD
HETATM    4  N3  UNL     1      26.695  28.567 -20.192  1.00  0.00    -0.281 N 
ATOM      5  H3  UNL     1      26.038  27.962 -20.686  1.00  0.00     0.188 HD
HETATM    6  C2  UNL     1      26.991  28.475 -18.885  1.00  0.00     0.170 A 
HETATM    7  C3  UNL     1      27.913  29.483 -18.656  1.00  0.00     0.141 A 
HETATM    8  N4  UNL     1      28.205  29.385 -17.346  1.00  0.00    -0.279 N 
ATOM      9  H4  UNL     1      28.858  29.980 -16.835  1.00  0.00     0.189 HD
HETATM   10  N5  UNL     1      27.497  28.379 -16.830  1.00  0.00    -0.238 N 
ATOM     11  H5  UNL     1      27.533  28.093 -15.851  1.00  0.00     0.208 HD
HETATM   12  N6  UNL     1      26.750  27.808 -17.741  1.00  0.00    -0.257 N 
ENDROOT
BRANCH  12  13
HETATM   13  C4  UNL     1      25.859  26.685 -17.518  1.00  0.00     0.178 C 
BRANCH  13  14
HETATM   14  C5  UNL     1      26.463  25.716 -16.491  1.00  0.00     0.186 C 
BRANCH  14  15
HETATM   15  O1  UNL     1      26.301  26.264 -15.228  1.00  0.00    -0.399 OA
ATOM     16  H1  UNL     1      26.414  25.573 -14.586  1.00  0.00     0.209 HD
ENDBRANCH  14  15
ENDBRANCH  13  14
ENDBRANCH  12  13
BRANCH   1  17
HETATM   17  N1  UNL     1      28.945  31.159 -20.036  1.00  0.00    -0.382 N 
ATOM     18  H12 UNL     1      29.018  31.753 -20.863  1.00  0.00     0.157 HD
ATOM     19  H11 UNL     1      29.640  31.520 -19.383  1.00  0.00     0.157 HD
ENDBRANCH   1  17
TORSDOF 4
ENDMDL
MODEL 3
REMARK VINA RESULT: -6.655470366      1.768      2.522
REMARK  4 active torsions:
REMARK  status: ('A' for Active; 'I' for Inactive)
REMARK    1  A    between atoms: N1_1  and  C1_4 
REMARK    2  A    between atoms: N6_15  and  C4_16 
REMARK    3  A    between atoms: C4_16  and  C5_17 
REMARK    4  A    between atoms: C5_17  and  O1_18 
ROOT
HETATM    1  C1  UNL     1      28.332  30.392 -19.144  1.00  0.00     0.146 A 
HETATM    2  N2  UNL     1      27.847  30.077 -20.353  1.00  0.00    -0.282 N 
ATOM      3  H2  UNL     1      28.025  30.603 -21.209  1.00  0.00     0.188 HD
HETATM    4  N3  UNL     1      27.098  28.977 -20.275  1.00  0.00    -0.281 N 
ATOM      5  H3  UNL     1      26.619  28.540 -21.062  1.00  0.00     0.188 HD
HETATM    6  C2  UNL     1      27.064  28.528 -19.009  1.00  0.00     0.170 A 
HETATM    7  C3  UNL     1      27.844  29.421 -18.293  1.00  0.00     0.141 A 
HETATM    8  N4  UNL     1      27.806  28.966 -17.027  1.00  0.00    -0.279 N 
ATOM      9  H4  UNL     1      28.277  29.388 -16.227  1.00  0.00     0.189 HD
HETATM   10  N5  UNL     1      27.048  27.868 -16.996  1.00  0.00    -0.238 N 
ATOM     11  H5  UNL     1      26.855  27.325 -16.154  1.00  0.00     0.208 HD
HETATM   12  N6  UNL     1      26.583  27.578 -18.185  1.00  0.00    -0.257 N 
ENDROOT
BRANCH  12  13
HETATM   13  C4  UNL     1      25.728  26.451 -18.505  1.00  0.00     0.178 C 
BRANCH  13  14
HETATM   14  C5  UNL     1      24.363  26.601 -17.818  1.00  0.00     0.186 C 
BRANCH  14  15
HETATM   15  O1  UNL     1      23.380  26.592 -18.797  1.00  0.00    -0.399 OA
ATOM     16  H1  UNL     1      23.340  27.458 -19.186  1.00  0.00     0.209 HD
ENDBRANCH  14  15
ENDBRANCH  13  14
ENDBRANCH  12  13
BRANCH   1  17
HETATM   17  N1  UNL     1      29.092  31.394 -18.865  1.00  0.00    -0.382 N 
ATOM     18  H12 UNL     1      29.310  31.792 -17.951  1.00  0.00     0.157 HD
ATOM     19  H11 UNL     1      29.610  31.962 -19.536  1.00  0.00     0.157 HD
ENDBRANCH   1  17
TORSDOF 4
ENDMDL
MODEL 4
REMARK VINA RESULT: -6.584674476      1.565      1.698
REMARK  4 active torsions:
REMARK  status: ('A' for Active; 'I' for Inactive)
REMARK    1  A    between atoms: N1_1  and  C1_4 
REMARK    2  A    between atoms: N6_15  and  C4_16 
REMARK    3  A    between atoms: C4_16  and  C5_17 
REMARK    4  A    between atoms: C5_17  and  O1_18 
ROOT
HETATM    1  C1  UNL     1      28.851  30.595 -18.485  1.00  0.00     0.146 A 
HETATM    2  N2  UNL     1      28.901  30.384 -17.162  1.00  0.00    -0.282 N 
ATOM      3  H2  UNL     1      29.470  30.919 -16.506  1.00  0.00     0.188 HD
HETATM    4  N3  UNL     1      28.099  29.372 -16.830  1.00  0.00    -0.281 N 
ATOM      5  H3  UNL     1      27.965  29.021 -15.881  1.00  0.00     0.188 HD
HETATM    6  C2  UNL     1      27.492  28.882 -17.923  1.00  0.00     0.170 A 
HETATM    7  C3  UNL     1      27.967  29.653 -18.971  1.00  0.00     0.141 A 
HETATM    8  N4  UNL     1      27.355  29.157 -20.062  1.00  0.00    -0.279 N 
ATOM      9  H4  UNL     1      27.475  29.494 -21.018  1.00  0.00     0.189 HD
HETATM   10  N5  UNL     1      26.566  28.151 -19.683  1.00  0.00    -0.238 N 
ATOM     11  H5  UNL     1      25.988  27.601 -20.319  1.00  0.00     0.208 HD
HETATM   12  N6  UNL     1      26.628  27.961 -18.389  1.00  0.00    -0.257 N 
ENDROOT
BRANCH  12  13
HETATM   13  C4  UNL     1      25.896  26.949 -17.649  1.00  0.00     0.178 C 
BRANCH  13  14
HETATM   14  C5  UNL     1      24.964  26.167 -18.586  1.00  0.00     0.186 C 
BRANCH  14  15
HETATM   15  O1  UNL     1      23.715  26.768 -18.558  1.00  0.00    -0.399 OA
ATOM     16  H1  UNL     1      23.082  26.155 -18.912  1.00  0.00     0.209 HD
ENDBRANCH  14  15
ENDBRANCH  13  14
ENDBRANCH  12  13
BRANCH   1  17
HETATM   17  N1  UNL     1      29.503  31.495 -19.137  1.00  0.00    -0.382 N 
ATOM     18  H12 UNL     1      30.472  31.472 -19.456  1.00  0.00     0.157 HD
ATOM     19  H11 UNL     1      29.139  32.396 -19.446  1.00  0.00     0.157 HD
ENDBRANCH   1  17
TORSDOF 4
ENDMDL
MODEL 5
REMARK VINA RESULT: -6.468106205      3.254      5.370
REMARK  4 active torsions:
REMARK  status: ('A' for Active; 'I' for Inactive)
REMARK    1  A    between atoms: N1_1  and  C1_4 
REMARK    2  A    between atoms: N6_15  and  C4_16 
REMARK    3  A    between atoms: C4_16  and  C5_17 
REMARK    4  A    between atoms: C5_17  and  O1_18 
ROOT
HETATM    1  C1  UNL     1      27.143  28.546 -18.297  1.00  0.00     0.146 A 
HETATM    2  N2  UNL     1      26.704  28.304 -19.541  1.00  0.00    -0.282 N 
ATOM      3  H2  UNL     1      26.076  27.544 -19.802  1.00  0.00     0.188 HD
HETATM    4  N3  UNL     1      27.209  29.202 -20.388  1.00  0.00    -0.281 N 
ATOM      5  H3  UNL     1      27.023  29.227 -21.391  1.00  0.00     0.188 HD
HETATM    6  C2  UNL     1      27.997  30.068 -19.730  1.00  0.00     0.170 A 
HETATM    7  C3  UNL     1      27.957  29.655 -18.408  1.00  0.00     0.141 A 
HETATM    8  N4  UNL     1      28.748  30.526 -17.756  1.00  0.00    -0.279 N 
ATOM      9  H4  UNL     1      28.946  30.518 -16.755  1.00  0.00     0.189 HD
HETATM   10  N5  UNL     1      29.229  31.403 -18.639  1.00  0.00    -0.238 N 
ATOM     11  H5  UNL     1      29.858  32.171 -18.404  1.00  0.00     0.208 HD
HETATM   12  N6  UNL     1      28.790  31.150 -19.846  1.00  0.00    -0.257 N 
ENDROOT
BRANCH  12  13
HETATM   13  C4  UNL     1      29.118  31.908 -21.039  1.00  0.00     0.178 C 
BRANCH  13  14
HETATM   14  C5  UNL     1      30.501  31.503 -21.570  1.00  0.00     0.186 C 
BRANCH  14  15
HETATM   15  O1  UNL     1      30.321  30.637 -22.638  1.00  0.00    -0.399 OA
ATOM     16  H1  UNL     1      29.462  30.797 -23.009  1.00  0.00     0.209 HD
ENDBRANCH  14  15
ENDBRANCH  13  14
ENDBRANCH  12  13
BRANCH   1  17
HETATM   17  N1  UNL     1      26.848  27.870 -17.241  1.00  0.00    -0.382 N 
ATOM     18  H12 UNL     1      26.643  26.873 -17.162  1.00  0.00     0.157 HD
ATOM     19  H11 UNL     1      26.772  28.237 -16.293  1.00  0.00     0.157 HD
ENDBRANCH   1  17
TORSDOF 4
ENDMDL
