MODEL 1
REMARK VINA RESULT: -7.845431828      0.000      0.000
REMARK  7 active torsions:
REMARK  status: ('A' for Active; 'I' for Inactive)
REMARK    1  A    between atoms: C4_4  and  N1_5 
REMARK    2  A    between atoms: C10_12  and  C11_13 
REMARK    3  A    between atoms: N3_14  and  N4_16 
REMARK    4  A    between atoms: N4_16  and  C12_18 
REMARK    5  A    between atoms: C12_18  and  N5_20 
REMARK    6  A    between atoms: N5_20  and  C13_22 
REMARK    7  A    between atoms: C13_22  and  C14_23 
ROOT
HETATM    1  C1  UNL     1      22.512   3.758  11.503  1.00  0.00     0.049 C 
HETATM    2  C2  UNL     1      22.736   4.683  10.360  1.00  0.00    -0.047 A 
HETATM    3  C3  UNL     1      21.946   4.593   9.269  1.00  0.00     0.037 A 
HETATM    4  C4  UNL     1      22.138   5.452   8.182  1.00  0.00     0.031 A 
HETATM    5  C7  UNL     1      23.143   6.389   8.240  1.00  0.00     0.053 A 
HETATM    6  C8  UNL     1      23.972   6.496   9.360  1.00  0.00     0.059 A 
HETATM    7  C9  UNL     1      25.006   7.494   9.365  1.00  0.00     0.100 C 
HETATM    8  N2  UNL     1      25.839   8.315   9.341  1.00  0.00    -0.191 NA
HETATM    9  C10 UNL     1      23.749   5.641  10.394  1.00  0.00     0.007 A 
ENDROOT
BRANCH   9  10
HETATM   10  C11 UNL     1      24.564   5.686  11.593  1.00  0.00     0.120 C 
HETATM   11  N3  UNL     1      24.316   6.544  12.505  1.00  0.00    -0.309 N 
ATOM     12  H3  UNL     1      23.543   7.201  12.394  1.00  0.00     0.186 HD
BRANCH  11  13
HETATM   13  N4  UNL     1      25.102   6.579  13.648  1.00  0.00    -0.277 N 
ATOM     14  H4  UNL     1      26.088   6.834  13.594  1.00  0.00     0.189 HD
BRANCH  13  15
HETATM   15  C12 UNL     1      24.505   6.253  14.894  1.00  0.00     0.186 C 
HETATM   16  S1  UNL     1      22.888   6.201  15.031  1.00  0.00    -0.040 SA
BRANCH  15  17
HETATM   17  N5  UNL     1      25.293   5.965  16.049  1.00  0.00    -0.366 N 
ATOM     18  H5  UNL     1      26.310   6.040  16.020  1.00  0.00     0.161 HD
BRANCH  17  19
HETATM   19  C13 UNL     1      24.616   5.566  17.258  1.00  0.00     0.126 C 
BRANCH  19  20
HETATM   20  C14 UNL     1      24.862   6.590  18.316  1.00  0.00     0.006 C 
HETATM   21  C15 UNL     1      26.294   6.711  18.710  1.00  0.00     0.034 C 
HETATM   22  C16 UNL     1      26.692   5.505  19.545  1.00  0.00     0.232 C 
HETATM   23  N6  UNL     1      25.837   5.300  20.674  1.00  0.00    -0.075 N 
HETATM   24  C17 UNL     1      24.441   5.176  20.303  1.00  0.00     0.232 C 
ATOM     25  H62 UNL     1      26.143   4.496  21.223  1.00  0.00     0.277 HD
ATOM     26  H61 UNL     1      25.967   6.034  21.369  1.00  0.00     0.277 HD
HETATM   27  C18 UNL     1      23.954   6.346  19.503  1.00  0.00     0.034 C 
ENDBRANCH  19  20
ENDBRANCH  17  19
ENDBRANCH  15  17
ENDBRANCH  13  15
ENDBRANCH  11  13
ENDBRANCH   9  10
BRANCH   4  28
HETATM   28  N1  UNL     1      21.313   5.363   7.038  1.00  0.00    -0.390 N 
HETATM   29  C5  UNL     1      21.856   5.397   5.704  1.00  0.00     0.149 C 
HETATM   30  C6  UNL     1      19.888   5.236   7.199  1.00  0.00     0.149 C 
ENDBRANCH   4  28
TORSDOF 7
ENDMDL
MODEL 2
REMARK VINA RESULT: -7.757587554      0.701      1.239
REMARK  7 active torsions:
REMARK  status: ('A' for Active; 'I' for Inactive)
REMARK    1  A    between atoms: C4_4  and  N1_5 
REMARK    2  A    between atoms: C10_12  and  C11_13 
REMARK    3  A    between atoms: N3_14  and  N4_16 
REMARK    4  A    between atoms: N4_16  and  C12_18 
REMARK    5  A    between atoms: C12_18  and  N5_20 
REMARK    6  A    between atoms: N5_20  and  C13_22 
REMARK    7  A    between atoms: C13_22  and  C14_23 
ROOT
HETATM    1  C1  UNL     1      22.415   3.745  11.397  1.00  0.00     0.049 C 
HETATM    2  C2  UNL     1      22.673   4.677  10.268  1.00  0.00    -0.047 A 
HETATM    3  C3  UNL     1      21.908   4.604   9.158  1.00  0.00     0.037 A 
HETATM    4  C4  UNL     1      22.133   5.470   8.083  1.00  0.00     0.031 A 
HETATM    5  C7  UNL     1      23.144   6.398   8.173  1.00  0.00     0.053 A 
HETATM    6  C8  UNL     1      23.947   6.488   9.312  1.00  0.00     0.059 A 
HETATM    7  C9  UNL     1      24.990   7.477   9.350  1.00  0.00     0.100 C 
HETATM    8  N2  UNL     1      25.830   8.291   9.352  1.00  0.00    -0.191 NA
HETATM    9  C10 UNL     1      23.693   5.626  10.334  1.00  0.00     0.007 A 
ENDROOT
BRANCH   9  10
HETATM   10  C11 UNL     1      24.480   5.655  11.551  1.00  0.00     0.120 C 
HETATM   11  N3  UNL     1      24.258   6.545  12.438  1.00  0.00    -0.309 N 
ATOM     12  H3  UNL     1      23.526   7.241  12.293  1.00  0.00     0.186 HD
BRANCH  11  13
HETATM   13  N4  UNL     1      25.017   6.564  13.600  1.00  0.00    -0.277 N 
ATOM     14  H4  UNL     1      25.962   6.947  13.598  1.00  0.00     0.189 HD
BRANCH  13  15
HETATM   15  C12 UNL     1      24.451   6.038  14.790  1.00  0.00     0.186 C 
HETATM   16  S1  UNL     1      22.887   6.308  15.135  1.00  0.00    -0.040 SA
BRANCH  15  17
HETATM   17  N5  UNL     1      25.224   5.267  15.710  1.00  0.00    -0.366 N 
ATOM     18  H5  UNL     1      25.980   4.666  15.382  1.00  0.00     0.161 HD
BRANCH  17  19
HETATM   19  C13 UNL     1      24.910   5.359  17.114  1.00  0.00     0.126 C 
BRANCH  19  20
HETATM   20  C14 UNL     1      26.006   6.092  17.813  1.00  0.00     0.006 C 
HETATM   21  C15 UNL     1      26.402   5.480  19.113  1.00  0.00     0.034 C 
HETATM   22  C16 UNL     1      25.325   5.755  20.150  1.00  0.00     0.232 C 
HETATM   23  N6  UNL     1      25.018   7.147  20.280  1.00  0.00    -0.075 N 
HETATM   24  C17 UNL     1      24.627   7.753  19.022  1.00  0.00     0.232 C 
ATOM     25  H62 UNL     1      24.308   7.300  20.996  1.00  0.00     0.277 HD
ATOM     26  H61 UNL     1      25.793   7.655  20.705  1.00  0.00     0.277 HD
HETATM   27  C18 UNL     1      25.654   7.558  17.948  1.00  0.00     0.034 C 
ENDBRANCH  19  20
ENDBRANCH  17  19
ENDBRANCH  15  17
ENDBRANCH  13  15
ENDBRANCH  11  13
ENDBRANCH   9  10
BRANCH   4  28
HETATM   28  N1  UNL     1      21.334   5.398   6.920  1.00  0.00    -0.390 N 
HETATM   29  C5  UNL     1      19.897   5.322   6.988  1.00  0.00     0.149 C 
HETATM   30  C6  UNL     1      21.963   5.398   5.625  1.00  0.00     0.149 C 
ENDBRANCH   4  28
TORSDOF 7
ENDMDL
MODEL 3
REMARK VINA RESULT: -7.386702013      0.791      1.225
REMARK  7 active torsions:
REMARK  status: ('A' for Active; 'I' for Inactive)
REMARK    1  A    between atoms: C4_4  and  N1_5 
REMARK    2  A    between atoms: C10_12  and  C11_13 
REMARK    3  A    between atoms: N3_14  and  N4_16 
REMARK    4  A    between atoms: N4_16  and  C12_18 
REMARK    5  A    between atoms: C12_18  and  N5_20 
REMARK    6  A    between atoms: N5_20  and  C13_22 
REMARK    7  A    between atoms: C13_22  and  C14_23 
ROOT
HETATM    1  C1  UNL     1      22.260   3.809  11.209  1.00  0.00     0.049 C 
HETATM    2  C2  UNL     1      22.571   4.745  10.097  1.00  0.00    -0.047 A 
HETATM    3  C3  UNL     1      21.832   4.704   8.968  1.00  0.00     0.037 A 
HETATM    4  C4  UNL     1      22.106   5.575   7.909  1.00  0.00     0.031 A 
HETATM    5  C7  UNL     1      23.139   6.474   8.033  1.00  0.00     0.053 A 
HETATM    6  C8  UNL     1      23.916   6.531   9.192  1.00  0.00     0.059 A 
HETATM    7  C9  UNL     1      24.983   7.491   9.266  1.00  0.00     0.100 C 
HETATM    8  N2  UNL     1      25.844   8.283   9.298  1.00  0.00    -0.191 NA
HETATM    9  C10 UNL     1      23.614   5.666  10.198  1.00  0.00     0.007 A 
ENDROOT
BRANCH   9  10
HETATM   10  C11 UNL     1      24.371   5.660  11.435  1.00  0.00     0.120 C 
HETATM   11  N3  UNL     1      24.176   6.568  12.310  1.00  0.00    -0.309 N 
ATOM     12  H3  UNL     1      23.486   7.301  12.143  1.00  0.00     0.186 HD
BRANCH  11  13
HETATM   13  N4  UNL     1      24.906   6.553  13.491  1.00  0.00    -0.277 N 
ATOM     14  H4  UNL     1      25.854   6.929  13.521  1.00  0.00     0.189 HD
BRANCH  13  15
HETATM   15  C12 UNL     1      24.307   6.005  14.655  1.00  0.00     0.186 C 
HETATM   16  S1  UNL     1      22.707   6.152  14.890  1.00  0.00    -0.040 SA
BRANCH  15  17
HETATM   17  N5  UNL     1      25.078   5.320  15.642  1.00  0.00    -0.366 N 
ATOM     18  H5  UNL     1      25.236   4.315  15.576  1.00  0.00     0.161 HD
BRANCH  17  19
HETATM   19  C13 UNL     1      25.626   6.084  16.735  1.00  0.00     0.126 C 
BRANCH  19  20
HETATM   20  C14 UNL     1      24.953   5.675  18.002  1.00  0.00     0.006 C 
HETATM   21  C15 UNL     1      23.970   6.675  18.508  1.00  0.00     0.034 C 
HETATM   22  C16 UNL     1      24.714   7.868  19.086  1.00  0.00     0.232 C 
HETATM   23  N6  UNL     1      25.670   7.499  20.085  1.00  0.00    -0.075 N 
HETATM   24  C17 UNL     1      26.635   6.530  19.605  1.00  0.00     0.232 C 
ATOM     25  H62 UNL     1      26.136   8.322  20.467  1.00  0.00     0.277 HD
ATOM     26  H61 UNL     1      25.206   7.165  20.930  1.00  0.00     0.277 HD
HETATM   27  C18 UNL     1      25.984   5.301  19.046  1.00  0.00     0.034 C 
ENDBRANCH  19  20
ENDBRANCH  17  19
ENDBRANCH  15  17
ENDBRANCH  13  15
ENDBRANCH  11  13
ENDBRANCH   9  10
BRANCH   4  28
HETATM   28  N1  UNL     1      21.334   5.536   6.726  1.00  0.00    -0.390 N 
HETATM   29  C5  UNL     1      21.943   5.470   5.422  1.00  0.00     0.149 C 
HETATM   30  C6  UNL     1      19.898   5.564   6.814  1.00  0.00     0.149 C 
ENDBRANCH   4  28
TORSDOF 7
ENDMDL
MODEL 4
REMARK VINA RESULT: -7.363503084      1.318      1.498
REMARK  7 active torsions:
REMARK  status: ('A' for Active; 'I' for Inactive)
REMARK    1  A    between atoms: C4_4  and  N1_5 
REMARK    2  A    between atoms: C10_12  and  C11_13 
REMARK    3  A    between atoms: N3_14  and  N4_16 
REMARK    4  A    between atoms: N4_16  and  C12_18 
REMARK    5  A    between atoms: C12_18  and  N5_20 
REMARK    6  A    between atoms: N5_20  and  C13_22 
REMARK    7  A    between atoms: C13_22  and  C14_23 
ROOT
HETATM    1  C1  UNL     1      22.515   3.279  11.152  1.00  0.00     0.049 C 
HETATM    2  C2  UNL     1      22.865   4.547  10.461  1.00  0.00    -0.047 A 
HETATM    3  C3  UNL     1      22.542   4.705   9.159  1.00  0.00     0.037 A 
HETATM    4  C4  UNL     1      22.862   5.890   8.488  1.00  0.00     0.031 A 
HETATM    5  C7  UNL     1      23.510   6.891   9.172  1.00  0.00     0.053 A 
HETATM    6  C8  UNL     1      23.853   6.746  10.518  1.00  0.00     0.059 A 
HETATM    7  C9  UNL     1      24.530   7.827  11.182  1.00  0.00     0.100 C 
HETATM    8  N2  UNL     1      25.080   8.723  11.696  1.00  0.00    -0.191 NA
HETATM    9  C10 UNL     1      23.523   5.578  11.132  1.00  0.00     0.007 A 
ENDROOT
BRANCH   9  10
HETATM   10  C11 UNL     1      23.843   5.348  12.527  1.00  0.00     0.120 C 
HETATM   11  N3  UNL     1      25.037   5.058  12.871  1.00  0.00    -0.309 N 
ATOM     12  H3  UNL     1      25.771   4.987  12.166  1.00  0.00     0.186 HD
BRANCH  11  13
HETATM   13  N4  UNL     1      25.333   4.839  14.210  1.00  0.00    -0.277 N 
ATOM     14  H4  UNL     1      25.649   3.924  14.530  1.00  0.00     0.189 HD
BRANCH  13  15
HETATM   15  C12 UNL     1      25.188   5.916  15.123  1.00  0.00     0.186 C 
HETATM   16  S1  UNL     1      26.038   7.283  14.910  1.00  0.00    -0.040 SA
BRANCH  15  17
HETATM   17  N5  UNL     1      24.305   5.834  16.242  1.00  0.00    -0.366 N 
ATOM     18  H5  UNL     1      23.318   6.076  16.149  1.00  0.00     0.161 HD
BRANCH  17  19
HETATM   19  C13 UNL     1      24.842   5.401  17.508  1.00  0.00     0.126 C 
BRANCH  19  20
HETATM   20  C14 UNL     1      24.585   6.455  18.533  1.00  0.00     0.006 C 
HETATM   21  C15 UNL     1      25.779   7.289  18.847  1.00  0.00     0.034 C 
HETATM   22  C16 UNL     1      26.759   6.477  19.679  1.00  0.00     0.232 C 
HETATM   23  N6  UNL     1      26.165   5.921  20.856  1.00  0.00    -0.075 N 
HETATM   24  C17 UNL     1      25.005   5.103  20.564  1.00  0.00     0.232 C 
ATOM     25  H62 UNL     1      26.852   5.401  21.402  1.00  0.00     0.277 HD
ATOM     26  H61 UNL     1      25.938   6.651  21.531  1.00  0.00     0.277 HD
HETATM   27  C18 UNL     1      23.967   5.841  19.773  1.00  0.00     0.034 C 
ENDBRANCH  19  20
ENDBRANCH  17  19
ENDBRANCH  15  17
ENDBRANCH  13  15
ENDBRANCH  11  13
ENDBRANCH   9  10
BRANCH   4  28
HETATM   28  N1  UNL     1      22.525   6.060   7.126  1.00  0.00    -0.390 N 
HETATM   29  C5  UNL     1      21.529   5.243   6.482  1.00  0.00     0.149 C 
HETATM   30  C6  UNL     1      23.190   7.074   6.352  1.00  0.00     0.149 C 
ENDBRANCH   4  28
TORSDOF 7
ENDMDL
MODEL 5
REMARK VINA RESULT: -7.324701078      2.028      2.931
REMARK  7 active torsions:
REMARK  status: ('A' for Active; 'I' for Inactive)
REMARK    1  A    between atoms: C4_4  and  N1_5 
REMARK    2  A    between atoms: C10_12  and  C11_13 
REMARK    3  A    between atoms: N3_14  and  N4_16 
REMARK    4  A    between atoms: N4_16  and  C12_18 
REMARK    5  A    between atoms: C12_18  and  N5_20 
REMARK    6  A    between atoms: N5_20  and  C13_22 
REMARK    7  A    between atoms: C13_22  and  C14_23 
ROOT
HETATM    1  C1  UNL     1      23.597   4.013  12.055  1.00  0.00     0.049 C 
HETATM    2  C2  UNL     1      23.741   5.424  11.607  1.00  0.00    -0.047 A 
HETATM    3  C3  UNL     1      23.945   5.688  10.298  1.00  0.00     0.037 A 
HETATM    4  C4  UNL     1      24.084   7.007   9.855  1.00  0.00     0.031 A 
HETATM    5  C7  UNL     1      24.008   8.031  10.768  1.00  0.00     0.053 A 
HETATM    6  C8  UNL     1      23.798   7.778  12.126  1.00  0.00     0.059 A 
HETATM    7  C9  UNL     1      23.728   8.889  13.036  1.00  0.00     0.100 C 
HETATM    8  N2  UNL     1      23.676   9.812  13.754  1.00  0.00    -0.191 NA
HETATM    9  C10 UNL     1      23.669   6.481  12.514  1.00  0.00     0.007 A 
ENDROOT
BRANCH   9  10
HETATM   10  C11 UNL     1      23.448   6.133  13.905  1.00  0.00     0.120 C 
HETATM   11  N3  UNL     1      22.260   6.042  14.362  1.00  0.00    -0.309 N 
ATOM     12  H3  UNL     1      21.461   6.214  13.751  1.00  0.00     0.186 HD
BRANCH  11  13
HETATM   13  N4  UNL     1      22.060   5.708  15.695  1.00  0.00    -0.277 N 
ATOM     14  H4  UNL     1      22.084   4.735  15.997  1.00  0.00     0.189 HD
BRANCH  13  15
HETATM   15  C12 UNL     1      21.822   6.751  16.628  1.00  0.00     0.186 C 
HETATM   16  S1  UNL     1      20.707   7.887  16.311  1.00  0.00    -0.040 SA
BRANCH  15  17
HETATM   17  N5  UNL     1      22.545   6.835  17.857  1.00  0.00    -0.366 N 
ATOM     18  H5  UNL     1      22.059   6.989  18.740  1.00  0.00     0.161 HD
BRANCH  17  19
HETATM   19  C13 UNL     1      23.980   6.695  17.818  1.00  0.00     0.126 C 
BRANCH  19  20
HETATM   20  C14 UNL     1      24.554   7.196  19.101  1.00  0.00     0.006 C 
HETATM   21  C15 UNL     1      26.042   7.271  19.103  1.00  0.00     0.034 C 
HETATM   22  C16 UNL     1      26.618   5.867  19.195  1.00  0.00     0.232 C 
HETATM   23  N6  UNL     1      26.113   5.128  20.312  1.00  0.00    -0.075 N 
HETATM   24  C17 UNL     1      24.666   5.045  20.320  1.00  0.00     0.232 C 
ATOM     25  H62 UNL     1      26.534   4.200  20.357  1.00  0.00     0.277 HD
ATOM     26  H61 UNL     1      26.462   5.510  21.191  1.00  0.00     0.277 HD
HETATM   27  C18 UNL     1      24.014   6.393  20.266  1.00  0.00     0.034 C 
ENDBRANCH  19  20
ENDBRANCH  17  19
ENDBRANCH  15  17
ENDBRANCH  13  15
ENDBRANCH  11  13
ENDBRANCH   9  10
BRANCH   4  28
HETATM   28  N1  UNL     1      24.297   7.288   8.486  1.00  0.00    -0.390 N 
HETATM   29  C5  UNL     1      23.328   6.940   7.479  1.00  0.00     0.149 C 
HETATM   30  C6  UNL     1      25.514   7.938   8.076  1.00  0.00     0.149 C 
ENDBRANCH   4  28
TORSDOF 7
ENDMDL
