MODEL 1
REMARK VINA RESULT: -7.514101651      0.000      0.000
REMARK  7 active torsions:
REMARK  status: ('A' for Active; 'I' for Inactive)
REMARK    1  A    between atoms: O1_1  and  C1_3 
REMARK    2  A    between atoms: C1_3  and  C2_4 
REMARK    3  A    between atoms: C1_3  and  C11_22 
REMARK    4  A    between atoms: C2_4  and  N1_5 
REMARK    5  A    between atoms: C4_12  and  N4_13 
REMARK    6  A    between atoms: N4_13  and  C5_15 
REMARK    7  A    between atoms: C11_22  and  N5_23 
ROOT
HETATM    1  N1  UNL     1      25.291   5.765  16.621  1.00  0.00    -0.367 N 
ATOM      2  H1  UNL     1      25.638   4.825  16.427  1.00  0.00     0.161 HD
HETATM    3  C3  UNL     1      25.425   6.215  17.820  1.00  0.00     0.162 A 
HETATM    4  N2  UNL     1      25.087   7.370  18.393  1.00  0.00    -0.278 N 
ATOM      5  H2  UNL     1      24.612   8.092  17.851  1.00  0.00     0.189 HD
HETATM    6  N3  UNL     1      25.363   7.567  19.621  1.00  0.00    -0.278 N 
ATOM      7  H3  UNL     1      25.109   8.447  20.069  1.00  0.00     0.189 HD
HETATM    8  C4  UNL     1      25.984   6.617  20.316  1.00  0.00     0.163 A 
HETATM    9  S1  UNL     1      26.176   5.388  19.146  1.00  0.00    -0.016 SA
ENDROOT
BRANCH   1  10
HETATM   10  C2  UNL     1      24.698   6.479  15.554  1.00  0.00     0.159 C 
BRANCH  10  11
HETATM   11  C1  UNL     1      25.213   6.092  14.222  1.00  0.00     0.174 C 
BRANCH  11  12
HETATM   12  O1  UNL     1      26.624   6.046  14.243  1.00  0.00    -0.389 OA
ATOM     13  H1  UNL     1      26.981   6.816  13.817  1.00  0.00     0.210 HD
ENDBRANCH  11  12
BRANCH  11  14
HETATM   14  C11 UNL     1      24.719   6.845  13.035  1.00  0.00     0.091 C 
BRANCH  14  15
HETATM   15  N5  UNL     1      24.009   6.073  12.120  1.00  0.00    -0.391 N 
HETATM   16  C12 UNL     1      24.263   6.011  10.756  1.00  0.00     0.122 C 
HETATM   17  C13 UNL     1      22.979   5.943   9.910  1.00  0.00     0.020 C 
HETATM   18  C14 UNL     1      22.607   4.510   9.603  1.00  0.00     0.002 C 
HETATM   19  C15 UNL     1      22.101   3.806  10.845  1.00  0.00     0.002 C 
HETATM   20  C16 UNL     1      23.172   3.793  11.930  1.00  0.00     0.020 C 
HETATM   21  C17 UNL     1      23.182   5.066  12.703  1.00  0.00     0.122 C 
ENDBRANCH  14  15
ENDBRANCH  11  14
ENDBRANCH  10  11
ENDBRANCH   1  10
BRANCH   8  22
HETATM   22  N4  UNL     1      26.370   6.633  21.577  1.00  0.00    -0.365 N 
ATOM     23  H4  UNL     1      25.991   5.956  22.239  1.00  0.00     0.162 HD
BRANCH  22  24
HETATM   24  C5  UNL     1      27.349   7.635  22.019  1.00  0.00     0.083 C 
HETATM   25  C6  UNL     1      28.419   7.763  20.997  1.00  0.00     0.025 C 
HETATM   26  C7  UNL     1      29.679   8.242  21.736  1.00  0.00     0.002 C 
HETATM   27  C8  UNL     1      30.116   6.995  22.523  1.00  0.00     0.000 C 
HETATM   28  C9  UNL     1      29.135   6.799  23.619  1.00  0.00     0.002 C 
HETATM   29  C10 UNL     1      27.762   7.306  23.400  1.00  0.00     0.025 C 
ENDBRANCH  22  24
ENDBRANCH   8  22
TORSDOF 7
ENDMDL
MODEL 2
REMARK VINA RESULT: -7.254992050      3.238      8.446
REMARK  7 active torsions:
REMARK  status: ('A' for Active; 'I' for Inactive)
REMARK    1  A    between atoms: O1_1  and  C1_3 
REMARK    2  A    between atoms: C1_3  and  C2_4 
REMARK    3  A    between atoms: C1_3  and  C11_22 
REMARK    4  A    between atoms: C2_4  and  N1_5 
REMARK    5  A    between atoms: C4_12  and  N4_13 
REMARK    6  A    between atoms: N4_13  and  C5_15 
REMARK    7  A    between atoms: C11_22  and  N5_23 
ROOT
HETATM    1  N1  UNL     1      26.206   6.989  17.508  1.00  0.00    -0.367 N 
ATOM      2  H1  UNL     1      26.641   7.910  17.460  1.00  0.00     0.161 HD
HETATM    3  C3  UNL     1      25.850   6.438  16.400  1.00  0.00     0.162 A 
HETATM    4  N2  UNL     1      25.269   5.272  16.117  1.00  0.00    -0.278 N 
ATOM      5  H2  UNL     1      25.006   4.634  16.869  1.00  0.00     0.189 HD
HETATM    6  N3  UNL     1      25.044   4.959  14.903  1.00  0.00    -0.278 N 
ATOM      7  H3  UNL     1      24.600   4.070  14.676  1.00  0.00     0.189 HD
HETATM    8  C4  UNL     1      25.393   5.800  13.932  1.00  0.00     0.163 A 
HETATM    9  S1  UNL     1      26.072   7.097  14.811  1.00  0.00    -0.016 SA
ENDROOT
BRANCH   1  10
HETATM   10  C2  UNL     1      26.036   6.409  18.787  1.00  0.00     0.159 C 
BRANCH  10  11
HETATM   11  C1  UNL     1      24.967   7.043  19.589  1.00  0.00     0.174 C 
BRANCH  11  12
HETATM   12  O1  UNL     1      25.197   6.819  20.964  1.00  0.00    -0.389 OA
ATOM     13  H1  UNL     1      24.706   7.446  21.483  1.00  0.00     0.210 HD
ENDBRANCH  11  12
BRANCH  11  14
HETATM   14  C11 UNL     1      23.552   6.748  19.228  1.00  0.00     0.091 C 
BRANCH  14  15
HETATM   15  N5  UNL     1      22.998   7.631  18.306  1.00  0.00    -0.391 N 
HETATM   16  C12 UNL     1      23.381   8.954  18.133  1.00  0.00     0.122 C 
HETATM   17  C13 UNL     1      22.190   9.891  17.858  1.00  0.00     0.020 C 
HETATM   18  C14 UNL     1      21.974  10.073  16.373  1.00  0.00     0.002 C 
HETATM   19  C15 UNL     1      21.418   8.808  15.751  1.00  0.00     0.002 C 
HETATM   20  C16 UNL     1      22.382   7.644  15.948  1.00  0.00     0.020 C 
HETATM   21  C17 UNL     1      22.211   7.013  17.286  1.00  0.00     0.122 C 
ENDBRANCH  14  15
ENDBRANCH  11  14
ENDBRANCH  10  11
ENDBRANCH   1  10
BRANCH   8  22
HETATM   22  N4  UNL     1      25.265   5.656  12.628  1.00  0.00    -0.365 N 
ATOM     23  H4  UNL     1      26.038   5.291  12.072  1.00  0.00     0.162 HD
BRANCH  22  24
HETATM   24  C5  UNL     1      23.998   6.026  11.982  1.00  0.00     0.083 C 
HETATM   25  C6  UNL     1      23.623   4.979  10.998  1.00  0.00     0.025 C 
HETATM   26  C7  UNL     1      22.756   5.668   9.931  1.00  0.00     0.002 C 
HETATM   27  C8  UNL     1      23.775   6.512   9.148  1.00  0.00     0.000 C 
HETATM   28  C9  UNL     1      24.187   7.635  10.027  1.00  0.00     0.002 C 
HETATM   29  C10 UNL     1      24.115   7.415  11.489  1.00  0.00     0.025 C 
ENDBRANCH  22  24
ENDBRANCH   8  22
TORSDOF 7
ENDMDL
MODEL 3
REMARK VINA RESULT: -7.195007529      3.037      8.566
REMARK  7 active torsions:
REMARK  status: ('A' for Active; 'I' for Inactive)
REMARK    1  A    between atoms: O1_1  and  C1_3 
REMARK    2  A    between atoms: C1_3  and  C2_4 
REMARK    3  A    between atoms: C1_3  and  C11_22 
REMARK    4  A    between atoms: C2_4  and  N1_5 
REMARK    5  A    between atoms: C4_12  and  N4_13 
REMARK    6  A    between atoms: N4_13  and  C5_15 
REMARK    7  A    between atoms: C11_22  and  N5_23 
ROOT
HETATM    1  N1  UNL     1      26.572   6.439  17.710  1.00  0.00    -0.367 N 
ATOM      2  H1  UNL     1      27.354   7.090  17.646  1.00  0.00     0.161 HD
HETATM    3  C3  UNL     1      25.910   6.194  16.633  1.00  0.00     0.162 A 
HETATM    4  N2  UNL     1      24.859   5.414  16.378  1.00  0.00    -0.278 N 
ATOM      5  H2  UNL     1      24.421   4.881  17.129  1.00  0.00     0.189 HD
HETATM    6  N3  UNL     1      24.406   5.338  15.189  1.00  0.00    -0.278 N 
ATOM      7  H3  UNL     1      23.603   4.745  14.983  1.00  0.00     0.189 HD
HETATM    8  C4  UNL     1      24.988   6.038  14.219  1.00  0.00     0.163 A 
HETATM    9  S1  UNL     1      26.240   6.840  15.058  1.00  0.00    -0.016 SA
ENDROOT
BRANCH   1  10
HETATM   10  C2  UNL     1      26.292   5.870  18.974  1.00  0.00     0.159 C 
BRANCH  10  11
HETATM   11  C1  UNL     1      25.461   6.733  19.843  1.00  0.00     0.174 C 
BRANCH  11  12
HETATM   12  O1  UNL     1      25.987   6.752  21.153  1.00  0.00    -0.389 OA
ATOM     13  H1  UNL     1      25.322   7.039  21.767  1.00  0.00     0.210 HD
ENDBRANCH  11  12
BRANCH  11  14
HETATM   14  C11 UNL     1      23.990   6.498  19.860  1.00  0.00     0.091 C 
BRANCH  14  15
HETATM   15  N5  UNL     1      23.285   7.196  18.884  1.00  0.00    -0.391 N 
HETATM   16  C12 UNL     1      21.965   6.959  18.525  1.00  0.00     0.122 C 
HETATM   17  C13 UNL     1      21.725   7.089  17.010  1.00  0.00     0.020 C 
HETATM   18  C14 UNL     1      21.258   8.481  16.651  1.00  0.00     0.002 C 
HETATM   19  C15 UNL     1      22.389   9.480  16.789  1.00  0.00     0.002 C 
HETATM   20  C16 UNL     1      22.907   9.510  18.223  1.00  0.00     0.020 C 
HETATM   21  C17 UNL     1      23.892   8.422  18.472  1.00  0.00     0.122 C 
ENDBRANCH  14  15
ENDBRANCH  11  14
ENDBRANCH  10  11
ENDBRANCH   1  10
BRANCH   8  22
HETATM   22  N4  UNL     1      24.686   6.082  12.935  1.00  0.00    -0.365 N 
ATOM     23  H4  UNL     1      25.354   6.457  12.262  1.00  0.00     0.162 HD
BRANCH  22  24
HETATM   24  C5  UNL     1      23.379   5.585  12.485  1.00  0.00     0.083 C 
HETATM   25  C6  UNL     1      23.525   4.193  11.989  1.00  0.00     0.025 C 
HETATM   26  C7  UNL     1      22.402   3.970  10.963  1.00  0.00     0.002 C 
HETATM   27  C8  UNL     1      22.863   4.805   9.756  1.00  0.00     0.000 C 
HETATM   28  C9  UNL     1      22.709   6.234  10.123  1.00  0.00     0.002 C 
HETATM   29  C10 UNL     1      22.796   6.580  11.560  1.00  0.00     0.025 C 
ENDBRANCH  22  24
ENDBRANCH   8  22
TORSDOF 7
ENDMDL
MODEL 4
REMARK VINA RESULT: -7.162206643      3.232      5.201
REMARK  7 active torsions:
REMARK  status: ('A' for Active; 'I' for Inactive)
REMARK    1  A    between atoms: O1_1  and  C1_3 
REMARK    2  A    between atoms: C1_3  and  C2_4 
REMARK    3  A    between atoms: C1_3  and  C11_22 
REMARK    4  A    between atoms: C2_4  and  N1_5 
REMARK    5  A    between atoms: C4_12  and  N4_13 
REMARK    6  A    between atoms: N4_13  and  C5_15 
REMARK    7  A    between atoms: C11_22  and  N5_23 
ROOT
HETATM    1  N1  UNL     1      22.279   5.041  12.485  1.00  0.00    -0.367 N 
ATOM      2  H1  UNL     1      21.503   5.684  12.641  1.00  0.00     0.161 HD
HETATM    3  C3  UNL     1      23.320   5.168  13.232  1.00  0.00     0.162 A 
HETATM    4  N2  UNL     1      24.477   4.510  13.286  1.00  0.00    -0.278 N 
ATOM      5  H2  UNL     1      24.666   3.749  12.633  1.00  0.00     0.189 HD
HETATM    6  N3  UNL     1      25.346   4.836  14.159  1.00  0.00    -0.278 N 
ATOM      7  H3  UNL     1      26.235   4.338  14.208  1.00  0.00     0.189 HD
HETATM    8  C4  UNL     1      25.087   5.829  15.005  1.00  0.00     0.163 A 
HETATM    9  S1  UNL     1      23.524   6.313  14.518  1.00  0.00    -0.016 SA
ENDROOT
BRANCH   1  10
HETATM   10  C2  UNL     1      22.135   4.075  11.462  1.00  0.00     0.159 C 
BRANCH  10  11
HETATM   11  C1  UNL     1      20.916   4.256  10.642  1.00  0.00     0.174 C 
BRANCH  11  12
HETATM   12  O1  UNL     1      20.166   3.060  10.621  1.00  0.00    -0.389 OA
ATOM     13  H1  UNL     1      20.621   2.398  10.114  1.00  0.00     0.210 HD
ENDBRANCH  11  12
BRANCH  11  14
HETATM   14  C11 UNL     1      21.071   4.815   9.270  1.00  0.00     0.091 C 
BRANCH  14  15
HETATM   15  N5  UNL     1      21.861   5.959   9.201  1.00  0.00    -0.391 N 
HETATM   16  C12 UNL     1      23.118   6.031   8.618  1.00  0.00     0.122 C 
HETATM   17  C13 UNL     1      24.094   6.925   9.404  1.00  0.00     0.020 C 
HETATM   18  C14 UNL     1      24.092   8.337   8.865  1.00  0.00     0.002 C 
HETATM   19  C15 UNL     1      22.799   9.045   9.215  1.00  0.00     0.002 C 
HETATM   20  C16 UNL     1      21.605   8.310   8.617  1.00  0.00     0.020 C 
HETATM   21  C17 UNL     1      21.171   7.178   9.482  1.00  0.00     0.122 C 
ENDBRANCH  14  15
ENDBRANCH  11  14
ENDBRANCH  10  11
ENDBRANCH   1  10
BRANCH   8  22
HETATM   22  N4  UNL     1      25.838   6.301  15.981  1.00  0.00    -0.365 N 
ATOM     23  H4  UNL     1      26.820   6.518  15.816  1.00  0.00     0.162 HD
BRANCH  22  24
HETATM   24  C5  UNL     1      25.245   6.513  17.309  1.00  0.00     0.083 C 
HETATM   25  C6  UNL     1      25.784   7.767  17.895  1.00  0.00     0.025 C 
HETATM   26  C7  UNL     1      25.706   7.610  19.422  1.00  0.00     0.002 C 
HETATM   27  C8  UNL     1      26.820   6.594  19.724  1.00  0.00     0.000 C 
HETATM   28  C9  UNL     1      26.362   5.274  19.223  1.00  0.00     0.002 C 
HETATM   29  C10 UNL     1      25.406   5.271  18.094  1.00  0.00     0.025 C 
ENDBRANCH  22  24
ENDBRANCH   8  22
TORSDOF 7
ENDMDL
MODEL 5
REMARK VINA RESULT: -7.158267742      2.926      4.248
REMARK  7 active torsions:
REMARK  status: ('A' for Active; 'I' for Inactive)
REMARK    1  A    between atoms: O1_1  and  C1_3 
REMARK    2  A    between atoms: C1_3  and  C2_4 
REMARK    3  A    between atoms: C1_3  and  C11_22 
REMARK    4  A    between atoms: C2_4  and  N1_5 
REMARK    5  A    between atoms: C4_12  and  N4_13 
REMARK    6  A    between atoms: N4_13  and  C5_15 
REMARK    7  A    between atoms: C11_22  and  N5_23 
ROOT
HETATM    1  N1  UNL     1      23.316   6.707  13.624  1.00  0.00    -0.367 N 
ATOM      2  H1  UNL     1      23.383   7.644  13.226  1.00  0.00     0.161 HD
HETATM    3  C3  UNL     1      24.096   6.418  14.606  1.00  0.00     0.162 A 
HETATM    4  N2  UNL     1      24.259   5.313  15.333  1.00  0.00    -0.278 N 
ATOM      5  H2  UNL     1      23.708   4.479  15.131  1.00  0.00     0.189 HD
HETATM    6  N3  UNL     1      25.108   5.305  16.283  1.00  0.00    -0.278 N 
ATOM      7  H3  UNL     1      25.241   4.464  16.846  1.00  0.00     0.189 HD
HETATM    8  C4  UNL     1      25.820   6.400  16.538  1.00  0.00     0.163 A 
HETATM    9  S1  UNL     1      25.241   7.485  15.354  1.00  0.00    -0.016 SA
ENDROOT
BRANCH   1  10
HETATM   10  C2  UNL     1      22.372   5.820  13.056  1.00  0.00     0.159 C 
BRANCH  10  11
HETATM   11  C1  UNL     1      22.947   4.912  12.040  1.00  0.00     0.174 C 
BRANCH  11  12
HETATM   12  O1  UNL     1      23.539   3.795  12.668  1.00  0.00    -0.389 OA
ATOM     13  H1  UNL     1      24.450   3.721  12.410  1.00  0.00     0.210 HD
ENDBRANCH  11  12
BRANCH  11  14
HETATM   14  C11 UNL     1      23.858   5.495  11.015  1.00  0.00     0.091 C 
BRANCH  14  15
HETATM   15  N5  UNL     1      23.307   5.583   9.740  1.00  0.00    -0.391 N 
HETATM   16  C12 UNL     1      22.150   4.940   9.321  1.00  0.00     0.122 C 
HETATM   17  C13 UNL     1      22.248   4.413   7.878  1.00  0.00     0.020 C 
HETATM   18  C14 UNL     1      21.689   5.415   6.894  1.00  0.00     0.002 C 
HETATM   19  C15 UNL     1      22.610   6.612   6.763  1.00  0.00     0.002 C 
HETATM   20  C16 UNL     1      22.776   7.312   8.107  1.00  0.00     0.020 C 
HETATM   21  C17 UNL     1      23.817   6.652   8.942  1.00  0.00     0.122 C 
ENDBRANCH  14  15
ENDBRANCH  11  14
ENDBRANCH  10  11
ENDBRANCH   1  10
BRANCH   8  22
HETATM   22  N4  UNL     1      26.724   6.599  17.477  1.00  0.00    -0.365 N 
ATOM     23  H4  UNL     1      27.706   6.715  17.230  1.00  0.00     0.162 HD
BRANCH  22  24
HETATM   24  C5  UNL     1      26.303   6.651  18.884  1.00  0.00     0.083 C 
HETATM   25  C6  UNL     1      26.144   5.269  19.403  1.00  0.00     0.025 C 
HETATM   26  C7  UNL     1      25.115   5.342  20.543  1.00  0.00     0.002 C 
HETATM   27  C8  UNL     1      23.789   5.575  19.801  1.00  0.00     0.000 C 
HETATM   28  C9  UNL     1      23.814   6.963  19.277  1.00  0.00     0.002 C 
HETATM   29  C10 UNL     1      25.138   7.556  18.988  1.00  0.00     0.025 C 
ENDBRANCH  22  24
ENDBRANCH   8  22
TORSDOF 7
ENDMDL
