MODEL 1
REMARK VINA RESULT: -7.573289209      0.000      0.000
REMARK  5 active torsions:
REMARK  status: ('A' for Active; 'I' for Inactive)
REMARK    1  A    between atoms: C2_2  and  N1_3 
REMARK    2  A    between atoms: C9_11  and  C10_12 
REMARK    3  A    between atoms: C10_12  and  N3_13 
REMARK       I    between atoms: N3_13  and  C11_15 
REMARK    4  A    between atoms: C11_15  and  C12_17 
REMARK    5  A    between atoms: C13_20  and  N5_21 
ROOT
HETATM    1  C10 UNL     1      25.434   5.011  13.335  1.00  0.00     0.071 C 
ENDROOT
BRANCH   1   2
HETATM    2  C9  UNL     1      24.337   5.110  12.347  1.00  0.00     0.059 C 
HETATM    3  C8  UNL     1      24.372   6.530  11.836  1.00  0.00     0.048 C 
HETATM    4  C7  UNL     1      23.337   6.890  10.849  1.00  0.00     0.226 C 
HETATM    5  N1  UNL     1      23.437   6.201   9.590  1.00  0.00     0.094 N 
HETATM    6  C6  UNL     1      21.939   6.932  11.417  1.00  0.00     0.071 C 
HETATM    7  C3  UNL     1      22.357   5.319   9.315  1.00  0.00     0.303 C 
HETATM    8  C4  UNL     1      22.438   4.180  10.308  1.00  0.00     0.303 C 
HETATM    9  N2  UNL     1      22.090   4.475  11.604  1.00  0.00     0.100 N 
HETATM   10  C5  UNL     1      21.471   5.644  11.988  1.00  0.00     0.227 C 
HETATM   11  C16 UNL     1      23.053   4.570  12.681  1.00  0.00     0.234 C 
HETATM   12  C17 UNL     1      22.078   5.495  13.360  1.00  0.00     0.072 C 
BRANCH   5  13
HETATM   13  C2  UNL     1      23.738   7.038   8.477  1.00  0.00     0.268 C 
HETATM   14  C1  UNL     1      25.072   7.725   8.521  1.00  0.00     0.037 C 
ENDBRANCH   5  13
ENDBRANCH   1   2
BRANCH   1  15
HETATM   15  N3  UNL     1      25.280   5.108  14.713  1.00  0.00    -0.335 N 
HETATM   16  C11 UNL     1      25.323   6.210  15.540  1.00  0.00     0.273 C 
HETATM   17  O1  UNL     1      25.537   7.387  15.148  1.00  0.00    -0.266 OA
ATOM     18  H3  UNL     1      25.107   4.222  15.188  1.00  0.00     0.168 HD
BRANCH  16  19
HETATM   19  C12 UNL     1      25.107   6.114  17.042  1.00  0.00     0.116 A 
HETATM   20  N4  UNL     1      26.072   5.708  17.834  1.00  0.00    -0.332 N 
HETATM   21  C13 UNL     1      25.828   5.596  19.134  1.00  0.00     0.143 A 
ATOM     22  H4  UNL     1      26.992   5.482  17.458  1.00  0.00     0.168 HD
HETATM   23  S1  UNL     1      24.205   6.065  19.280  1.00  0.00    -0.057 SA
HETATM   24  C14 UNL     1      23.901   6.397  17.608  1.00  0.00     0.015 A 
HETATM   25  C15 UNL     1      22.587   6.841  17.013  1.00  0.00     0.059 C 
BRANCH  21  26
HETATM   26  N5  UNL     1      26.678   5.203  20.071  1.00  0.00    -0.380 N 
ATOM     27  H52 UNL     1      27.589   4.758  19.973  1.00  0.00     0.158 HD
ATOM     28  H51 UNL     1      26.558   5.287  21.080  1.00  0.00     0.158 HD
ENDBRANCH  21  26
ENDBRANCH  16  19
ENDBRANCH   1  15
TORSDOF 5
ENDMDL
MODEL 2
REMARK VINA RESULT: -7.508851656      1.638      2.266
REMARK  5 active torsions:
REMARK  status: ('A' for Active; 'I' for Inactive)
REMARK    1  A    between atoms: C2_2  and  N1_3 
REMARK    2  A    between atoms: C9_11  and  C10_12 
REMARK    3  A    between atoms: C10_12  and  N3_13 
REMARK       I    between atoms: N3_13  and  C11_15 
REMARK    4  A    between atoms: C11_15  and  C12_17 
REMARK    5  A    between atoms: C13_20  and  N5_21 
ROOT
HETATM    1  C10 UNL     1      23.957   4.563  12.052  1.00  0.00     0.071 C 
ENDROOT
BRANCH   1   2
HETATM    2  C9  UNL     1      23.517   5.305  10.849  1.00  0.00     0.059 C 
HETATM    3  C8  UNL     1      23.976   6.729  11.055  1.00  0.00     0.048 C 
HETATM    4  C7  UNL     1      23.621   7.685   9.990  1.00  0.00     0.226 C 
HETATM    5  N1  UNL     1      24.247   7.434   8.718  1.00  0.00     0.094 N 
HETATM    6  C6  UNL     1      22.142   7.978   9.899  1.00  0.00     0.071 C 
HETATM    7  C3  UNL     1      23.347   7.066   7.683  1.00  0.00     0.303 C 
HETATM    8  C4  UNL     1      22.782   5.706   8.034  1.00  0.00     0.303 C 
HETATM    9  N2  UNL     1      21.876   5.669   9.066  1.00  0.00     0.100 N 
HETATM   10  C5  UNL     1      21.299   6.789   9.623  1.00  0.00     0.227 C 
HETATM   11  C16 UNL     1      22.181   5.116  10.369  1.00  0.00     0.234 C 
HETATM   12  C17 UNL     1      21.120   6.034  10.916  1.00  0.00     0.072 C 
BRANCH   5  13
HETATM   13  C2  UNL     1      25.161   8.441   8.297  1.00  0.00     0.268 C 
HETATM   14  C1  UNL     1      26.532   7.960   7.918  1.00  0.00     0.037 C 
ENDBRANCH   5  13
ENDBRANCH   1   2
BRANCH   1  15
HETATM   15  N3  UNL     1      24.124   5.117  13.316  1.00  0.00    -0.335 N 
HETATM   16  C11 UNL     1      25.276   5.429  14.008  1.00  0.00     0.273 C 
HETATM   17  O1  UNL     1      26.442   5.234  13.574  1.00  0.00    -0.266 OA
ATOM     18  H3  UNL     1      23.257   5.326  13.810  1.00  0.00     0.168 HD
BRANCH  16  19
HETATM   19  C12 UNL     1      25.253   6.056  15.391  1.00  0.00     0.116 A 
HETATM   20  N4  UNL     1      25.135   5.310  16.465  1.00  0.00    -0.332 N 
HETATM   21  C13 UNL     1      25.074   5.901  17.652  1.00  0.00     0.143 A 
ATOM     22  H4  UNL     1      25.090   4.294  16.389  1.00  0.00     0.168 HD
HETATM   23  S1  UNL     1      25.182   7.553  17.283  1.00  0.00    -0.057 SA
HETATM   24  C14 UNL     1      25.305   7.407  15.563  1.00  0.00     0.015 A 
HETATM   25  C15 UNL     1      25.399   8.545  14.576  1.00  0.00     0.059 C 
BRANCH  21  26
HETATM   26  N5  UNL     1      24.955   5.308  18.830  1.00  0.00    -0.380 N 
ATOM     27  H52 UNL     1      25.582   4.649  19.290  1.00  0.00     0.158 HD
ATOM     28  H51 UNL     1      24.191   5.417  19.496  1.00  0.00     0.158 HD
ENDBRANCH  21  26
ENDBRANCH  16  19
ENDBRANCH   1  15
TORSDOF 5
ENDMDL
MODEL 3
REMARK VINA RESULT: -7.235263166      1.438      2.750
REMARK  5 active torsions:
REMARK  status: ('A' for Active; 'I' for Inactive)
REMARK    1  A    between atoms: C2_2  and  N1_3 
REMARK    2  A    between atoms: C9_11  and  C10_12 
REMARK    3  A    between atoms: C10_12  and  N3_13 
REMARK       I    between atoms: N3_13  and  C11_15 
REMARK    4  A    between atoms: C11_15  and  C12_17 
REMARK    5  A    between atoms: C13_20  and  N5_21 
ROOT
HETATM    1  C10 UNL     1      24.729   4.959  13.104  1.00  0.00     0.071 C 
ENDROOT
BRANCH   1   2
HETATM    2  C9  UNL     1      23.654   5.380  12.177  1.00  0.00     0.059 C 
HETATM    3  C8  UNL     1      23.424   4.206  11.256  1.00  0.00     0.048 C 
HETATM    4  C7  UNL     1      22.407   4.395  10.206  1.00  0.00     0.226 C 
HETATM    5  N1  UNL     1      21.062   4.561  10.690  1.00  0.00     0.094 N 
HETATM    6  C6  UNL     1      22.804   5.391   9.142  1.00  0.00     0.071 C 
HETATM    7  C3  UNL     1      20.503   5.844  10.443  1.00  0.00     0.303 C 
HETATM    8  C4  UNL     1      21.268   6.842  11.284  1.00  0.00     0.303 C 
HETATM    9  N2  UNL     1      22.546   7.133  10.872  1.00  0.00     0.100 N 
HETATM   10  C5  UNL     1      23.066   6.760   9.652  1.00  0.00     0.227 C 
HETATM   11  C16 UNL     1      23.728   6.676  11.573  1.00  0.00     0.234 C 
HETATM   12  C17 UNL     1      24.448   6.776  10.254  1.00  0.00     0.072 C 
BRANCH   5  13
HETATM   13  C2  UNL     1      20.168   3.512  10.330  1.00  0.00     0.268 C 
HETATM   14  C1  UNL     1      19.507   3.650   8.989  1.00  0.00     0.037 C 
ENDBRANCH   5  13
ENDBRANCH   1   2
BRANCH   1  15
HETATM   15  N3  UNL     1      24.868   5.393  14.416  1.00  0.00    -0.335 N 
HETATM   16  C11 UNL     1      25.525   6.493  14.928  1.00  0.00     0.273 C 
HETATM   17  O1  UNL     1      26.159   7.330  14.234  1.00  0.00    -0.266 OA
ATOM     18  H3  UNL     1      24.411   4.804  15.112  1.00  0.00     0.168 HD
BRANCH  16  19
HETATM   19  C12 UNL     1      25.546   6.814  16.413  1.00  0.00     0.116 A 
HETATM   20  N4  UNL     1      26.340   6.160  17.230  1.00  0.00    -0.332 N 
HETATM   21  C13 UNL     1      26.296   6.440  18.527  1.00  0.00     0.143 A 
ATOM     22  H4  UNL     1      26.979   5.449  16.875  1.00  0.00     0.168 HD
HETATM   23  S1  UNL     1      25.114   7.651  18.635  1.00  0.00    -0.057 SA
HETATM   24  C14 UNL     1      24.715   7.748  16.953  1.00  0.00     0.015 A 
HETATM   25  C15 UNL     1      23.667   8.642  16.336  1.00  0.00     0.059 C 
BRANCH  21  26
HETATM   26  N5  UNL     1      27.019   5.883  19.485  1.00  0.00    -0.380 N 
ATOM     27  H52 UNL     1      26.911   4.974  19.933  1.00  0.00     0.158 HD
ATOM     28  H51 UNL     1      27.834   6.284  19.948  1.00  0.00     0.158 HD
ENDBRANCH  21  26
ENDBRANCH  16  19
ENDBRANCH   1  15
TORSDOF 5
ENDMDL
MODEL 4
REMARK VINA RESULT: -7.188237615      1.460      2.035
REMARK  5 active torsions:
REMARK  status: ('A' for Active; 'I' for Inactive)
REMARK    1  A    between atoms: C2_2  and  N1_3 
REMARK    2  A    between atoms: C9_11  and  C10_12 
REMARK    3  A    between atoms: C10_12  and  N3_13 
REMARK       I    between atoms: N3_13  and  C11_15 
REMARK    4  A    between atoms: C11_15  and  C12_17 
REMARK    5  A    between atoms: C13_20  and  N5_21 
ROOT
HETATM    1  C10 UNL     1      25.023   5.207  13.396  1.00  0.00     0.071 C 
ENDROOT
BRANCH   1   2
HETATM    2  C9  UNL     1      23.855   5.576  12.566  1.00  0.00     0.059 C 
HETATM    3  C8  UNL     1      24.381   5.718  11.158  1.00  0.00     0.048 C 
HETATM    4  C7  UNL     1      23.398   6.120  10.135  1.00  0.00     0.226 C 
HETATM    5  N1  UNL     1      22.359   5.157   9.884  1.00  0.00     0.094 N 
HETATM    6  C6  UNL     1      22.898   7.537  10.291  1.00  0.00     0.071 C 
HETATM    7  C3  UNL     1      21.057   5.587  10.258  1.00  0.00     0.303 C 
HETATM    8  C4  UNL     1      21.031   5.697  11.768  1.00  0.00     0.303 C 
HETATM    9  N2  UNL     1      21.720   6.752  12.314  1.00  0.00     0.100 N 
HETATM   10  C5  UNL     1      22.218   7.807  11.583  1.00  0.00     0.227 C 
HETATM   11  C16 UNL     1      22.967   6.596  13.035  1.00  0.00     0.234 C 
HETATM   12  C17 UNL     1      23.280   8.014  12.633  1.00  0.00     0.072 C 
BRANCH   5  13
HETATM   13  C2  UNL     1      22.378   4.589   8.579  1.00  0.00     0.268 C 
HETATM   14  C1  UNL     1      21.035   4.252   7.996  1.00  0.00     0.037 C 
ENDBRANCH   5  13
ENDBRANCH   1   2
BRANCH   1  15
HETATM   15  N3  UNL     1      25.188   5.537  14.736  1.00  0.00    -0.335 N 
HETATM   16  C11 UNL     1      25.868   6.584  15.320  1.00  0.00     0.273 C 
HETATM   17  O1  UNL     1      26.506   7.463  14.683  1.00  0.00    -0.266 OA
ATOM     18  H3  UNL     1      24.731   4.903  15.392  1.00  0.00     0.168 HD
BRANCH  16  19
HETATM   19  C12 UNL     1      25.916   6.790  16.825  1.00  0.00     0.116 A 
HETATM   20  N4  UNL     1      26.446   5.881  17.611  1.00  0.00    -0.332 N 
HETATM   21  C13 UNL     1      26.427   6.080  18.923  1.00  0.00     0.143 A 
ATOM     22  H4  UNL     1      26.864   5.037  17.220  1.00  0.00     0.168 HD
HETATM   23  S1  UNL     1      25.648   7.576  19.091  1.00  0.00    -0.057 SA
HETATM   24  C14 UNL     1      25.372   7.892  17.412  1.00  0.00     0.015 A 
HETATM   25  C15 UNL     1      24.660   9.093  16.836  1.00  0.00     0.059 C 
BRANCH  21  26
HETATM   26  N5  UNL     1      26.911   5.274  19.855  1.00  0.00    -0.380 N 
ATOM     27  H52 UNL     1      26.783   4.270  19.975  1.00  0.00     0.158 HD
ATOM     28  H51 UNL     1      27.517   5.533  20.634  1.00  0.00     0.158 HD
ENDBRANCH  21  26
ENDBRANCH  16  19
ENDBRANCH   1  15
TORSDOF 5
ENDMDL
MODEL 5
REMARK VINA RESULT: -7.182678557      1.840      3.254
REMARK  5 active torsions:
REMARK  status: ('A' for Active; 'I' for Inactive)
REMARK    1  A    between atoms: C2_2  and  N1_3 
REMARK    2  A    between atoms: C9_11  and  C10_12 
REMARK    3  A    between atoms: C10_12  and  N3_13 
REMARK       I    between atoms: N3_13  and  C11_15 
REMARK    4  A    between atoms: C11_15  and  C12_17 
REMARK    5  A    between atoms: C13_20  and  N5_21 
ROOT
HETATM    1  C10 UNL     1      23.587   4.512  12.376  1.00  0.00     0.071 C 
ENDROOT
BRANCH   1   2
HETATM    2  C9  UNL     1      22.835   5.210  11.309  1.00  0.00     0.059 C 
HETATM    3  C8  UNL     1      22.680   4.206  10.193  1.00  0.00     0.048 C 
HETATM    4  C7  UNL     1      21.982   4.682   8.984  1.00  0.00     0.226 C 
HETATM    5  N1  UNL     1      20.595   5.011   9.177  1.00  0.00     0.094 N 
HETATM    6  C6  UNL     1      22.755   5.716   8.199  1.00  0.00     0.071 C 
HETATM    7  C3  UNL     1      20.289   6.388   9.011  1.00  0.00     0.303 C 
HETATM    8  C4  UNL     1      20.954   7.141  10.142  1.00  0.00     0.303 C 
HETATM    9  N2  UNL     1      22.321   7.263  10.073  1.00  0.00     0.100 N 
HETATM   10  C5  UNL     1      23.066   6.953   8.957  1.00  0.00     0.227 C 
HETATM   11  C16 UNL     1      23.226   6.538  10.941  1.00  0.00     0.234 C 
HETATM   12  C17 UNL     1      24.250   6.670   9.845  1.00  0.00     0.072 C 
BRANCH   5  13
HETATM   13  C2  UNL     1      19.683   4.174   8.473  1.00  0.00     0.268 C 
HETATM   14  C1  UNL     1      18.983   3.133   9.300  1.00  0.00     0.037 C 
ENDBRANCH   5  13
ENDBRANCH   1   2
BRANCH   1  15
HETATM   15  N3  UNL     1      23.913   5.058  13.612  1.00  0.00    -0.335 N 
HETATM   16  C11 UNL     1      25.136   5.431  14.128  1.00  0.00     0.273 C 
HETATM   17  O1  UNL     1      26.232   5.313  13.519  1.00  0.00    -0.266 OA
ATOM     18  H3  UNL     1      23.121   5.207  14.237  1.00  0.00     0.168 HD
BRANCH  16  19
HETATM   19  C12 UNL     1      25.289   6.037  15.513  1.00  0.00     0.116 A 
HETATM   20  N4  UNL     1      25.242   5.281  16.586  1.00  0.00    -0.332 N 
HETATM   21  C13 UNL     1      25.335   5.856  17.779  1.00  0.00     0.143 A 
ATOM     22  H4  UNL     1      25.137   4.270  16.504  1.00  0.00     0.168 HD
HETATM   23  S1  UNL     1      25.490   7.505  17.418  1.00  0.00    -0.057 SA
HETATM   24  C14 UNL     1      25.428   7.380  15.693  1.00  0.00     0.015 A 
HETATM   25  C15 UNL     1      25.479   8.528  14.713  1.00  0.00     0.059 C 
BRANCH  21  26
HETATM   26  N5  UNL     1      25.306   5.251  18.956  1.00  0.00    -0.380 N 
ATOM     27  H52 UNL     1      24.781   4.428  19.250  1.00  0.00     0.158 HD
ATOM     28  H51 UNL     1      25.825   5.517  19.793  1.00  0.00     0.158 HD
ENDBRANCH  21  26
ENDBRANCH  16  19
ENDBRANCH   1  15
TORSDOF 5
ENDMDL
