MODEL 1
REMARK VINA RESULT: -8.115553510      0.000      0.000
REMARK  6 active torsions:
REMARK  status: ('A' for Active; 'I' for Inactive)
REMARK       I    between atoms: C1_2  and  N1_3 
REMARK    1  A    between atoms: C1_2  and  C9_13 
REMARK    2  A    between atoms: N1_3  and  C2_5 
REMARK    3  A    between atoms: C2_5  and  C3_6 
REMARK    4  A    between atoms: C3_6  and  N2_7 
REMARK    5  A    between atoms: C12_16  and  C13_17 
REMARK    6  A    between atoms: C13_17  and  N3_18 
ROOT
HETATM    1  C9  UNL     1      24.615   6.913  15.800  1.00  0.00     0.078 C 
HETATM    2  C10 UNL     1      24.662   8.371  15.395  1.00  0.00     0.014 C 
HETATM    3  C11 UNL     1      25.237   9.117  16.565  1.00  0.00     0.007 C 
HETATM    4  C12 UNL     1      25.817   8.090  17.521  1.00  0.00     0.006 C 
HETATM    5  C16 UNL     1      25.675   6.760  16.867  1.00  0.00     0.020 C 
ENDROOT
BRANCH   1   6
HETATM    6  C1  UNL     1      25.076   6.139  14.594  1.00  0.00     0.221 C 
HETATM    7  O1  UNL     1      26.274   6.136  14.288  1.00  0.00    -0.273 OA
HETATM    8  N1  UNL     1      24.085   5.444  13.867  1.00  0.00    -0.359 N 
ATOM      9  H1  UNL     1      23.116   5.488  14.180  1.00  0.00     0.162 HD
BRANCH   8  10
HETATM   10  C2  UNL     1      24.409   4.675  12.698  1.00  0.00     0.142 C 
BRANCH  10  11
HETATM   11  C3  UNL     1      24.346   5.532  11.471  1.00  0.00     0.136 C 
BRANCH  11  12
HETATM   12  N2  UNL     1      23.508   4.902  10.510  1.00  0.00    -0.411 N 
HETATM   13  C4  UNL     1      23.013   5.727   9.470  1.00  0.00     0.117 C 
HETATM   14  C5  UNL     1      22.221   4.863   8.476  1.00  0.00     0.019 C 
HETATM   15  C6  UNL     1      21.040   4.220   9.177  1.00  0.00     0.003 C 
HETATM   16  C7  UNL     1      21.189   4.341  10.693  1.00  0.00     0.019 C 
HETATM   17  C8  UNL     1      22.629   3.901  10.999  1.00  0.00     0.117 C 
ENDBRANCH  11  12
ENDBRANCH  10  11
ENDBRANCH   8  10
ENDBRANCH   1   6
BRANCH   4  18
HETATM   18  C13 UNL     1      25.033   8.166  18.782  1.00  0.00     0.156 C 
BRANCH  18  19
HETATM   19  N3  UNL     1      24.974   6.926  19.532  1.00  0.00    -0.263 N 
HETATM   20  N4  UNL     1      24.065   5.999  19.588  1.00  0.00    -0.247 N 
HETATM   21  C14 UNL     1      24.455   5.036  20.440  1.00  0.00     0.341 A 
ATOM     22  H4  UNL     1      23.189   6.002  19.066  1.00  0.00     0.192 HD
HETATM   23  O2  UNL     1      23.790   3.992  20.717  1.00  0.00    -0.245 OA
HETATM   24  N5  UNL     1      25.663   5.394  20.928  1.00  0.00    -0.283 N 
HETATM   25  C15 UNL     1      25.978   6.568  20.359  1.00  0.00     0.197 A 
ATOM     26  H5  UNL     1      26.226   4.873  21.599  1.00  0.00     0.173 HD
HETATM   27  S1  UNL     1      27.377   7.396  20.655  1.00  0.00    -0.039 SA
ENDBRANCH  18  19
ENDBRANCH   4  18
TORSDOF 6
ENDMDL
MODEL 2
REMARK VINA RESULT: -7.971042712      0.797      1.464
REMARK  6 active torsions:
REMARK  status: ('A' for Active; 'I' for Inactive)
REMARK       I    between atoms: C1_2  and  N1_3 
REMARK    1  A    between atoms: C1_2  and  C9_13 
REMARK    2  A    between atoms: N1_3  and  C2_5 
REMARK    3  A    between atoms: C2_5  and  C3_6 
REMARK    4  A    between atoms: C3_6  and  N2_7 
REMARK    5  A    between atoms: C12_16  and  C13_17 
REMARK    6  A    between atoms: C13_17  and  N3_18 
ROOT
HETATM    1  C9  UNL     1      24.579   6.916  15.747  1.00  0.00     0.078 C 
HETATM    2  C10 UNL     1      24.665   8.377  15.358  1.00  0.00     0.014 C 
HETATM    3  C11 UNL     1      25.245   9.098  16.541  1.00  0.00     0.007 C 
HETATM    4  C12 UNL     1      25.789   8.047  17.493  1.00  0.00     0.006 C 
HETATM    5  C16 UNL     1      25.623   6.728  16.824  1.00  0.00     0.020 C 
ENDROOT
BRANCH   1   6
HETATM    6  C1  UNL     1      25.034   6.143  14.539  1.00  0.00     0.221 C 
HETATM    7  O1  UNL     1      26.227   6.154  14.217  1.00  0.00    -0.273 OA
HETATM    8  N1  UNL     1      24.043   5.432  13.828  1.00  0.00    -0.359 N 
ATOM      9  H1  UNL     1      23.077   5.466  14.153  1.00  0.00     0.162 HD
BRANCH   8  10
HETATM   10  C2  UNL     1      24.362   4.662  12.658  1.00  0.00     0.142 C 
BRANCH  10  11
HETATM   11  C3  UNL     1      23.240   4.723  11.667  1.00  0.00     0.136 C 
BRANCH  11  12
HETATM   12  N2  UNL     1      23.685   5.415  10.507  1.00  0.00    -0.411 N 
HETATM   13  C4  UNL     1      24.275   6.686  10.721  1.00  0.00     0.117 C 
HETATM   14  C5  UNL     1      24.788   7.234   9.380  1.00  0.00     0.019 C 
HETATM   15  C6  UNL     1      23.631   7.402   8.413  1.00  0.00     0.003 C 
HETATM   16  C7  UNL     1      22.394   6.668   8.930  1.00  0.00     0.019 C 
HETATM   17  C8  UNL     1      22.887   5.273   9.342  1.00  0.00     0.117 C 
ENDBRANCH  11  12
ENDBRANCH  10  11
ENDBRANCH   8  10
ENDBRANCH   1   6
BRANCH   4  18
HETATM   18  C13 UNL     1      24.994   8.130  18.746  1.00  0.00     0.156 C 
BRANCH  18  19
HETATM   19  N3  UNL     1      24.946   6.900  19.513  1.00  0.00    -0.263 N 
HETATM   20  N4  UNL     1      24.044   5.968  19.584  1.00  0.00    -0.247 N 
HETATM   21  C14 UNL     1      24.443   5.020  20.447  1.00  0.00     0.341 A 
ATOM     22  H4  UNL     1      23.167   5.958  19.064  1.00  0.00     0.192 HD
HETATM   23  O2  UNL     1      23.786   3.975  20.740  1.00  0.00    -0.245 OA
HETATM   24  N5  UNL     1      25.649   5.393  20.927  1.00  0.00    -0.283 N 
HETATM   25  C15 UNL     1      25.954   6.561  20.342  1.00  0.00     0.197 A 
ATOM     26  H5  UNL     1      26.217   4.885  21.604  1.00  0.00     0.173 HD
HETATM   27  S1  UNL     1      27.349   7.403  20.623  1.00  0.00    -0.039 SA
ENDBRANCH  18  19
ENDBRANCH   4  18
TORSDOF 6
ENDMDL
MODEL 3
REMARK VINA RESULT: -7.863804457      1.516      1.681
REMARK  6 active torsions:
REMARK  status: ('A' for Active; 'I' for Inactive)
REMARK       I    between atoms: C1_2  and  N1_3 
REMARK    1  A    between atoms: C1_2  and  C9_13 
REMARK    2  A    between atoms: N1_3  and  C2_5 
REMARK    3  A    between atoms: C2_5  and  C3_6 
REMARK    4  A    between atoms: C3_6  and  N2_7 
REMARK    5  A    between atoms: C12_16  and  C13_17 
REMARK    6  A    between atoms: C13_17  and  N3_18 
ROOT
HETATM    1  C9  UNL     1      24.456   6.690  15.748  1.00  0.00     0.078 C 
HETATM    2  C10 UNL     1      23.854   8.007  15.306  1.00  0.00     0.014 C 
HETATM    3  C11 UNL     1      24.287   9.032  16.316  1.00  0.00     0.007 C 
HETATM    4  C12 UNL     1      25.382   8.405  17.160  1.00  0.00     0.006 C 
HETATM    5  C16 UNL     1      25.661   7.062  16.583  1.00  0.00     0.020 C 
ENDROOT
BRANCH   1   6
HETATM    6  C1  UNL     1      24.963   6.030  14.494  1.00  0.00     0.221 C 
HETATM    7  O1  UNL     1      26.163   6.102  14.205  1.00  0.00    -0.273 OA
HETATM    8  N1  UNL     1      24.012   5.349  13.704  1.00  0.00    -0.359 N 
ATOM      9  H1  UNL     1      23.038   5.328  14.007  1.00  0.00     0.162 HD
BRANCH   8  10
HETATM   10  C2  UNL     1      24.381   4.685  12.486  1.00  0.00     0.142 C 
BRANCH  10  11
HETATM   11  C3  UNL     1      24.140   5.577  11.306  1.00  0.00     0.136 C 
BRANCH  11  12
HETATM   12  N2  UNL     1      23.320   4.891  10.368  1.00  0.00    -0.411 N 
HETATM   13  C4  UNL     1      22.940   5.620   9.214  1.00  0.00     0.117 C 
HETATM   14  C5  UNL     1      22.153   4.695   8.272  1.00  0.00     0.019 C 
HETATM   15  C6  UNL     1      20.895   4.202   8.961  1.00  0.00     0.003 C 
HETATM   16  C7  UNL     1      20.964   4.485  10.461  1.00  0.00     0.019 C 
HETATM   17  C8  UNL     1      22.353   4.003  10.906  1.00  0.00     0.117 C 
ENDBRANCH  11  12
ENDBRANCH  10  11
ENDBRANCH   8  10
ENDBRANCH   1   6
BRANCH   4  18
HETATM   18  C13 UNL     1      24.868   8.306  18.552  1.00  0.00     0.156 C 
BRANCH  18  19
HETATM   19  N3  UNL     1      25.651   7.454  19.425  1.00  0.00    -0.263 N 
HETATM   20  N4  UNL     1      26.920   7.446  19.704  1.00  0.00    -0.247 N 
HETATM   21  C14 UNL     1      27.185   6.453  20.568  1.00  0.00     0.341 A 
ATOM     22  H4  UNL     1      27.609   8.094  19.324  1.00  0.00     0.192 HD
HETATM   23  O2  UNL     1      28.331   6.178  21.037  1.00  0.00    -0.245 OA
HETATM   24  N5  UNL     1      26.019   5.823  20.829  1.00  0.00    -0.283 N 
HETATM   25  C15 UNL     1      25.072   6.451  20.116  1.00  0.00     0.197 A 
ATOM     26  H5  UNL     1      25.885   5.024  21.449  1.00  0.00     0.173 HD
HETATM   27  S1  UNL     1      23.474   6.027  20.120  1.00  0.00    -0.039 SA
ENDBRANCH  18  19
ENDBRANCH   4  18
TORSDOF 6
ENDMDL
MODEL 4
REMARK VINA RESULT: -7.813140795      2.048      2.671
REMARK  6 active torsions:
REMARK  status: ('A' for Active; 'I' for Inactive)
REMARK       I    between atoms: C1_2  and  N1_3 
REMARK    1  A    between atoms: C1_2  and  C9_13 
REMARK    2  A    between atoms: N1_3  and  C2_5 
REMARK    3  A    between atoms: C2_5  and  C3_6 
REMARK    4  A    between atoms: C3_6  and  N2_7 
REMARK    5  A    between atoms: C12_16  and  C13_17 
REMARK    6  A    between atoms: C13_17  and  N3_18 
ROOT
HETATM    1  C9  UNL     1      24.505   6.917  15.362  1.00  0.00     0.078 C 
HETATM    2  C10 UNL     1      24.081   8.330  15.021  1.00  0.00     0.014 C 
HETATM    3  C11 UNL     1      24.525   9.194  16.167  1.00  0.00     0.007 C 
HETATM    4  C12 UNL     1      25.472   8.369  17.020  1.00  0.00     0.006 C 
HETATM    5  C16 UNL     1      25.663   7.068  16.323  1.00  0.00     0.020 C 
ENDROOT
BRANCH   1   6
HETATM    6  C1  UNL     1      25.051   6.333  14.087  1.00  0.00     0.221 C 
HETATM    7  O1  UNL     1      26.235   5.981  14.031  1.00  0.00    -0.273 OA
HETATM    8  N1  UNL     1      24.153   6.219  13.004  1.00  0.00    -0.359 N 
ATOM      9  H1  UNL     1      23.188   6.528  13.122  1.00  0.00     0.162 HD
BRANCH   8  10
HETATM   10  C2  UNL     1      24.565   5.680  11.738  1.00  0.00     0.142 C 
BRANCH  10  11
HETATM   11  C3  UNL     1      23.486   5.858  10.714  1.00  0.00     0.136 C 
BRANCH  11  12
HETATM   12  N2  UNL     1      24.045   6.459   9.552  1.00  0.00    -0.411 N 
HETATM   13  C4  UNL     1      24.847   7.608   9.763  1.00  0.00     0.117 C 
HETATM   14  C5  UNL     1      25.447   8.054   8.420  1.00  0.00     0.019 C 
HETATM   15  C6  UNL     1      24.338   8.417   7.452  1.00  0.00     0.003 C 
HETATM   16  C7  UNL     1      22.992   7.911   7.970  1.00  0.00     0.019 C 
HETATM   17  C8  UNL     1      23.235   6.453   8.387  1.00  0.00     0.117 C 
ENDBRANCH  11  12
ENDBRANCH  10  11
ENDBRANCH   8  10
ENDBRANCH   1   6
BRANCH   4  18
HETATM   18  C13 UNL     1      24.829   8.189  18.348  1.00  0.00     0.156 C 
BRANCH  18  19
HETATM   19  N3  UNL     1      25.598   7.397  19.289  1.00  0.00    -0.263 N 
HETATM   20  N4  UNL     1      26.867   7.390  19.567  1.00  0.00    -0.247 N 
HETATM   21  C14 UNL     1      27.117   6.466  20.509  1.00  0.00     0.341 A 
ATOM     22  H4  UNL     1      27.567   7.993  19.136  1.00  0.00     0.192 HD
HETATM   23  O2  UNL     1      28.259   6.211  20.999  1.00  0.00    -0.245 OA
HETATM   24  N5  UNL     1      25.940   5.879  20.821  1.00  0.00    -0.283 N 
HETATM   25  C15 UNL     1      25.003   6.464  20.059  1.00  0.00     0.197 A 
ATOM     26  H5  UNL     1      25.793   5.136  21.503  1.00  0.00     0.173 HD
HETATM   27  S1  UNL     1      23.398   6.069  20.098  1.00  0.00    -0.039 SA
ENDBRANCH  18  19
ENDBRANCH   4  18
TORSDOF 6
ENDMDL
MODEL 5
REMARK VINA RESULT: -7.764115394      1.895      2.366
REMARK  6 active torsions:
REMARK  status: ('A' for Active; 'I' for Inactive)
REMARK       I    between atoms: C1_2  and  N1_3 
REMARK    1  A    between atoms: C1_2  and  C9_13 
REMARK    2  A    between atoms: N1_3  and  C2_5 
REMARK    3  A    between atoms: C2_5  and  C3_6 
REMARK    4  A    between atoms: C3_6  and  N2_7 
REMARK    5  A    between atoms: C12_16  and  C13_17 
REMARK    6  A    between atoms: C13_17  and  N3_18 
ROOT
HETATM    1  C9  UNL     1      24.043   7.838  15.332  1.00  0.00     0.078 C 
HETATM    2  C10 UNL     1      23.611   9.288  15.389  1.00  0.00     0.014 C 
HETATM    3  C11 UNL     1      24.077   9.817  16.716  1.00  0.00     0.007 C 
HETATM    4  C12 UNL     1      25.041   8.800  17.299  1.00  0.00     0.006 C 
HETATM    5  C16 UNL     1      25.220   7.734  16.276  1.00  0.00     0.020 C 
ENDROOT
BRANCH   1   6
HETATM    6  C1  UNL     1      24.564   7.620  13.937  1.00  0.00     0.221 C 
HETATM    7  O1  UNL     1      25.613   6.989  13.765  1.00  0.00    -0.273 OA
HETATM    8  N1  UNL     1      23.802   8.164  12.881  1.00  0.00    -0.359 N 
ATOM      9  H1  UNL     1      22.944   8.671  13.097  1.00  0.00     0.162 HD
BRANCH   8  10
HETATM   10  C2  UNL     1      24.204   8.020  11.510  1.00  0.00     0.142 C 
BRANCH  10  11
HETATM   11  C3  UNL     1      23.022   7.706  10.645  1.00  0.00     0.136 C 
BRANCH  11  12
HETATM   12  N2  UNL     1      22.913   6.295  10.505  1.00  0.00    -0.411 N 
HETATM   13  C4  UNL     1      21.672   5.720  10.874  1.00  0.00     0.117 C 
HETATM   14  C5  UNL     1      21.701   4.216  10.560  1.00  0.00     0.019 C 
HETATM   15  C6  UNL     1      22.797   3.540  11.361  1.00  0.00     0.003 C 
HETATM   16  C7  UNL     1      23.741   4.584  11.958  1.00  0.00     0.019 C 
HETATM   17  C8  UNL     1      24.077   5.539  10.804  1.00  0.00     0.117 C 
ENDBRANCH  11  12
ENDBRANCH  10  11
ENDBRANCH   8  10
ENDBRANCH   1   6
BRANCH   4  18
HETATM   18  C13 UNL     1      24.425   8.267  18.543  1.00  0.00     0.156 C 
BRANCH  18  19
HETATM   19  N3  UNL     1      25.288   7.398  19.319  1.00  0.00    -0.263 N 
HETATM   20  N4  UNL     1      26.580   7.374  19.460  1.00  0.00    -0.247 N 
HETATM   21  C14 UNL     1      26.926   6.369  20.280  1.00  0.00     0.341 A 
ATOM     22  H4  UNL     1      27.231   8.021  19.016  1.00  0.00     0.192 HD
HETATM   23  O2  UNL     1      28.113   6.078  20.621  1.00  0.00    -0.245 OA
HETATM   24  N5  UNL     1      25.788   5.747  20.658  1.00  0.00    -0.283 N 
HETATM   25  C15 UNL     1      24.776   6.392  20.057  1.00  0.00     0.197 A 
ATOM     26  H5  UNL     1      25.712   4.942  21.280  1.00  0.00     0.173 HD
HETATM   27  S1  UNL     1      23.184   5.983  20.229  1.00  0.00    -0.039 SA
ENDBRANCH  18  19
ENDBRANCH   4  18
TORSDOF 6
ENDMDL
