MODEL 1
REMARK VINA RESULT: -7.886787642      0.000      0.000
REMARK  6 active torsions:
REMARK  status: ('A' for Active; 'I' for Inactive)
REMARK    1  A    between atoms: C2_2  and  C3_3 
REMARK    2  A    between atoms: N1_5  and  C5_6 
REMARK    3  A    between atoms: C8_9  and  C9_10 
REMARK    4  A    between atoms: C9_10  and  N2_11 
REMARK       I    between atoms: N2_11  and  C10_13 
REMARK    5  A    between atoms: C10_13  and  C11_15 
REMARK    6  A    between atoms: C17_24  and  O2_25 
ROOT
HETATM    1  C5  UNL     1      24.841   7.380  16.926  1.00  0.00     0.119 C 
HETATM    2  C6  UNL     1      25.499   8.663  16.404  1.00  0.00     0.029 C 
HETATM    3  C7  UNL     1      24.805   8.994  15.132  1.00  0.00     0.008 C 
HETATM    4  C8  UNL     1      24.282   7.860  14.333  1.00  0.00     0.006 C 
HETATM    5  C16 UNL     1      24.850   6.513  14.626  1.00  0.00     0.040 C 
HETATM    6  C17 UNL     1      25.339   6.294  15.999  1.00  0.00     0.142 C 
ENDROOT
BRANCH   4   7
HETATM    7  C9  UNL     1      24.401   8.235  12.871  1.00  0.00     0.127 C 
BRANCH   7   8
HETATM    8  N2  UNL     1      23.925   7.252  11.958  1.00  0.00    -0.360 N 
HETATM    9  C10 UNL     1      24.338   7.127  10.629  1.00  0.00     0.223 C 
HETATM   10  O1  UNL     1      25.193   7.906  10.137  1.00  0.00    -0.273 OA
ATOM     11  H2  UNL     1      23.230   6.589  12.300  1.00  0.00     0.162 HD
BRANCH   9  12
HETATM   12  C11 UNL     1      23.793   6.075   9.737  1.00  0.00     0.103 C 
HETATM   13  C12 UNL     1      22.650   5.331  10.398  1.00  0.00     0.017 C 
HETATM   14  C13 UNL     1      22.098   4.291   9.493  1.00  0.00     0.028 C 
HETATM   15  C14 UNL     1      21.926   4.697   8.075  1.00  0.00     0.232 C 
HETATM   16  N3  UNL     1      22.948   5.567   7.568  1.00  0.00    -0.074 N 
HETATM   17  C15 UNL     1      23.238   6.669   8.461  1.00  0.00     0.246 C 
ATOM     18  H32 UNL     1      23.795   5.044   7.345  1.00  0.00     0.277 HD
ATOM     19  H31 UNL     1      22.710   5.905   6.635  1.00  0.00     0.277 HD
ENDBRANCH   9  12
ENDBRANCH   7   8
ENDBRANCH   4   7
BRANCH   6  20
HETATM   20  O2  UNL     1      24.992   5.025  16.431  1.00  0.00    -0.393 OA
ATOM     21  H2  UNL     1      25.439   4.340  15.949  1.00  0.00     0.210 HD
ENDBRANCH   6  20
BRANCH   1  22
HETATM   22  N1  UNL     1      25.141   7.142  18.294  1.00  0.00    -0.338 N 
HETATM   23  C4  UNL     1      26.349   7.118  18.866  1.00  0.00     0.117 A 
HETATM   24  C3  UNL     1      26.205   6.855  20.204  1.00  0.00     0.025 A 
HETATM   25  N4  UNL     1      24.874   6.716  20.449  1.00  0.00    -0.348 N 
HETATM   26  C18 UNL     1      24.235   6.898  19.257  1.00  0.00     0.080 A 
ATOM     27  H4  UNL     1      24.438   6.516  21.349  1.00  0.00     0.167 HD
HETATM   28  C19 UNL     1      22.754   6.820  19.122  1.00  0.00     0.089 C 
BRANCH  24  29
HETATM   29  C2  UNL     1      27.309   6.742  21.204  1.00  0.00     0.054 C 
HETATM   30  C1  UNL     1      28.184   7.961  21.102  1.00  0.00     0.011 C 
ENDBRANCH  24  29
ENDBRANCH   1  22
TORSDOF 6
ENDMDL
MODEL 2
REMARK VINA RESULT: -7.661335584      1.278      1.378
REMARK  6 active torsions:
REMARK  status: ('A' for Active; 'I' for Inactive)
REMARK    1  A    between atoms: C2_2  and  C3_3 
REMARK    2  A    between atoms: N1_5  and  C5_6 
REMARK    3  A    between atoms: C8_9  and  C9_10 
REMARK    4  A    between atoms: C9_10  and  N2_11 
REMARK       I    between atoms: N2_11  and  C10_13 
REMARK    5  A    between atoms: C10_13  and  C11_15 
REMARK    6  A    between atoms: C17_24  and  O2_25 
ROOT
HETATM    1  C5  UNL     1      24.840   7.639  15.908  1.00  0.00     0.119 C 
HETATM    2  C6  UNL     1      26.016   8.146  15.066  1.00  0.00     0.029 C 
HETATM    3  C7  UNL     1      25.434   8.597  13.775  1.00  0.00     0.008 C 
HETATM    4  C8  UNL     1      24.223   7.890  13.296  1.00  0.00     0.006 C 
HETATM    5  C16 UNL     1      23.945   6.552  13.892  1.00  0.00     0.040 C 
HETATM    6  C17 UNL     1      24.446   6.329  15.261  1.00  0.00     0.142 C 
ENDROOT
BRANCH   4   7
HETATM    7  C9  UNL     1      24.281   7.851  11.783  1.00  0.00     0.127 C 
BRANCH   7   8
HETATM    8  N2  UNL     1      23.522   6.809  11.180  1.00  0.00    -0.360 N 
HETATM    9  C10 UNL     1      23.634   6.406   9.846  1.00  0.00     0.223 C 
HETATM   10  O1  UNL     1      24.447   6.960   9.066  1.00  0.00    -0.273 OA
ATOM     11  H2  UNL     1      22.845   6.319  11.765  1.00  0.00     0.162 HD
BRANCH   9  12
HETATM   12  C11 UNL     1      22.804   5.311   9.289  1.00  0.00     0.103 C 
HETATM   13  C12 UNL     1      21.425   5.290   9.917  1.00  0.00     0.017 C 
HETATM   14  C13 UNL     1      20.594   4.202   9.343  1.00  0.00     0.028 C 
HETATM   15  C14 UNL     1      20.682   4.035   7.870  1.00  0.00     0.232 C 
HETATM   16  N3  UNL     1      21.984   4.263   7.313  1.00  0.00    -0.074 N 
HETATM   17  C15 UNL     1      22.595   5.481   7.801  1.00  0.00     0.246 C 
ATOM     18  H32 UNL     1      22.594   3.460   7.469  1.00  0.00     0.277 HD
ATOM     19  H31 UNL     1      21.952   4.252   6.293  1.00  0.00     0.277 HD
ENDBRANCH   9  12
ENDBRANCH   7   8
ENDBRANCH   4   7
BRANCH   6  20
HETATM   20  O2  UNL     1      23.509   5.630  16.002  1.00  0.00    -0.393 OA
ATOM     21  H2  UNL     1      23.622   4.688  15.938  1.00  0.00     0.210 HD
ENDBRANCH   6  20
BRANCH   1  22
HETATM   22  N1  UNL     1      25.177   7.515  17.283  1.00  0.00    -0.338 N 
HETATM   23  C4  UNL     1      26.179   6.802  17.809  1.00  0.00     0.117 A 
HETATM   24  C3  UNL     1      26.162   6.948  19.172  1.00  0.00     0.025 A 
HETATM   25  N4  UNL     1      25.123   7.770  19.479  1.00  0.00    -0.348 N 
HETATM   26  C18 UNL     1      24.529   8.109  18.298  1.00  0.00     0.080 A 
ATOM     27  H4  UNL     1      24.843   8.074  20.412  1.00  0.00     0.167 HD
HETATM   28  C19 UNL     1      23.342   9.005  18.227  1.00  0.00     0.089 C 
BRANCH  24  29
HETATM   29  C2  UNL     1      27.113   6.317  20.137  1.00  0.00     0.054 C 
HETATM   30  C1  UNL     1      27.795   7.401  20.926  1.00  0.00     0.011 C 
ENDBRANCH  24  29
ENDBRANCH   1  22
TORSDOF 6
ENDMDL
MODEL 3
REMARK VINA RESULT: -7.562310363      1.960      3.164
REMARK  6 active torsions:
REMARK  status: ('A' for Active; 'I' for Inactive)
REMARK    1  A    between atoms: C2_2  and  C3_3 
REMARK    2  A    between atoms: N1_5  and  C5_6 
REMARK    3  A    between atoms: C8_9  and  C9_10 
REMARK    4  A    between atoms: C9_10  and  N2_11 
REMARK       I    between atoms: N2_11  and  C10_13 
REMARK    5  A    between atoms: C10_13  and  C11_15 
REMARK    6  A    between atoms: C17_24  and  O2_25 
ROOT
HETATM    1  C5  UNL     1      24.483   5.743  15.006  1.00  0.00     0.119 C 
HETATM    2  C6  UNL     1      23.139   6.399  14.669  1.00  0.00     0.029 C 
HETATM    3  C7  UNL     1      22.499   5.529  13.648  1.00  0.00     0.008 C 
HETATM    4  C8  UNL     1      23.399   4.795  12.727  1.00  0.00     0.006 C 
HETATM    5  C16 UNL     1      24.797   5.300  12.608  1.00  0.00     0.040 C 
HETATM    6  C17 UNL     1      25.344   5.994  13.788  1.00  0.00     0.142 C 
ENDROOT
BRANCH   4   7
HETATM    7  C9  UNL     1      22.702   4.696  11.386  1.00  0.00     0.127 C 
BRANCH   7   8
HETATM    8  N2  UNL     1      23.277   5.487  10.351  1.00  0.00    -0.360 N 
HETATM    9  C10 UNL     1      22.844   6.765   9.988  1.00  0.00     0.223 C 
HETATM   10  O1  UNL     1      21.884   7.319  10.579  1.00  0.00    -0.273 OA
ATOM     11  H2  UNL     1      24.062   5.091   9.836  1.00  0.00     0.162 HD
BRANCH   9  12
HETATM   12  C11 UNL     1      23.493   7.528   8.894  1.00  0.00     0.103 C 
HETATM   13  C12 UNL     1      25.002   7.520   9.038  1.00  0.00     0.017 C 
HETATM   14  C13 UNL     1      25.647   8.271   7.931  1.00  0.00     0.028 C 
HETATM   15  C14 UNL     1      25.082   8.033   6.578  1.00  0.00     0.232 C 
HETATM   16  N3  UNL     1      23.660   7.853   6.540  1.00  0.00    -0.074 N 
HETATM   17  C15 UNL     1      23.187   6.922   7.543  1.00  0.00     0.246 C 
ATOM     18  H32 UNL     1      23.175   8.747   6.615  1.00  0.00     0.277 HD
ATOM     19  H31 UNL     1      23.351   7.574   5.609  1.00  0.00     0.277 HD
ENDBRANCH   9  12
ENDBRANCH   7   8
ENDBRANCH   4   7
BRANCH   6  20
HETATM   20  O2  UNL     1      26.665   5.629  13.986  1.00  0.00    -0.393 OA
ATOM     21  H2  UNL     1      26.974   5.012  13.333  1.00  0.00     0.210 HD
ENDBRANCH   6  20
BRANCH   1  22
HETATM   22  N1  UNL     1      25.040   6.248  16.211  1.00  0.00    -0.338 N 
HETATM   23  C4  UNL     1      25.353   5.556  17.312  1.00  0.00     0.117 A 
HETATM   24  C3  UNL     1      25.866   6.415  18.248  1.00  0.00     0.025 A 
HETATM   25  N4  UNL     1      25.864   7.660  17.701  1.00  0.00    -0.348 N 
HETATM   26  C18 UNL     1      25.351   7.535  16.443  1.00  0.00     0.080 A 
ATOM     27  H4  UNL     1      26.185   8.521  18.146  1.00  0.00     0.167 HD
HETATM   28  C19 UNL     1      25.188   8.696  15.526  1.00  0.00     0.089 C 
BRANCH  24  29
HETATM   29  C2  UNL     1      26.340   6.046  19.617  1.00  0.00     0.054 C 
HETATM   30  C1  UNL     1      26.895   7.273  20.287  1.00  0.00     0.011 C 
ENDBRANCH  24  29
ENDBRANCH   1  22
TORSDOF 6
ENDMDL
MODEL 4
REMARK VINA RESULT: -7.545827524      2.282      9.641
REMARK  6 active torsions:
REMARK  status: ('A' for Active; 'I' for Inactive)
REMARK    1  A    between atoms: C2_2  and  C3_3 
REMARK    2  A    between atoms: N1_5  and  C5_6 
REMARK    3  A    between atoms: C8_9  and  C9_10 
REMARK    4  A    between atoms: C9_10  and  N2_11 
REMARK       I    between atoms: N2_11  and  C10_13 
REMARK    5  A    between atoms: C10_13  and  C11_15 
REMARK    6  A    between atoms: C17_24  and  O2_25 
ROOT
HETATM    1  C5  UNL     1      24.593   7.155  15.584  1.00  0.00     0.119 C 
HETATM    2  C6  UNL     1      23.528   6.463  16.444  1.00  0.00     0.029 C 
HETATM    3  C7  UNL     1      23.658   7.043  17.806  1.00  0.00     0.008 C 
HETATM    4  C8  UNL     1      25.010   7.483  18.228  1.00  0.00     0.006 C 
HETATM    5  C16 UNL     1      26.165   6.933  17.462  1.00  0.00     0.040 C 
HETATM    6  C17 UNL     1      25.904   6.567  16.057  1.00  0.00     0.142 C 
ENDROOT
BRANCH   4   7
HETATM    7  C9  UNL     1      25.130   7.236  19.717  1.00  0.00     0.127 C 
BRANCH   7   8
HETATM    8  N2  UNL     1      26.404   7.541  20.274  1.00  0.00    -0.360 N 
HETATM    9  C10 UNL     1      27.362   6.593  20.644  1.00  0.00     0.223 C 
HETATM   10  O1  UNL     1      27.151   5.363  20.498  1.00  0.00    -0.273 OA
ATOM     11  H2  UNL     1      26.634   8.524  20.415  1.00  0.00     0.162 HD
BRANCH   9  12
HETATM   12  C11 UNL     1      28.669   6.989  21.222  1.00  0.00     0.103 C 
HETATM   13  C12 UNL     1      28.818   8.495  21.267  1.00  0.00     0.017 C 
HETATM   14  C13 UNL     1      30.121   8.885  21.863  1.00  0.00     0.028 C 
HETATM   15  C14 UNL     1      30.535   8.116  23.064  1.00  0.00     0.232 C 
HETATM   16  N3  UNL     1      30.186   6.725  23.040  1.00  0.00    -0.074 N 
HETATM   17  C15 UNL     1      28.811   6.500  22.647  1.00  0.00     0.246 C 
ATOM     18  H32 UNL     1      30.827   6.198  22.448  1.00  0.00     0.277 HD
ATOM     19  H31 UNL     1      30.387   6.283  23.937  1.00  0.00     0.277 HD
ENDBRANCH   9  12
ENDBRANCH   7   8
ENDBRANCH   4   7
BRANCH   6  20
HETATM   20  O2  UNL     1      26.973   6.942  15.262  1.00  0.00    -0.393 OA
ATOM     21  H2  UNL     1      27.496   7.632  15.654  1.00  0.00     0.210 HD
ENDBRANCH   6  20
BRANCH   1  22
HETATM   22  N1  UNL     1      24.359   6.977  14.194  1.00  0.00    -0.338 N 
HETATM   23  C4  UNL     1      24.168   5.823  13.546  1.00  0.00     0.117 A 
HETATM   24  C3  UNL     1      23.976   6.085  12.215  1.00  0.00     0.025 A 
HETATM   25  N4  UNL     1      24.054   7.433  12.051  1.00  0.00    -0.348 N 
HETATM   26  C18 UNL     1      24.290   7.965  13.286  1.00  0.00     0.080 A 
ATOM     27  H4  UNL     1      23.954   7.947  11.176  1.00  0.00     0.167 HD
HETATM   28  C19 UNL     1      24.439   9.429  13.512  1.00  0.00     0.089 C 
BRANCH  24  29
HETATM   29  C2  UNL     1      23.729   5.073  11.144  1.00  0.00     0.054 C 
HETATM   30  C1  UNL     1      23.162   3.829  11.772  1.00  0.00     0.011 C 
ENDBRANCH  24  29
ENDBRANCH   1  22
TORSDOF 6
ENDMDL
MODEL 5
REMARK VINA RESULT: -7.515297202      2.058      2.576
REMARK  6 active torsions:
REMARK  status: ('A' for Active; 'I' for Inactive)
REMARK    1  A    between atoms: C2_2  and  C3_3 
REMARK    2  A    between atoms: N1_5  and  C5_6 
REMARK    3  A    between atoms: C8_9  and  C9_10 
REMARK    4  A    between atoms: C9_10  and  N2_11 
REMARK       I    between atoms: N2_11  and  C10_13 
REMARK    5  A    between atoms: C10_13  and  C11_15 
REMARK    6  A    between atoms: C17_24  and  O2_25 
ROOT
HETATM    1  C5  UNL     1      24.176   6.778  18.269  1.00  0.00     0.119 C 
HETATM    2  C6  UNL     1      23.767   8.199  17.862  1.00  0.00     0.029 C 
HETATM    3  C7  UNL     1      22.479   8.064  17.132  1.00  0.00     0.008 C 
HETATM    4  C8  UNL     1      22.263   6.811  16.369  1.00  0.00     0.006 C 
HETATM    5  C16 UNL     1      23.475   6.005  16.042  1.00  0.00     0.040 C 
HETATM    6  C17 UNL     1      24.610   6.123  16.976  1.00  0.00     0.142 C 
ENDROOT
BRANCH   4   7
HETATM    7  C9  UNL     1      21.447   7.156  15.141  1.00  0.00     0.127 C 
BRANCH   7   8
HETATM    8  N2  UNL     1      22.151   7.064  13.907  1.00  0.00    -0.360 N 
HETATM    9  C10 UNL     1      22.750   8.140  13.246  1.00  0.00     0.223 C 
HETATM   10  O1  UNL     1      22.703   9.303  13.719  1.00  0.00    -0.273 OA
ATOM     11  H2  UNL     1      22.224   6.144  13.474  1.00  0.00     0.162 HD
BRANCH   9  12
HETATM   12  C11 UNL     1      23.466   7.965  11.959  1.00  0.00     0.103 C 
HETATM   13  C12 UNL     1      23.722   6.501  11.666  1.00  0.00     0.017 C 
HETATM   14  C13 UNL     1      24.424   6.331  10.369  1.00  0.00     0.028 C 
HETATM   15  C14 UNL     1      23.930   7.180   9.255  1.00  0.00     0.232 C 
HETATM   16  N3  UNL     1      23.516   8.498   9.637  1.00  0.00    -0.074 N 
HETATM   17  C15 UNL     1      22.653   8.498  10.800  1.00  0.00     0.246 C 
ATOM     18  H32 UNL     1      24.322   9.107   9.780  1.00  0.00     0.277 HD
ATOM     19  H31 UNL     1      23.077   8.985   8.856  1.00  0.00     0.277 HD
ENDBRANCH   9  12
ENDBRANCH   7   8
ENDBRANCH   4   7
BRANCH   6  20
HETATM   20  O2  UNL     1      25.191   4.883  17.177  1.00  0.00    -0.393 OA
ATOM     21  H2  UNL     1      26.051   4.814  16.779  1.00  0.00     0.210 HD
ENDBRANCH   6  20
BRANCH   1  22
HETATM   22  N1  UNL     1      25.181   6.776  19.273  1.00  0.00    -0.338 N 
HETATM   23  C4  UNL     1      26.213   7.619  19.387  1.00  0.00     0.117 A 
HETATM   24  C3  UNL     1      26.948   7.276  20.492  1.00  0.00     0.025 A 
HETATM   25  N4  UNL     1      26.346   6.197  21.062  1.00  0.00    -0.348 N 
HETATM   26  C18 UNL     1      25.257   5.905  20.293  1.00  0.00     0.080 A 
ATOM     27  H4  UNL     1      26.650   5.703  21.900  1.00  0.00     0.167 HD
HETATM   28  C19 UNL     1      24.339   4.775  20.602  1.00  0.00     0.089 C 
BRANCH  24  29
HETATM   29  C2  UNL     1      28.183   7.964  20.977  1.00  0.00     0.054 C 
HETATM   30  C1  UNL     1      29.005   6.986  21.772  1.00  0.00     0.011 C 
ENDBRANCH  24  29
ENDBRANCH   1  22
TORSDOF 6
ENDMDL
