MODEL 1
REMARK VINA RESULT: -8.726434451      0.000      0.000
REMARK  6 active torsions:
REMARK  status: ('A' for Active; 'I' for Inactive)
REMARK    1  A    between atoms: C2_2  and  C3_3 
REMARK    2  A    between atoms: C3_3  and  C5_5 
REMARK    3  A    between atoms: N1_7  and  N2_9 
REMARK    4  A    between atoms: C11_18  and  C12_19 
REMARK    5  A    between atoms: C12_19  and  O1_21 
REMARK    6  A    between atoms: C14_23  and  O2_24 
ROOT
HETATM    1  N2  UNL     1      22.181   7.925  20.393  1.00  0.00    -0.298 N 
ATOM      2  H2  UNL     1      21.758   8.849  20.483  1.00  0.00     0.187 HD
HETATM    3  C7  UNL     1      22.118   7.178  21.431  1.00  0.00     0.086 A 
HETATM    4  C8  UNL     1      22.697   5.835  21.472  1.00  0.00     0.035 A 
HETATM    5  C9  UNL     1      23.610   5.151  20.529  1.00  0.00     0.070 C 
HETATM    6  N3  UNL     1      22.274   5.278  22.557  1.00  0.00    -0.351 N 
ATOM      7  H3  UNL     1      22.511   4.332  22.858  1.00  0.00     0.166 HD
HETATM    8  C10 UNL     1      21.429   6.175  23.273  1.00  0.00     0.090 A 
HETATM    9  S1  UNL     1      20.403   6.371  24.664  1.00  0.00    -0.070 SA
HETATM   10  C11 UNL     1      19.867   7.994  24.350  1.00  0.00     0.047 A 
HETATM   11  C14 UNL     1      20.500   8.287  23.200  1.00  0.00     0.096 A 
HETATM   12  C15 UNL     1      21.295   7.393  22.623  1.00  0.00     0.062 A 
ENDROOT
BRANCH   1  13
HETATM   13  N1  UNL     1      22.727   7.649  19.216  1.00  0.00    -0.308 N 
HETATM   14  C5  UNL     1      22.745   8.119  18.037  1.00  0.00     0.003 C 
HETATM   15  C6  UNL     1      23.428   7.203  17.037  1.00  0.00     0.065 C 
ATOM     16  H1  UNL     1      23.303   6.810  19.276  1.00  0.00     0.186 HD
BRANCH  14  17
HETATM   17  C3  UNL     1      22.084   9.292  17.501  1.00  0.00     0.028 C 
HETATM   18  C4  UNL     1      22.246   9.375  15.962  1.00  0.00     0.016 C 
BRANCH  17  19
HETATM   19  C2  UNL     1      20.559   9.272  17.703  1.00  0.00     0.005 C 
HETATM   20  C1  UNL     1      19.945  10.643  17.533  1.00  0.00     0.006 C 
ENDBRANCH  17  19
ENDBRANCH  14  17
ENDBRANCH   1  13
BRANCH  11  21
HETATM   21  O2  UNL     1      20.222   9.602  22.710  1.00  0.00    -0.358 OA
ATOM     22  H2  UNL     1      21.001  10.113  22.524  1.00  0.00     0.217 HD
ENDBRANCH  11  21
BRANCH  10  23
HETATM   23  C12 UNL     1      19.057   8.767  25.317  1.00  0.00     0.157 C 
HETATM   24  C13 UNL     1      19.946   9.273  26.484  1.00  0.00     0.045 C 
BRANCH  23  25
HETATM   25  O1  UNL     1      18.759  10.066  24.688  1.00  0.00    -0.391 OA
ATOM     26  H1  UNL     1      19.189  10.733  25.209  1.00  0.00     0.210 HD
ENDBRANCH  23  25
ENDBRANCH  10  23
TORSDOF 6
ENDMDL
MODEL 2
REMARK VINA RESULT: -8.262623060      1.123      1.532
REMARK  6 active torsions:
REMARK  status: ('A' for Active; 'I' for Inactive)
REMARK    1  A    between atoms: C2_2  and  C3_3 
REMARK    2  A    between atoms: C3_3  and  C5_5 
REMARK    3  A    between atoms: N1_7  and  N2_9 
REMARK    4  A    between atoms: C11_18  and  C12_19 
REMARK    5  A    between atoms: C12_19  and  O1_21 
REMARK    6  A    between atoms: C14_23  and  O2_24 
ROOT
HETATM    1  N2  UNL     1      21.769   8.449  21.364  1.00  0.00    -0.298 N 
ATOM      2  H2  UNL     1      21.457   9.399  21.566  1.00  0.00     0.187 HD
HETATM    3  C7  UNL     1      21.616   7.598  22.307  1.00  0.00     0.086 A 
HETATM    4  C8  UNL     1      22.033   6.200  22.183  1.00  0.00     0.035 A 
HETATM    5  C9  UNL     1      22.863   5.531  21.157  1.00  0.00     0.070 C 
HETATM    6  N3  UNL     1      21.545   5.573  23.199  1.00  0.00    -0.351 N 
ATOM      7  H3  UNL     1      21.668   4.577  23.385  1.00  0.00     0.166 HD
HETATM    8  C10 UNL     1      20.808   6.471  24.025  1.00  0.00     0.090 A 
HETATM    9  S1  UNL     1      19.808   6.620  25.441  1.00  0.00    -0.070 SA
HETATM   10  C11 UNL     1      19.467   8.320  25.326  1.00  0.00     0.047 A 
HETATM   11  C14 UNL     1      20.134   8.672  24.211  1.00  0.00     0.096 A 
HETATM   12  C15 UNL     1      20.820   7.765  23.525  1.00  0.00     0.062 A 
ENDROOT
BRANCH   1  13
HETATM   13  N1  UNL     1      22.283   8.253  20.156  1.00  0.00    -0.308 N 
HETATM   14  C5  UNL     1      21.953   8.407  18.940  1.00  0.00     0.003 C 
HETATM   15  C6  UNL     1      22.939   7.784  17.968  1.00  0.00     0.065 C 
ATOM     16  H1  UNL     1      23.222   7.861  20.226  1.00  0.00     0.186 HD
BRANCH  14  17
HETATM   17  C3  UNL     1      20.726   8.934  18.377  1.00  0.00     0.028 C 
HETATM   18  C4  UNL     1      19.924   9.739  19.431  1.00  0.00     0.016 C 
BRANCH  17  19
HETATM   19  C2  UNL     1      20.967   9.954  17.251  1.00  0.00     0.005 C 
HETATM   20  C1  UNL     1      19.913  11.038  17.231  1.00  0.00     0.006 C 
ENDBRANCH  17  19
ENDBRANCH  14  17
ENDBRANCH   1  13
BRANCH  11  21
HETATM   21  O2  UNL     1      20.013  10.058  23.883  1.00  0.00    -0.358 OA
ATOM     22  H2  UNL     1      20.815  10.552  24.009  1.00  0.00     0.217 HD
ENDBRANCH  11  21
BRANCH  10  23
HETATM   23  C12 UNL     1      18.750   9.063  26.386  1.00  0.00     0.157 C 
HETATM   24  C13 UNL     1      18.788   8.272  27.720  1.00  0.00     0.045 C 
BRANCH  23  25
HETATM   25  O1  UNL     1      19.610  10.194  26.776  1.00  0.00    -0.391 OA
ATOM     26  H1  UNL     1      19.897  10.032  27.667  1.00  0.00     0.210 HD
ENDBRANCH  23  25
ENDBRANCH  10  23
TORSDOF 6
ENDMDL
MODEL 3
REMARK VINA RESULT: -8.211004270      1.519      2.010
REMARK  6 active torsions:
REMARK  status: ('A' for Active; 'I' for Inactive)
REMARK    1  A    between atoms: C2_2  and  C3_3 
REMARK    2  A    between atoms: C3_3  and  C5_5 
REMARK    3  A    between atoms: N1_7  and  N2_9 
REMARK    4  A    between atoms: C11_18  and  C12_19 
REMARK    5  A    between atoms: C12_19  and  O1_21 
REMARK    6  A    between atoms: C14_23  and  O2_24 
ROOT
HETATM    1  N2  UNL     1      23.174   6.983  19.020  1.00  0.00    -0.298 N 
ATOM      2  H2  UNL     1      22.865   7.932  19.232  1.00  0.00     0.187 HD
HETATM    3  C7  UNL     1      23.000   6.119  19.948  1.00  0.00     0.086 A 
HETATM    4  C8  UNL     1      23.409   4.721  19.811  1.00  0.00     0.035 A 
HETATM    5  C9  UNL     1      24.252   4.061  18.789  1.00  0.00     0.070 C 
HETATM    6  N3  UNL     1      22.900   4.082  20.809  1.00  0.00    -0.351 N 
ATOM      7  H3  UNL     1      23.013   3.083  20.982  1.00  0.00     0.166 HD
HETATM    8  C10 UNL     1      22.155   4.973  21.636  1.00  0.00     0.090 A 
HETATM    9  S1  UNL     1      21.132   5.108  23.036  1.00  0.00    -0.070 SA
HETATM   10  C11 UNL     1      20.804   6.812  22.940  1.00  0.00     0.047 A 
HETATM   11  C14 UNL     1      21.492   7.175  21.843  1.00  0.00     0.096 A 
HETATM   12  C15 UNL     1      22.184   6.274  21.155  1.00  0.00     0.062 A 
ENDROOT
BRANCH   1  13
HETATM   13  N1  UNL     1      23.707   6.801  17.819  1.00  0.00    -0.308 N 
HETATM   14  C5  UNL     1      23.750   7.385  16.693  1.00  0.00     0.003 C 
HETATM   15  C6  UNL     1      24.387   6.542  15.603  1.00  0.00     0.065 C 
ATOM     16  H1  UNL     1      24.242   5.932  17.792  1.00  0.00     0.186 HD
BRANCH  14  17
HETATM   17  C3  UNL     1      23.148   8.637  16.281  1.00  0.00     0.028 C 
HETATM   18  C4  UNL     1      22.797   8.622  14.771  1.00  0.00     0.016 C 
BRANCH  17  19
HETATM   19  C2  UNL     1      21.796   8.911  16.961  1.00  0.00     0.005 C 
HETATM   20  C1  UNL     1      21.404  10.369  16.880  1.00  0.00     0.006 C 
ENDBRANCH  17  19
ENDBRANCH  14  17
ENDBRANCH   1  13
BRANCH  11  21
HETATM   21  O2  UNL     1      21.386   8.567  21.533  1.00  0.00    -0.358 OA
ATOM     22  H2  UNL     1      20.491   8.885  21.506  1.00  0.00     0.217 HD
ENDBRANCH  11  21
BRANCH  10  23
HETATM   23  C12 UNL     1      20.074   7.544  23.999  1.00  0.00     0.157 C 
HETATM   24  C13 UNL     1      20.421   6.964  25.396  1.00  0.00     0.045 C 
BRANCH  23  25
HETATM   25  O1  UNL     1      20.723   8.860  24.139  1.00  0.00    -0.391 OA
ATOM     26  H1  UNL     1      21.374   8.777  24.826  1.00  0.00     0.210 HD
ENDBRANCH  23  25
ENDBRANCH  10  23
TORSDOF 6
ENDMDL
MODEL 4
REMARK VINA RESULT: -8.160153595      1.796      2.183
REMARK  6 active torsions:
REMARK  status: ('A' for Active; 'I' for Inactive)
REMARK    1  A    between atoms: C2_2  and  C3_3 
REMARK    2  A    between atoms: C3_3  and  C5_5 
REMARK    3  A    between atoms: N1_7  and  N2_9 
REMARK    4  A    between atoms: C11_18  and  C12_19 
REMARK    5  A    between atoms: C12_19  and  O1_21 
REMARK    6  A    between atoms: C14_23  and  O2_24 
ROOT
HETATM    1  N2  UNL     1      23.045   6.682  19.510  1.00  0.00    -0.298 N 
ATOM      2  H2  UNL     1      22.692   7.631  19.392  1.00  0.00     0.187 HD
HETATM    3  C7  UNL     1      22.840   6.148  20.655  1.00  0.00     0.086 A 
HETATM    4  C8  UNL     1      23.304   4.801  20.991  1.00  0.00     0.035 A 
HETATM    5  C9  UNL     1      24.233   3.897  20.276  1.00  0.00     0.070 C 
HETATM    6  N3  UNL     1      22.753   4.485  22.114  1.00  0.00    -0.351 N 
ATOM      7  H3  UNL     1      22.889   3.599  22.602  1.00  0.00     0.166 HD
HETATM    8  C10 UNL     1      21.928   5.552  22.575  1.00  0.00     0.090 A 
HETATM    9  S1  UNL     1      20.813   6.070  23.806  1.00  0.00    -0.070 SA
HETATM   10  C11 UNL     1      20.436   7.636  23.155  1.00  0.00     0.047 A 
HETATM   11  C14 UNL     1      21.180   7.669  22.035  1.00  0.00     0.096 A 
HETATM   12  C15 UNL     1      21.944   6.633  21.706  1.00  0.00     0.062 A 
ENDROOT
BRANCH   1  13
HETATM   13  N1  UNL     1      23.660   6.157  18.458  1.00  0.00    -0.308 N 
HETATM   14  C5  UNL     1      24.001   6.495  17.283  1.00  0.00     0.003 C 
HETATM   15  C6  UNL     1      24.525   5.336  16.453  1.00  0.00     0.065 C 
ATOM     16  H1  UNL     1      23.941   5.195  18.650  1.00  0.00     0.186 HD
BRANCH  14  17
HETATM   17  C3  UNL     1      23.814   7.756  16.595  1.00  0.00     0.028 C 
HETATM   18  C4  UNL     1      24.975   8.738  16.895  1.00  0.00     0.016 C 
BRANCH  17  19
HETATM   19  C2  UNL     1      23.845   7.620  15.063  1.00  0.00     0.005 C 
HETATM   20  C1  UNL     1      22.790   8.473  14.395  1.00  0.00     0.006 C 
ENDBRANCH  17  19
ENDBRANCH  14  17
ENDBRANCH   1  13
BRANCH  11  21
HETATM   21  O2  UNL     1      21.048   8.884  21.293  1.00  0.00    -0.358 OA
ATOM     22  H2  UNL     1      20.426   9.495  21.669  1.00  0.00     0.217 HD
ENDBRANCH  11  21
BRANCH  10  23
HETATM   23  C12 UNL     1      19.615   8.627  23.887  1.00  0.00     0.157 C 
HETATM   24  C13 UNL     1      19.892   8.537  25.412  1.00  0.00     0.045 C 
BRANCH  23  25
HETATM   25  O1  UNL     1      20.209   9.951  23.633  1.00  0.00    -0.391 OA
ATOM     26  H1  UNL     1      19.614  10.597  23.993  1.00  0.00     0.210 HD
ENDBRANCH  23  25
ENDBRANCH  10  23
TORSDOF 6
ENDMDL
MODEL 5
REMARK VINA RESULT: -8.091590177      4.092      5.827
REMARK  6 active torsions:
REMARK  status: ('A' for Active; 'I' for Inactive)
REMARK    1  A    between atoms: C2_2  and  C3_3 
REMARK    2  A    between atoms: C3_3  and  C5_5 
REMARK    3  A    between atoms: N1_7  and  N2_9 
REMARK    4  A    between atoms: C11_18  and  C12_19 
REMARK    5  A    between atoms: C12_19  and  O1_21 
REMARK    6  A    between atoms: C14_23  and  O2_24 
ROOT
HETATM    1  N2  UNL     1      23.477   6.504  18.660  1.00  0.00    -0.298 N 
ATOM      2  H2  UNL     1      23.140   6.646  19.612  1.00  0.00     0.187 HD
HETATM    3  C7  UNL     1      24.039   5.377  18.429  1.00  0.00     0.086 A 
HETATM    4  C8  UNL     1      24.595   5.026  17.122  1.00  0.00     0.035 A 
HETATM    5  C9  UNL     1      24.849   5.863  15.928  1.00  0.00     0.070 C 
HETATM    6  N3  UNL     1      24.878   3.767  17.161  1.00  0.00    -0.351 N 
ATOM      7  H3  UNL     1      25.282   3.235  16.390  1.00  0.00     0.166 HD
HETATM    8  C10 UNL     1      24.545   3.227  18.438  1.00  0.00     0.090 A 
HETATM    9  S1  UNL     1      24.470   1.784  19.406  1.00  0.00    -0.070 SA
HETATM   10  C11 UNL     1      23.784   2.483  20.841  1.00  0.00     0.047 A 
HETATM   11  C14 UNL     1      23.649   3.776  20.494  1.00  0.00     0.096 A 
HETATM   12  C15 UNL     1      24.019   4.190  19.287  1.00  0.00     0.062 A 
ENDROOT
BRANCH   1  13
HETATM   13  N1  UNL     1      23.278   7.509  17.818  1.00  0.00    -0.308 N 
HETATM   14  C5  UNL     1      22.415   8.411  17.592  1.00  0.00     0.003 C 
HETATM   15  C6  UNL     1      22.666   9.175  16.304  1.00  0.00     0.065 C 
ATOM     16  H1  UNL     1      24.049   7.577  17.153  1.00  0.00     0.186 HD
BRANCH  14  17
HETATM   17  C3  UNL     1      21.174   8.694  18.285  1.00  0.00     0.028 C 
HETATM   18  C4  UNL     1      21.387   8.745  19.820  1.00  0.00     0.016 C 
BRANCH  17  19
HETATM   19  C2  UNL     1      20.600  10.082  17.955  1.00  0.00     0.005 C 
HETATM   20  C1  UNL     1      19.259   9.992  17.262  1.00  0.00     0.006 C 
ENDBRANCH  17  19
ENDBRANCH  14  17
ENDBRANCH   1  13
BRANCH  11  21
HETATM   21  O2  UNL     1      23.090   4.593  21.527  1.00  0.00    -0.358 OA
ATOM     22  H2  UNL     1      22.633   5.359  21.202  1.00  0.00     0.217 HD
ENDBRANCH  11  21
BRANCH  10  23
HETATM   23  C12 UNL     1      23.626   1.724  22.101  1.00  0.00     0.157 C 
HETATM   24  C13 UNL     1      22.979   0.341  21.821  1.00  0.00     0.045 C 
BRANCH  23  25
HETATM   25  O1  UNL     1      24.968   1.263  22.498  1.00  0.00    -0.391 OA
ATOM     26  H1  UNL     1      25.064   1.450  23.424  1.00  0.00     0.210 HD
ENDBRANCH  23  25
ENDBRANCH  10  23
TORSDOF 6
ENDMDL
