MODEL 1
REMARK VINA RESULT: -6.859892972      0.000      0.000
REMARK  6 active torsions:
REMARK  status: ('A' for Active; 'I' for Inactive)
REMARK    1  A    between atoms: S1_2  and  C2_3 
REMARK    2  A    between atoms: C4_6  and  C5_7 
REMARK    3  A    between atoms: C7_11  and  C8_12 
REMARK    4  A    between atoms: C8_12  and  C9_13 
REMARK    5  A    between atoms: C9_13  and  C10_14 
REMARK    6  A    between atoms: C12_17  and  O2_18 
ROOT
HETATM    1  C2  UNL     1      25.722   2.045  18.023  1.00  0.00     0.082 C 
HETATM    2  C3  UNL     1      26.843   2.852  18.436  1.00  0.00     0.106 C 
HETATM    3  N1  UNL     1      27.775   3.497  18.747  1.00  0.00    -0.191 NA
HETATM    4  C4  UNL     1      24.524   2.514  17.888  1.00  0.00     0.051 C 
ENDROOT
BRANCH   1   5
HETATM    5  S1  UNL     1      26.001   0.307  17.610  1.00  0.00    -0.123 SA
HETATM    6  C1  UNL     1      24.865  -0.156  16.307  1.00  0.00     0.096 C 
ENDBRANCH   1   5
BRANCH   4   7
HETATM    7  C5  UNL     1      24.094   3.903  18.178  1.00  0.00     0.042 A 
HETATM    8  S2  UNL     1      23.173   4.460  19.498  1.00  0.00    -0.079 SA
HETATM    9  C6  UNL     1      23.173   6.139  19.131  1.00  0.00     0.066 A 
HETATM   10  S3  UNL     1      22.349   7.366  20.145  1.00  0.00    -0.044 SA
HETATM   11  C7  UNL     1      23.895   6.211  17.986  1.00  0.00     0.023 A 
HETATM   12  C12 UNL     1      24.380   5.044  17.485  1.00  0.00     0.095 A 
BRANCH  11  13
HETATM   13  C8  UNL     1      24.168   7.483  17.288  1.00  0.00     0.020 C 
BRANCH  13  14
HETATM   14  C9  UNL     1      23.396   8.090  16.435  1.00  0.00     0.051 C 
BRANCH  14  15
HETATM   15  C10 UNL     1      23.532   7.822  14.977  1.00  0.00     0.145 C 
HETATM   16  C11 UNL     1      22.664   8.546  14.016  1.00  0.00     0.096 C 
HETATM   17  O1  UNL     1      24.362   6.998  14.548  1.00  0.00    -0.294 OA
ENDBRANCH  14  15
ENDBRANCH  13  14
ENDBRANCH  11  13
BRANCH  12  18
HETATM   18  O2  UNL     1      25.164   4.903  16.303  1.00  0.00    -0.358 OA
ATOM     19  H2  UNL     1      25.963   5.414  16.253  1.00  0.00     0.217 HD
ENDBRANCH  12  18
ENDBRANCH   4   7
TORSDOF 6
ENDMDL
MODEL 2
REMARK VINA RESULT: -6.551884194      4.874      7.299
REMARK  6 active torsions:
REMARK  status: ('A' for Active; 'I' for Inactive)
REMARK    1  A    between atoms: S1_2  and  C2_3 
REMARK    2  A    between atoms: C4_6  and  C5_7 
REMARK    3  A    between atoms: C7_11  and  C8_12 
REMARK    4  A    between atoms: C8_12  and  C9_13 
REMARK    5  A    between atoms: C9_13  and  C10_14 
REMARK    6  A    between atoms: C12_17  and  O2_18 
ROOT
HETATM    1  C2  UNL     1      20.122   8.291  23.912  1.00  0.00     0.082 C 
HETATM    2  C3  UNL     1      20.049   6.851  23.897  1.00  0.00     0.106 C 
HETATM    3  N1  UNL     1      19.958   5.679  23.895  1.00  0.00    -0.191 NA
HETATM    4  C4  UNL     1      20.587   8.986  22.926  1.00  0.00     0.051 C 
ENDROOT
BRANCH   1   5
HETATM    5  S1  UNL     1      19.479   9.183  25.348  1.00  0.00    -0.123 SA
HETATM    6  C1  UNL     1      19.991   8.318  26.829  1.00  0.00     0.096 C 
ENDBRANCH   1   5
BRANCH   4   7
HETATM    7  C5  UNL     1      21.159   8.444  21.671  1.00  0.00     0.042 A 
HETATM    8  S2  UNL     1      22.279   7.173  21.493  1.00  0.00    -0.079 SA
HETATM    9  C6  UNL     1      22.368   7.136  19.778  1.00  0.00     0.066 A 
HETATM   10  S3  UNL     1      23.407   5.989  18.872  1.00  0.00    -0.044 SA
HETATM   11  C7  UNL     1      21.517   8.120  19.396  1.00  0.00     0.023 A 
HETATM   12  C12 UNL     1      20.882   8.806  20.384  1.00  0.00     0.095 A 
BRANCH  11  13
HETATM   13  C8  UNL     1      21.262   8.457  17.982  1.00  0.00     0.020 C 
BRANCH  13  14
HETATM   14  C9  UNL     1      21.904   9.325  17.256  1.00  0.00     0.051 C 
BRANCH  14  15
HETATM   15  C10 UNL     1      22.982   8.878  16.331  1.00  0.00     0.145 C 
HETATM   16  C11 UNL     1      22.674   8.670  14.895  1.00  0.00     0.096 C 
HETATM   17  O1  UNL     1      24.140   8.674  16.742  1.00  0.00    -0.294 OA
ENDBRANCH  14  15
ENDBRANCH  13  14
ENDBRANCH  11  13
BRANCH  12  18
HETATM   18  O2  UNL     1      19.948   9.866  20.197  1.00  0.00    -0.358 OA
ATOM     19  H2  UNL     1      19.026   9.638  20.226  1.00  0.00     0.217 HD
ENDBRANCH  12  18
ENDBRANCH   4   7
TORSDOF 6
ENDMDL
MODEL 3
REMARK VINA RESULT: -6.494766939      1.215      1.299
REMARK  6 active torsions:
REMARK  status: ('A' for Active; 'I' for Inactive)
REMARK    1  A    between atoms: S1_2  and  C2_3 
REMARK    2  A    between atoms: C4_6  and  C5_7 
REMARK    3  A    between atoms: C7_11  and  C8_12 
REMARK    4  A    between atoms: C8_12  and  C9_13 
REMARK    5  A    between atoms: C9_13  and  C10_14 
REMARK    6  A    between atoms: C12_17  and  O2_18 
ROOT
HETATM    1  C2  UNL     1      25.803   1.990  17.932  1.00  0.00     0.082 C 
HETATM    2  C3  UNL     1      26.900   2.824  18.357  1.00  0.00     0.106 C 
HETATM    3  N1  UNL     1      27.811   3.494  18.675  1.00  0.00    -0.191 NA
HETATM    4  C4  UNL     1      24.572   2.388  17.930  1.00  0.00     0.051 C 
ENDROOT
BRANCH   1   5
HETATM    5  S1  UNL     1      26.157   0.329  17.310  1.00  0.00    -0.123 SA
HETATM    6  C1  UNL     1      24.785  -0.198  16.289  1.00  0.00     0.096 C 
ENDBRANCH   1   5
BRANCH   4   7
HETATM    7  C5  UNL     1      24.080   3.704  18.401  1.00  0.00     0.042 A 
HETATM    8  S2  UNL     1      23.362   4.079  19.899  1.00  0.00    -0.079 SA
HETATM    9  C6  UNL     1      23.150   5.770  19.676  1.00  0.00     0.066 A 
HETATM   10  S3  UNL     1      22.415   6.840  20.912  1.00  0.00    -0.044 SA
HETATM   11  C7  UNL     1      23.650   5.989  18.435  1.00  0.00     0.023 A 
HETATM   12  C12 UNL     1      24.138   4.911  17.765  1.00  0.00     0.095 A 
BRANCH  11  13
HETATM   13  C8  UNL     1      23.682   7.324  17.807  1.00  0.00     0.020 C 
BRANCH  13  14
HETATM   14  C9  UNL     1      22.697   8.168  17.708  1.00  0.00     0.051 C 
BRANCH  14  15
HETATM   15  C10 UNL     1      22.523   8.976  16.469  1.00  0.00     0.145 C 
HETATM   16  C11 UNL     1      22.986   8.431  15.170  1.00  0.00     0.096 C 
HETATM   17  O1  UNL     1      21.995  10.104  16.505  1.00  0.00    -0.294 OA
ENDBRANCH  14  15
ENDBRANCH  13  14
ENDBRANCH  11  13
BRANCH  12  18
HETATM   18  O2  UNL     1      24.710   4.927  16.460  1.00  0.00    -0.358 OA
ATOM     19  H2  UNL     1      25.285   5.653  16.250  1.00  0.00     0.217 HD
ENDBRANCH  12  18
ENDBRANCH   4   7
TORSDOF 6
ENDMDL
MODEL 4
REMARK VINA RESULT: -6.319042913      3.296      3.892
REMARK  6 active torsions:
REMARK  status: ('A' for Active; 'I' for Inactive)
REMARK    1  A    between atoms: S1_2  and  C2_3 
REMARK    2  A    between atoms: C4_6  and  C5_7 
REMARK    3  A    between atoms: C7_11  and  C8_12 
REMARK    4  A    between atoms: C8_12  and  C9_13 
REMARK    5  A    between atoms: C9_13  and  C10_14 
REMARK    6  A    between atoms: C12_17  and  O2_18 
ROOT
HETATM    1  C2  UNL     1      23.349   3.066  20.615  1.00  0.00     0.082 C 
HETATM    2  C3  UNL     1      22.003   2.773  21.042  1.00  0.00     0.106 C 
HETATM    3  N1  UNL     1      20.919   2.512  21.412  1.00  0.00    -0.191 NA
HETATM    4  C4  UNL     1      23.805   4.269  20.487  1.00  0.00     0.051 C 
ENDROOT
BRANCH   1   5
HETATM    5  S1  UNL     1      24.484   1.693  20.301  1.00  0.00    -0.123 SA
HETATM    6  C1  UNL     1      25.353   2.016  18.770  1.00  0.00     0.096 C 
ENDBRANCH   1   5
BRANCH   4   7
HETATM    7  C5  UNL     1      23.035   5.519  20.694  1.00  0.00     0.042 A 
HETATM    8  S2  UNL     1      22.226   6.030  22.103  1.00  0.00    -0.079 SA
HETATM    9  C6  UNL     1      21.663   7.555  21.546  1.00  0.00     0.066 A 
HETATM   10  S3  UNL     1      20.694   8.674  22.559  1.00  0.00    -0.044 SA
HETATM   11  C7  UNL     1      22.126   7.617  20.274  1.00  0.00     0.023 A 
HETATM   12  C12 UNL     1      22.845   6.555  19.824  1.00  0.00     0.095 A 
BRANCH  11  13
HETATM   13  C8  UNL     1      21.884   8.772  19.387  1.00  0.00     0.020 C 
BRANCH  13  14
HETATM   14  C9  UNL     1      21.097   8.814  18.352  1.00  0.00     0.051 C 
BRANCH  14  15
HETATM   15  C10 UNL     1      21.460   9.639  17.166  1.00  0.00     0.145 C 
HETATM   16  C11 UNL     1      22.386   9.086  16.148  1.00  0.00     0.096 C 
HETATM   17  O1  UNL     1      21.001  10.787  17.014  1.00  0.00    -0.294 OA
ENDBRANCH  14  15
ENDBRANCH  13  14
ENDBRANCH  11  13
BRANCH  12  18
HETATM   18  O2  UNL     1      23.423   6.425  18.528  1.00  0.00    -0.358 OA
ATOM     19  H2  UNL     1      22.948   6.813  17.803  1.00  0.00     0.217 HD
ENDBRANCH  12  18
ENDBRANCH   4   7
TORSDOF 6
ENDMDL
MODEL 5
REMARK VINA RESULT: -6.157183674      3.488      4.062
REMARK  6 active torsions:
REMARK  status: ('A' for Active; 'I' for Inactive)
REMARK    1  A    between atoms: S1_2  and  C2_3 
REMARK    2  A    between atoms: C4_6  and  C5_7 
REMARK    3  A    between atoms: C7_11  and  C8_12 
REMARK    4  A    between atoms: C8_12  and  C9_13 
REMARK    5  A    between atoms: C9_13  and  C10_14 
REMARK    6  A    between atoms: C12_17  and  O2_18 
ROOT
HETATM    1  C2  UNL     1      22.832   2.705  21.058  1.00  0.00     0.082 C 
HETATM    2  C3  UNL     1      21.445   2.538  21.418  1.00  0.00     0.106 C 
HETATM    3  N1  UNL     1      20.325   2.378  21.733  1.00  0.00    -0.191 NA
HETATM    4  C4  UNL     1      23.403   3.861  20.960  1.00  0.00     0.051 C 
ENDROOT
BRANCH   1   5
HETATM    5  S1  UNL     1      23.848   1.233  20.790  1.00  0.00    -0.123 SA
HETATM    6  C1  UNL     1      23.762   0.793  19.057  1.00  0.00     0.096 C 
ENDBRANCH   1   5
BRANCH   4   7
HETATM    7  C5  UNL     1      22.744   5.176  21.137  1.00  0.00     0.042 A 
HETATM    8  S2  UNL     1      21.871   5.737  22.489  1.00  0.00    -0.079 SA
HETATM    9  C6  UNL     1      21.509   7.321  21.931  1.00  0.00     0.066 A 
HETATM   10  S3  UNL     1      20.571   8.510  22.891  1.00  0.00    -0.044 SA
HETATM   11  C7  UNL     1      22.083   7.363  20.704  1.00  0.00     0.023 A 
HETATM   12  C12 UNL     1      22.731   6.243  20.285  1.00  0.00     0.095 A 
BRANCH  11  13
HETATM   13  C8  UNL     1      22.031   8.554  19.833  1.00  0.00     0.020 C 
BRANCH  13  14
HETATM   14  C9  UNL     1      21.285   8.724  18.781  1.00  0.00     0.051 C 
BRANCH  14  15
HETATM   15  C10 UNL     1      21.909   8.918  17.443  1.00  0.00     0.145 C 
HETATM   16  C11 UNL     1      21.605  10.144  16.666  1.00  0.00     0.096 C 
HETATM   17  O1  UNL     1      22.683   8.067  16.963  1.00  0.00    -0.294 OA
ENDBRANCH  14  15
ENDBRANCH  13  14
ENDBRANCH  11  13
BRANCH  12  18
HETATM   18  O2  UNL     1      23.402   6.083  19.038  1.00  0.00    -0.358 OA
ATOM     19  H2  UNL     1      23.810   6.856  18.667  1.00  0.00     0.217 HD
ENDBRANCH  12  18
ENDBRANCH   4   7
TORSDOF 6
ENDMDL
