MODEL 1
REMARK VINA RESULT: -7.811508848      0.000      0.000
REMARK  6 active torsions:
REMARK  status: ('A' for Active; 'I' for Inactive)
REMARK    1  A    between atoms: O1_2  and  C2_3 
REMARK    2  A    between atoms: C4_5  and  C5_6 
REMARK    3  A    between atoms: C6_7  and  C7_8 
REMARK    4  A    between atoms: N3_15  and  N4_16 
REMARK    5  A    between atoms: C14_23  and  O2_24 
REMARK    6  A    between atoms: C16_26  and  O3_27 
ROOT
HETATM    1  C5  UNL     1      28.542   1.973  16.604  1.00  0.00     0.016 C 
HETATM    2  C6  UNL     1      28.016   1.840  17.765  1.00  0.00     0.052 C 
ENDROOT
BRANCH   1   3
HETATM    3  C4  UNL     1      28.069   2.382  15.311  1.00  0.00    -0.025 A 
HETATM    4  C3  UNL     1      28.546   3.629  14.860  1.00  0.00     0.051 A 
HETATM    5  C2  UNL     1      28.271   4.129  13.624  1.00  0.00     0.104 A 
HETATM    6  C16 UNL     1      27.477   3.345  12.789  1.00  0.00     0.133 A 
HETATM    7  C14 UNL     1      26.998   2.127  13.194  1.00  0.00     0.110 A 
HETATM    8  C12 UNL     1      27.293   1.637  14.456  1.00  0.00    -0.015 A 
HETATM    9  C13 UNL     1      26.854   0.237  14.796  1.00  0.00     0.052 C 
BRANCH   5  10
HETATM   10  O1  UNL     1      28.747   5.360  13.194  1.00  0.00    -0.353 OA
HETATM   11  C1  UNL     1      28.187   6.522  13.772  1.00  0.00     0.210 C 
ENDBRANCH   5  10
BRANCH   6  12
HETATM   12  O3  UNL     1      27.205   3.876  11.531  1.00  0.00    -0.356 OA
ATOM     13  H3  UNL     1      27.658   3.471  10.802  1.00  0.00     0.218 HD
ENDBRANCH   6  12
BRANCH   7  14
HETATM   14  O2  UNL     1      26.217   1.379  12.346  1.00  0.00    -0.352 OA
HETATM   15  C15 UNL     1      26.752   0.604  11.292  1.00  0.00     0.210 C 
ENDBRANCH   7  14
ENDBRANCH   1   3
BRANCH   2  16
HETATM   16  C7  UNL     1      26.690   2.067  18.289  1.00  0.00     0.144 A 
HETATM   17  N1  UNL     1      25.850   3.085  18.042  1.00  0.00    -0.282 N 
HETATM   18  N2  UNL     1      24.723   2.926  18.710  1.00  0.00    -0.273 N 
ATOM     19  H1  UNL     1      26.055   3.871  17.425  1.00  0.00     0.188 HD
HETATM   20  C8  UNL     1      24.820   1.782  19.409  1.00  0.00     0.214 A 
ATOM     21  H2  UNL     1      23.922   3.558  18.697  1.00  0.00     0.189 HD
HETATM   22  S1  UNL     1      23.623   1.202  20.387  1.00  0.00    -0.037 SA
HETATM   23  N3  UNL     1      26.010   1.250  19.163  1.00  0.00    -0.211 N 
BRANCH  23  24
HETATM   24  N4  UNL     1      26.506   0.075  19.682  1.00  0.00    -0.299 N 
HETATM   25  C9  UNL     1      26.387  -1.089  19.196  1.00  0.00    -0.004 C 
HETATM   26  C10 UNL     1      25.670  -1.421  17.940  1.00  0.00     0.064 C 
HETATM   27  C11 UNL     1      27.013  -2.222  19.939  1.00  0.00     0.064 C 
ATOM     28  H4  UNL     1      27.027   0.150  20.555  1.00  0.00     0.187 HD
ENDBRANCH  23  24
ENDBRANCH   2  16
TORSDOF 6
ENDMDL
MODEL 2
REMARK VINA RESULT: -7.597499324      1.451      3.052
REMARK  6 active torsions:
REMARK  status: ('A' for Active; 'I' for Inactive)
REMARK    1  A    between atoms: O1_2  and  C2_3 
REMARK    2  A    between atoms: C4_5  and  C5_6 
REMARK    3  A    between atoms: C6_7  and  C7_8 
REMARK    4  A    between atoms: N3_15  and  N4_16 
REMARK    5  A    between atoms: C14_23  and  O2_24 
REMARK    6  A    between atoms: C16_26  and  O3_27 
ROOT
HETATM    1  C5  UNL     1      27.021  -0.470  15.335  1.00  0.00     0.016 C 
HETATM    2  C6  UNL     1      26.287  -0.784  16.339  1.00  0.00     0.052 C 
ENDROOT
BRANCH   1   3
HETATM    3  C4  UNL     1      27.202   0.707  14.533  1.00  0.00    -0.025 A 
HETATM    4  C3  UNL     1      26.679   0.633  13.226  1.00  0.00     0.051 A 
HETATM    5  C2  UNL     1      26.684   1.684  12.362  1.00  0.00     0.104 A 
HETATM    6  C16 UNL     1      27.239   2.877  12.821  1.00  0.00     0.133 A 
HETATM    7  C14 UNL     1      27.754   2.985  14.086  1.00  0.00     0.110 A 
HETATM    8  C12 UNL     1      27.737   1.903  14.950  1.00  0.00    -0.015 A 
HETATM    9  C13 UNL     1      28.192   2.118  16.370  1.00  0.00     0.052 C 
BRANCH   5  10
HETATM   10  O1  UNL     1      26.166   1.596  11.077  1.00  0.00    -0.353 OA
HETATM   11  C1  UNL     1      25.268   0.539  10.798  1.00  0.00     0.210 C 
ENDBRANCH   5  10
BRANCH   6  12
HETATM   12  O3  UNL     1      27.236   3.939  11.921  1.00  0.00    -0.356 OA
ATOM     13  H3  UNL     1      28.049   4.422  11.844  1.00  0.00     0.218 HD
ENDBRANCH   6  12
BRANCH   7  14
HETATM   14  O2  UNL     1      28.294   4.176  14.509  1.00  0.00    -0.352 OA
HETATM   15  C15 UNL     1      29.504   4.696  13.994  1.00  0.00     0.210 C 
ENDBRANCH   7  14
ENDBRANCH   1   3
BRANCH   2  16
HETATM   16  C7  UNL     1      25.313  -0.063  17.123  1.00  0.00     0.144 A 
HETATM   17  N1  UNL     1      24.325   0.745  16.704  1.00  0.00    -0.282 N 
HETATM   18  N2  UNL     1      23.642   1.210  17.732  1.00  0.00    -0.273 N 
ATOM     19  H1  UNL     1      24.131   0.966  15.727  1.00  0.00     0.188 HD
HETATM   20  C8  UNL     1      24.188   0.701  18.850  1.00  0.00     0.214 A 
ATOM     21  H2  UNL     1      22.843   1.843  17.686  1.00  0.00     0.189 HD
HETATM   22  S1  UNL     1      23.635   1.029  20.370  1.00  0.00    -0.037 SA
HETATM   23  N3  UNL     1      25.204  -0.074  18.495  1.00  0.00    -0.211 N 
BRANCH  23  24
HETATM   24  N4  UNL     1      26.028  -0.784  19.339  1.00  0.00    -0.299 N 
HETATM   25  C9  UNL     1      25.922  -2.003  19.668  1.00  0.00    -0.004 C 
HETATM   26  C10 UNL     1      24.860  -2.926  19.196  1.00  0.00     0.064 C 
HETATM   27  C11 UNL     1      26.939  -2.562  20.605  1.00  0.00     0.064 C 
ATOM     28  H4  UNL     1      26.810  -0.272  19.745  1.00  0.00     0.187 HD
ENDBRANCH  23  24
ENDBRANCH   2  16
TORSDOF 6
ENDMDL
MODEL 3
REMARK VINA RESULT: -7.538289897      1.219      3.082
REMARK  6 active torsions:
REMARK  status: ('A' for Active; 'I' for Inactive)
REMARK    1  A    between atoms: O1_2  and  C2_3 
REMARK    2  A    between atoms: C4_5  and  C5_6 
REMARK    3  A    between atoms: C6_7  and  C7_8 
REMARK    4  A    between atoms: N3_15  and  N4_16 
REMARK    5  A    between atoms: C14_23  and  O2_24 
REMARK    6  A    between atoms: C16_26  and  O3_27 
ROOT
HETATM    1  C5  UNL     1      28.341   1.859  17.160  1.00  0.00     0.016 C 
HETATM    2  C6  UNL     1      27.831   2.160  18.297  1.00  0.00     0.052 C 
ENDROOT
BRANCH   1   3
HETATM    3  C4  UNL     1      27.819   1.545  15.860  1.00  0.00    -0.025 A 
HETATM    4  C3  UNL     1      27.164   0.301  15.756  1.00  0.00     0.051 A 
HETATM    5  C2  UNL     1      26.535  -0.116  14.624  1.00  0.00     0.104 A 
HETATM    6  C16 UNL     1      26.557   0.751  13.533  1.00  0.00     0.133 A 
HETATM    7  C14 UNL     1      27.182   1.968  13.600  1.00  0.00     0.110 A 
HETATM    8  C12 UNL     1      27.815   2.374  14.763  1.00  0.00    -0.015 A 
HETATM    9  C13 UNL     1      28.366   3.774  14.823  1.00  0.00     0.052 C 
BRANCH   5  10
HETATM   10  O1  UNL     1      25.895  -1.345  14.535  1.00  0.00    -0.353 OA
HETATM   11  C1  UNL     1      26.670  -2.467  14.158  1.00  0.00     0.210 C 
ENDBRANCH   5  10
BRANCH   6  12
HETATM   12  O3  UNL     1      25.910   0.304  12.384  1.00  0.00    -0.356 OA
ATOM     13  H3  UNL     1      26.469  -0.046  11.701  1.00  0.00     0.218 HD
ENDBRANCH   6  12
BRANCH   7  14
HETATM   14  O2  UNL     1      27.186   2.800  12.505  1.00  0.00    -0.352 OA
HETATM   15  C15 UNL     1      28.247   2.838  11.573  1.00  0.00     0.210 C 
ENDBRANCH   7  14
ENDBRANCH   1   3
BRANCH   2  16
HETATM   16  C7  UNL     1      26.477   2.336  18.766  1.00  0.00     0.144 A 
HETATM   17  N1  UNL     1      25.641   3.366  18.558  1.00  0.00    -0.282 N 
HETATM   18  N2  UNL     1      24.481   3.146  19.148  1.00  0.00    -0.273 N 
ATOM     19  H1  UNL     1      25.870   4.201  18.019  1.00  0.00     0.188 HD
HETATM   20  C8  UNL     1      24.553   1.949  19.757  1.00  0.00     0.214 A 
ATOM     21  H2  UNL     1      23.676   3.771  19.144  1.00  0.00     0.189 HD
HETATM   22  S1  UNL     1      23.312   1.284  20.618  1.00  0.00    -0.037 SA
HETATM   23  N3  UNL     1      25.760   1.446  19.533  1.00  0.00    -0.211 N 
BRANCH  23  24
HETATM   24  N4  UNL     1      26.239   0.235  19.980  1.00  0.00    -0.299 N 
HETATM   25  C9  UNL     1      26.028  -0.907  19.476  1.00  0.00    -0.004 C 
HETATM   26  C10 UNL     1      25.199  -1.171  18.274  1.00  0.00     0.064 C 
HETATM   27  C11 UNL     1      26.657  -2.088  20.138  1.00  0.00     0.064 C 
ATOM     28  H4  UNL     1      26.831   0.262  20.810  1.00  0.00     0.187 HD
ENDBRANCH  23  24
ENDBRANCH   2  16
TORSDOF 6
ENDMDL
MODEL 4
REMARK VINA RESULT: -7.341552495      7.886      9.770
REMARK  6 active torsions:
REMARK  status: ('A' for Active; 'I' for Inactive)
REMARK    1  A    between atoms: O1_2  and  C2_3 
REMARK    2  A    between atoms: C4_5  and  C5_6 
REMARK    3  A    between atoms: C6_7  and  C7_8 
REMARK    4  A    between atoms: N3_15  and  N4_16 
REMARK    5  A    between atoms: C14_23  and  O2_24 
REMARK    6  A    between atoms: C16_26  and  O3_27 
ROOT
HETATM    1  C5  UNL     1      23.565   4.827  22.780  1.00  0.00     0.016 C 
HETATM    2  C6  UNL     1      23.464   3.562  22.597  1.00  0.00     0.052 C 
ENDROOT
BRANCH   1   3
HETATM    3  C4  UNL     1      22.687   5.953  22.623  1.00  0.00    -0.025 A 
HETATM    4  C3  UNL     1      22.798   6.639  21.397  1.00  0.00     0.051 A 
HETATM    5  C2  UNL     1      21.984   7.672  21.046  1.00  0.00     0.104 A 
HETATM    6  C16 UNL     1      21.005   8.044  21.965  1.00  0.00     0.133 A 
HETATM    7  C14 UNL     1      20.868   7.398  23.165  1.00  0.00     0.110 A 
HETATM    8  C12 UNL     1      21.705   6.347  23.501  1.00  0.00    -0.015 A 
HETATM    9  C13 UNL     1      21.422   5.588  24.770  1.00  0.00     0.052 C 
BRANCH   5  10
HETATM   10  O1  UNL     1      22.105   8.339  19.835  1.00  0.00    -0.353 OA
HETATM   11  C1  UNL     1      21.759   7.636  18.657  1.00  0.00     0.210 C 
ENDBRANCH   5  10
BRANCH   6  12
HETATM   12  O3  UNL     1      20.185   9.104  21.588  1.00  0.00    -0.356 OA
ATOM     13  H3  UNL     1      20.143   9.834  22.194  1.00  0.00     0.218 HD
ENDBRANCH   6  12
BRANCH   7  14
HETATM   14  O2  UNL     1      19.891   7.790  24.049  1.00  0.00    -0.352 OA
HETATM   15  C15 UNL     1      20.088   8.810  25.009  1.00  0.00     0.210 C 
ENDBRANCH   7  14
ENDBRANCH   1   3
BRANCH   2  16
HETATM   16  C7  UNL     1      22.389   2.702  22.161  1.00  0.00     0.144 A 
HETATM   17  N1  UNL     1      22.060   2.333  20.912  1.00  0.00    -0.282 N 
HETATM   18  N2  UNL     1      21.015   1.528  20.929  1.00  0.00    -0.273 N 
ATOM     19  H1  UNL     1      22.550   2.633  20.070  1.00  0.00     0.188 HD
HETATM   20  C8  UNL     1      20.647   1.363  22.212  1.00  0.00     0.214 A 
ATOM     21  H2  UNL     1      20.566   1.108  20.116  1.00  0.00     0.189 HD
HETATM   22  S1  UNL     1      19.374   0.425  22.686  1.00  0.00    -0.037 SA
HETATM   23  N3  UNL     1      21.473   2.070  22.971  1.00  0.00    -0.211 N 
BRANCH  23  24
HETATM   24  N4  UNL     1      21.442   2.171  24.343  1.00  0.00    -0.299 N 
HETATM   25  C9  UNL     1      22.054   1.443  25.180  1.00  0.00    -0.004 C 
HETATM   26  C10 UNL     1      22.946   0.309  24.834  1.00  0.00     0.064 C 
HETATM   27  C11 UNL     1      21.868   1.741  26.631  1.00  0.00     0.064 C 
ATOM     28  H4  UNL     1      20.862   2.915  24.730  1.00  0.00     0.187 HD
ENDBRANCH  23  24
ENDBRANCH   2  16
TORSDOF 6
ENDMDL
MODEL 5
REMARK VINA RESULT: -7.240921076      7.686      9.802
REMARK  6 active torsions:
REMARK  status: ('A' for Active; 'I' for Inactive)
REMARK    1  A    between atoms: O1_2  and  C2_3 
REMARK    2  A    between atoms: C4_5  and  C5_6 
REMARK    3  A    between atoms: C6_7  and  C7_8 
REMARK    4  A    between atoms: N3_15  and  N4_16 
REMARK    5  A    between atoms: C14_23  and  O2_24 
REMARK    6  A    between atoms: C16_26  and  O3_27 
ROOT
HETATM    1  C5  UNL     1      23.119   4.755  23.166  1.00  0.00     0.016 C 
HETATM    2  C6  UNL     1      23.011   3.479  23.103  1.00  0.00     0.052 C 
ENDROOT
BRANCH   1   3
HETATM    3  C4  UNL     1      22.395   5.868  22.620  1.00  0.00    -0.025 A 
HETATM    4  C3  UNL     1      21.402   6.413  23.459  1.00  0.00     0.051 A 
HETATM    5  C2  UNL     1      20.683   7.522  23.137  1.00  0.00     0.104 A 
HETATM    6  C16 UNL     1      20.966   8.126  21.913  1.00  0.00     0.133 A 
HETATM    7  C14 UNL     1      21.926   7.625  21.074  1.00  0.00     0.110 A 
HETATM    8  C12 UNL     1      22.648   6.495  21.423  1.00  0.00    -0.015 A 
HETATM    9  C13 UNL     1      23.781   6.070  20.526  1.00  0.00     0.052 C 
BRANCH   5  10
HETATM   10  O1  UNL     1      19.707   8.048  23.973  1.00  0.00    -0.353 OA
HETATM   11  C1  UNL     1      20.133   8.766  25.115  1.00  0.00     0.210 C 
ENDBRANCH   5  10
BRANCH   6  12
HETATM   12  O3  UNL     1      20.217   9.258  21.603  1.00  0.00    -0.356 OA
ATOM     13  H3  UNL     1      19.488   9.124  21.010  1.00  0.00     0.218 HD
ENDBRANCH   6  12
BRANCH   7  14
HETATM   14  O2  UNL     1      22.181   8.244  19.874  1.00  0.00    -0.352 OA
HETATM   15  C15 UNL     1      21.419   8.002  18.708  1.00  0.00     0.210 C 
ENDBRANCH   7  14
ENDBRANCH   1   3
BRANCH   2  16
HETATM   16  C7  UNL     1      22.079   2.591  22.450  1.00  0.00     0.144 A 
HETATM   17  N1  UNL     1      22.116   2.102  21.200  1.00  0.00    -0.282 N 
HETATM   18  N2  UNL     1      21.080   1.314  20.982  1.00  0.00    -0.273 N 
ATOM     19  H1  UNL     1      22.842   2.311  20.515  1.00  0.00     0.188 HD
HETATM   20  C8  UNL     1      20.347   1.281  22.108  1.00  0.00     0.214 A 
ATOM     21  H2  UNL     1      20.874   0.818  20.115  1.00  0.00     0.189 HD
HETATM   22  S1  UNL     1      18.956   0.408  22.270  1.00  0.00    -0.037 SA
HETATM   23  N3  UNL     1      20.942   2.053  23.008  1.00  0.00    -0.211 N 
BRANCH  23  24
HETATM   24  N4  UNL     1      20.514   2.290  24.295  1.00  0.00    -0.299 N 
HETATM   25  C9  UNL     1      20.795   1.621  25.333  1.00  0.00    -0.004 C 
HETATM   26  C10 UNL     1      21.661   0.416  25.364  1.00  0.00     0.064 C 
HETATM   27  C11 UNL     1      20.211   2.070  26.631  1.00  0.00     0.064 C 
ATOM     28  H4  UNL     1      19.903   3.096  24.428  1.00  0.00     0.187 HD
ENDBRANCH  23  24
ENDBRANCH   2  16
TORSDOF 6
ENDMDL
