MODEL 1
REMARK VINA RESULT: -7.106208669      0.000      0.000
REMARK  8 active torsions:
REMARK  status: ('A' for Active; 'I' for Inactive)
REMARK    1  A    between atoms: C2_2  and  C3_3 
REMARK    2  A    between atoms: C3_3  and  C4_4 
REMARK    3  A    between atoms: C4_4  and  O1_5 
REMARK    4  A    between atoms: O1_5  and  C5_6 
REMARK    5  A    between atoms: C5_6  and  C6_8 
REMARK    6  A    between atoms: C9_12  and  N1_13 
REMARK    7  A    between atoms: C10_14  and  O3_15 
REMARK    8  A    between atoms: C13_19  and  O4_20 
ROOT
HETATM    1  C6  UNL     1      26.814  -0.629  17.641  1.00  0.00     0.060 A 
HETATM    2  C7  UNL     1      26.271  -1.655  18.367  1.00  0.00    -0.002 A 
HETATM    3  C8  UNL     1      26.536  -3.126  18.256  1.00  0.00     0.057 C 
HETATM    4  S1  UNL     1      25.213  -0.873  19.440  1.00  0.00    -0.075 SA
HETATM    5  C9  UNL     1      25.472   0.740  18.955  1.00  0.00     0.092 A 
HETATM    6  C15 UNL     1      26.393   0.620  17.951  1.00  0.00    -0.010 A 
HETATM    7  C16 UNL     1      26.883   1.884  17.255  1.00  0.00     0.052 C 
ENDROOT
BRANCH   5   8
HETATM    8  N1  UNL     1      24.874   1.956  19.467  1.00  0.00    -0.264 N 
HETATM    9  C10 UNL     1      25.230   2.600  20.584  1.00  0.00     0.158 A 
HETATM   10  C11 UNL     1      24.441   3.729  20.766  1.00  0.00     0.024 A 
HETATM   11  C12 UNL     1      23.570   3.753  19.700  1.00  0.00     0.063 A 
HETATM   12  C14 UNL     1      24.053   4.943  21.539  1.00  0.00     0.124 A 
HETATM   13  C13 UNL     1      23.863   2.653  18.924  1.00  0.00     0.167 A 
HETATM   14  S2  UNL     1      22.807   5.250  20.298  1.00  0.00    -0.120 SA
BRANCH   9  15
HETATM   15  O3  UNL     1      26.272   2.129  21.400  1.00  0.00    -0.345 OA
ATOM     16  H3  UNL     1      26.108   1.518  22.109  1.00  0.00     0.219 HD
ENDBRANCH   9  15
BRANCH  13  17
HETATM   17  O4  UNL     1      23.216   2.283  17.729  1.00  0.00    -0.345 OA
ATOM     18  H4  UNL     1      23.662   1.875  16.996  1.00  0.00     0.219 HD
ENDBRANCH  13  17
ENDBRANCH   5   8
BRANCH   1  19
HETATM   19  C5  UNL     1      27.819  -0.878  16.559  1.00  0.00     0.295 C 
HETATM   20  O2  UNL     1      29.039  -0.688  16.791  1.00  0.00    -0.259 OA
BRANCH  19  21
HETATM   21  O1  UNL     1      27.470  -1.309  15.306  1.00  0.00    -0.317 OA
BRANCH  21  22
HETATM   22  C4  UNL     1      26.361  -0.911  14.572  1.00  0.00     0.179 C 
BRANCH  22  23
HETATM   23  C3  UNL     1      26.508   0.404  13.870  1.00  0.00     0.026 C 
BRANCH  23  24
HETATM   24  C2  UNL     1      26.549   0.133  12.369  1.00  0.00    -0.002 C 
HETATM   25  C1  UNL     1      27.191   1.247  11.606  1.00  0.00     0.005 C 
ENDBRANCH  23  24
ENDBRANCH  22  23
ENDBRANCH  21  22
ENDBRANCH  19  21
ENDBRANCH   1  19
TORSDOF 8
ENDMDL
MODEL 2
REMARK VINA RESULT: -7.078009744      1.843      2.669
REMARK  8 active torsions:
REMARK  status: ('A' for Active; 'I' for Inactive)
REMARK    1  A    between atoms: C2_2  and  C3_3 
REMARK    2  A    between atoms: C3_3  and  C4_4 
REMARK    3  A    between atoms: C4_4  and  O1_5 
REMARK    4  A    between atoms: O1_5  and  C5_6 
REMARK    5  A    between atoms: C5_6  and  C6_8 
REMARK    6  A    between atoms: C9_12  and  N1_13 
REMARK    7  A    between atoms: C10_14  and  O3_15 
REMARK    8  A    between atoms: C13_19  and  O4_20 
ROOT
HETATM    1  C6  UNL     1      27.350   0.959  17.726  1.00  0.00     0.060 A 
HETATM    2  C7  UNL     1      27.213  -0.399  17.835  1.00  0.00    -0.002 A 
HETATM    3  C8  UNL     1      27.967  -1.479  17.121  1.00  0.00     0.057 C 
HETATM    4  S1  UNL     1      25.975  -0.586  18.981  1.00  0.00    -0.075 SA
HETATM    5  C9  UNL     1      25.649   1.054  19.306  1.00  0.00     0.092 A 
HETATM    6  C15 UNL     1      26.531   1.714  18.495  1.00  0.00    -0.010 A 
HETATM    7  C16 UNL     1      26.538   3.238  18.510  1.00  0.00     0.052 C 
ENDROOT
BRANCH   5   8
HETATM    8  N1  UNL     1      24.680   1.632  20.214  1.00  0.00    -0.264 N 
HETATM    9  C10 UNL     1      23.488   2.139  19.876  1.00  0.00     0.158 A 
HETATM   10  C11 UNL     1      22.822   2.606  21.003  1.00  0.00     0.024 A 
HETATM   11  C12 UNL     1      23.665   2.362  22.063  1.00  0.00     0.063 A 
HETATM   12  C14 UNL     1      21.644   3.245  21.655  1.00  0.00     0.124 A 
HETATM   13  C13 UNL     1      24.793   1.764  21.545  1.00  0.00     0.167 A 
HETATM   14  S2  UNL     1      22.497   3.066  23.213  1.00  0.00    -0.120 SA
BRANCH   9  15
HETATM   15  O3  UNL     1      23.052   2.156  18.541  1.00  0.00    -0.345 OA
ATOM     16  H3  UNL     1      23.295   2.858  17.949  1.00  0.00     0.219 HD
ENDBRANCH   9  15
BRANCH  13  17
HETATM   17  O4  UNL     1      25.921   1.342  22.276  1.00  0.00    -0.345 OA
ATOM     18  H4  UNL     1      25.870   0.967  23.148  1.00  0.00     0.219 HD
ENDBRANCH  13  17
ENDBRANCH   5   8
BRANCH   1  19
HETATM   19  C5  UNL     1      28.355   1.575  16.800  1.00  0.00     0.295 C 
HETATM   20  O2  UNL     1      29.470   1.938  17.249  1.00  0.00    -0.259 OA
BRANCH  19  21
HETATM   21  O1  UNL     1      28.113   1.767  15.465  1.00  0.00    -0.317 OA
BRANCH  21  22
HETATM   22  C4  UNL     1      28.005   2.985  14.809  1.00  0.00     0.179 C 
BRANCH  22  23
HETATM   23  C3  UNL     1      27.692   2.889  13.347  1.00  0.00     0.026 C 
BRANCH  23  24
HETATM   24  C2  UNL     1      26.980   1.561  13.106  1.00  0.00    -0.002 C 
HETATM   25  C1  UNL     1      26.981   1.168  11.664  1.00  0.00     0.005 C 
ENDBRANCH  23  24
ENDBRANCH  22  23
ENDBRANCH  21  22
ENDBRANCH  19  21
ENDBRANCH   1  19
TORSDOF 8
ENDMDL
MODEL 3
REMARK VINA RESULT: -7.062192717      1.773      2.080
REMARK  8 active torsions:
REMARK  status: ('A' for Active; 'I' for Inactive)
REMARK    1  A    between atoms: C2_2  and  C3_3 
REMARK    2  A    between atoms: C3_3  and  C4_4 
REMARK    3  A    between atoms: C4_4  and  O1_5 
REMARK    4  A    between atoms: O1_5  and  C5_6 
REMARK    5  A    between atoms: C5_6  and  C6_8 
REMARK    6  A    between atoms: C9_12  and  N1_13 
REMARK    7  A    between atoms: C10_14  and  O3_15 
REMARK    8  A    between atoms: C13_19  and  O4_20 
ROOT
HETATM    1  C6  UNL     1      27.294   1.044  17.698  1.00  0.00     0.060 A 
HETATM    2  C7  UNL     1      27.151  -0.311  17.831  1.00  0.00    -0.002 A 
HETATM    3  C8  UNL     1      27.891  -1.407  17.126  1.00  0.00     0.057 C 
HETATM    4  S1  UNL     1      25.926  -0.474  18.995  1.00  0.00    -0.075 SA
HETATM    5  C9  UNL     1      25.611   1.173  19.296  1.00  0.00     0.092 A 
HETATM    6  C15 UNL     1      26.487   1.816  18.464  1.00  0.00    -0.010 A 
HETATM    7  C16 UNL     1      26.501   3.339  18.454  1.00  0.00     0.052 C 
ENDROOT
BRANCH   5   8
HETATM    8  N1  UNL     1      24.655   1.771  20.205  1.00  0.00    -0.264 N 
HETATM    9  C10 UNL     1      24.787   1.873  21.533  1.00  0.00     0.158 A 
HETATM   10  C11 UNL     1      23.677   2.502  22.084  1.00  0.00     0.024 A 
HETATM   11  C12 UNL     1      22.843   2.785  21.026  1.00  0.00     0.063 A 
HETATM   12  C14 UNL     1      22.920   3.032  23.254  1.00  0.00     0.124 A 
HETATM   13  C13 UNL     1      23.473   2.325  19.890  1.00  0.00     0.167 A 
HETATM   14  S2  UNL     1      21.641   3.529  22.113  1.00  0.00    -0.120 SA
BRANCH   9  15
HETATM   15  O3  UNL     1      25.926   1.385  22.195  1.00  0.00    -0.345 OA
ATOM     16  H3  UNL     1      26.452   1.946  22.753  1.00  0.00     0.219 HD
ENDBRANCH   9  15
BRANCH  13  17
HETATM   17  O4  UNL     1      22.978   2.406  18.574  1.00  0.00    -0.345 OA
ATOM     18  H4  UNL     1      22.053   2.467  18.364  1.00  0.00     0.219 HD
ENDBRANCH  13  17
ENDBRANCH   5   8
BRANCH   1  19
HETATM   19  C5  UNL     1      28.291   1.640  16.751  1.00  0.00     0.295 C 
HETATM   20  O2  UNL     1      29.412   2.004  17.182  1.00  0.00    -0.259 OA
BRANCH  19  21
HETATM   21  O1  UNL     1      28.035   1.811  15.416  1.00  0.00    -0.317 OA
BRANCH  21  22
HETATM   22  C4  UNL     1      27.987   3.015  14.729  1.00  0.00     0.179 C 
BRANCH  22  23
HETATM   23  C3  UNL     1      27.656   2.898  13.273  1.00  0.00     0.026 C 
BRANCH  23  24
HETATM   24  C2  UNL     1      26.988   1.544  13.050  1.00  0.00    -0.002 C 
HETATM   25  C1  UNL     1      26.991   1.137  11.612  1.00  0.00     0.005 C 
ENDBRANCH  23  24
ENDBRANCH  22  23
ENDBRANCH  21  22
ENDBRANCH  19  21
ENDBRANCH   1  19
TORSDOF 8
ENDMDL
MODEL 4
REMARK VINA RESULT: -7.047461941      0.451      1.683
REMARK  8 active torsions:
REMARK  status: ('A' for Active; 'I' for Inactive)
REMARK    1  A    between atoms: C2_2  and  C3_3 
REMARK    2  A    between atoms: C3_3  and  C4_4 
REMARK    3  A    between atoms: C4_4  and  O1_5 
REMARK    4  A    between atoms: O1_5  and  C5_6 
REMARK    5  A    between atoms: C5_6  and  C6_8 
REMARK    6  A    between atoms: C9_12  and  N1_13 
REMARK    7  A    between atoms: C10_14  and  O3_15 
REMARK    8  A    between atoms: C13_19  and  O4_20 
ROOT
HETATM    1  C6  UNL     1      26.825  -0.663  17.634  1.00  0.00     0.060 A 
HETATM    2  C7  UNL     1      26.278  -1.703  18.336  1.00  0.00    -0.002 A 
HETATM    3  C8  UNL     1      26.543  -3.171  18.200  1.00  0.00     0.057 C 
HETATM    4  S1  UNL     1      25.213  -0.942  19.417  1.00  0.00    -0.075 SA
HETATM    5  C9  UNL     1      25.474   0.680  18.965  1.00  0.00     0.092 A 
HETATM    6  C15 UNL     1      26.402   0.580  17.965  1.00  0.00    -0.010 A 
HETATM    7  C16 UNL     1      26.895   1.856  17.296  1.00  0.00     0.052 C 
ENDROOT
BRANCH   5   8
HETATM    8  N1  UNL     1      24.872   1.886  19.496  1.00  0.00    -0.264 N 
HETATM    9  C10 UNL     1      23.864   2.572  18.944  1.00  0.00     0.158 A 
HETATM   10  C11 UNL     1      23.543   3.676  19.726  1.00  0.00     0.024 A 
HETATM   11  C12 UNL     1      24.409   3.641  20.795  1.00  0.00     0.063 A 
HETATM   12  C14 UNL     1      22.728   4.894  19.997  1.00  0.00     0.124 A 
HETATM   13  C13 UNL     1      25.208   2.533  20.624  1.00  0.00     0.167 A 
HETATM   14  S2  UNL     1      23.694   5.125  21.480  1.00  0.00    -0.120 SA
BRANCH   9  15
HETATM   15  O3  UNL     1      23.270   2.159  17.740  1.00  0.00    -0.345 OA
ATOM     16  H3  UNL     1      23.569   2.491  16.902  1.00  0.00     0.219 HD
ENDBRANCH   9  15
BRANCH  13  17
HETATM   17  O4  UNL     1      26.239   2.109  21.485  1.00  0.00    -0.345 OA
ATOM     18  H4  UNL     1      27.099   2.512  21.513  1.00  0.00     0.219 HD
ENDBRANCH  13  17
ENDBRANCH   5   8
BRANCH   1  19
HETATM   19  C5  UNL     1      27.837  -0.891  16.554  1.00  0.00     0.295 C 
HETATM   20  O2  UNL     1      29.055  -0.704  16.796  1.00  0.00    -0.259 OA
BRANCH  19  21
HETATM   21  O1  UNL     1      27.496  -1.301  15.291  1.00  0.00    -0.317 OA
BRANCH  21  22
HETATM   22  C4  UNL     1      26.376  -0.915  14.569  1.00  0.00     0.179 C 
BRANCH  22  23
HETATM   23  C3  UNL     1      26.494   0.412  13.884  1.00  0.00     0.026 C 
BRANCH  23  24
HETATM   24  C2  UNL     1      26.573   0.159  12.381  1.00  0.00    -0.002 C 
HETATM   25  C1  UNL     1      27.094   1.342  11.631  1.00  0.00     0.005 C 
ENDBRANCH  23  24
ENDBRANCH  22  23
ENDBRANCH  21  22
ENDBRANCH  19  21
ENDBRANCH   1  19
TORSDOF 8
ENDMDL
MODEL 5
REMARK VINA RESULT: -7.014672960      1.662      2.565
REMARK  8 active torsions:
REMARK  status: ('A' for Active; 'I' for Inactive)
REMARK    1  A    between atoms: C2_2  and  C3_3 
REMARK    2  A    between atoms: C3_3  and  C4_4 
REMARK    3  A    between atoms: C4_4  and  O1_5 
REMARK    4  A    between atoms: O1_5  and  C5_6 
REMARK    5  A    between atoms: C5_6  and  C6_8 
REMARK    6  A    between atoms: C9_12  and  N1_13 
REMARK    7  A    between atoms: C10_14  and  O3_15 
REMARK    8  A    between atoms: C13_19  and  O4_20 
ROOT
HETATM    1  C6  UNL     1      26.380   0.180  17.558  1.00  0.00     0.060 A 
HETATM    2  C7  UNL     1      27.590   0.818  17.505  1.00  0.00    -0.002 A 
HETATM    3  C8  UNL     1      28.808   0.457  16.710  1.00  0.00     0.057 C 
HETATM    4  S1  UNL     1      27.398   2.132  18.563  1.00  0.00    -0.075 SA
HETATM    5  C9  UNL     1      25.791   1.856  19.056  1.00  0.00     0.092 A 
HETATM    6  C15 UNL     1      25.443   0.725  18.369  1.00  0.00    -0.010 A 
HETATM    7  C16 UNL     1      24.041   0.159  18.557  1.00  0.00     0.052 C 
ENDROOT
BRANCH   5   8
HETATM    8  N1  UNL     1      24.973   2.619  19.976  1.00  0.00    -0.264 N 
HETATM    9  C10 UNL     1      24.018   3.495  19.643  1.00  0.00     0.158 A 
HETATM   10  C11 UNL     1      23.439   4.040  20.783  1.00  0.00     0.024 A 
HETATM   11  C12 UNL     1      24.087   3.455  21.847  1.00  0.00     0.063 A 
HETATM   12  C14 UNL     1      22.461   4.948  21.446  1.00  0.00     0.124 A 
HETATM   13  C13 UNL     1      25.019   2.590  21.318  1.00  0.00     0.167 A 
HETATM   14  S2  UNL     1      23.099   4.376  23.013  1.00  0.00    -0.120 SA
BRANCH   9  15
HETATM   15  O3  UNL     1      23.710   3.765  18.299  1.00  0.00    -0.345 OA
ATOM     16  H3  UNL     1      24.056   4.530  17.855  1.00  0.00     0.219 HD
ENDBRANCH   9  15
BRANCH  13  17
HETATM   17  O4  UNL     1      25.909   1.778  22.049  1.00  0.00    -0.345 OA
ATOM     18  H4  UNL     1      26.671   1.359  21.666  1.00  0.00     0.219 HD
ENDBRANCH  13  17
ENDBRANCH   5   8
BRANCH   1  19
HETATM   19  C5  UNL     1      26.109  -1.058  16.758  1.00  0.00     0.295 C 
HETATM   20  O2  UNL     1      26.193  -2.182  17.311  1.00  0.00    -0.259 OA
BRANCH  19  21
HETATM   21  O1  UNL     1      25.769  -1.024  15.431  1.00  0.00    -0.317 OA
BRANCH  21  22
HETATM   22  C4  UNL     1      25.427   0.098  14.691  1.00  0.00     0.179 C 
BRANCH  22  23
HETATM   23  C3  UNL     1      26.539   0.675  13.869  1.00  0.00     0.026 C 
BRANCH  23  24
HETATM   24  C2  UNL     1      26.153   0.540  12.398  1.00  0.00    -0.002 C 
HETATM   25  C1  UNL     1      27.234   1.013  11.481  1.00  0.00     0.005 C 
ENDBRANCH  23  24
ENDBRANCH  22  23
ENDBRANCH  21  22
ENDBRANCH  19  21
ENDBRANCH   1  19
TORSDOF 8
ENDMDL
