MODEL 1
REMARK VINA RESULT: -7.962195742      0.000      0.000
REMARK  8 active torsions:
REMARK  status: ('A' for Active; 'I' for Inactive)
REMARK    1  A    between atoms: O1_2  and  C2_3 
REMARK    2  A    between atoms: C4_5  and  C5_6 
REMARK    3  A    between atoms: C8_10  and  O3_11 
REMARK    4  A    between atoms: O3_11  and  C9_12 
REMARK    5  A    between atoms: C10_13  and  O4_14 
REMARK    6  A    between atoms: C11_17  and  C12_18 
REMARK    7  A    between atoms: C12_18  and  C13_20 
REMARK    8  A    between atoms: C18_25  and  O7_26 
ROOT
HETATM    1  O3  UNL     1      27.384   0.927  17.075  1.00  0.00    -0.302 OA
ENDROOT
BRANCH   1   2
HETATM    2  C8  UNL     1      27.323   1.312  15.776  1.00  0.00     0.113 A 
HETATM    3  C7  UNL     1      27.998   2.509  15.469  1.00  0.00     0.055 A 
HETATM    4  C4  UNL     1      28.043   3.050  14.208  1.00  0.00     0.015 A 
HETATM    5  C3  UNL     1      27.380   2.349  13.221  1.00  0.00     0.055 A 
HETATM    6  C2  UNL     1      26.713   1.179  13.481  1.00  0.00     0.105 A 
HETATM    7  C18 UNL     1      26.681   0.653  14.764  1.00  0.00     0.133 A 
BRANCH   4   8
HETATM    8  C5  UNL     1      28.753   4.295  13.933  1.00  0.00     0.155 C 
HETATM    9  C6  UNL     1      29.586   4.431  12.736  1.00  0.00     0.096 C 
HETATM   10  O2  UNL     1      28.626   5.232  14.750  1.00  0.00    -0.293 OA
ENDBRANCH   4   8
BRANCH   6  11
HETATM   11  O1  UNL     1      26.053   0.492  12.472  1.00  0.00    -0.353 OA
HETATM   12  C1  UNL     1      26.243   0.901  11.132  1.00  0.00     0.210 C 
ENDBRANCH   6  11
BRANCH   7  13
HETATM   13  O7  UNL     1      25.995  -0.535  14.992  1.00  0.00    -0.356 OA
ATOM     14  H7  UNL     1      26.401  -1.209  15.524  1.00  0.00     0.218 HD
ENDBRANCH   7  13
ENDBRANCH   1   2
BRANCH   1  15
HETATM   15  C9  UNL     1      26.834   1.407  18.208  1.00  0.00     0.143 A 
HETATM   16  C10 UNL     1      27.441   2.295  19.125  1.00  0.00     0.219 A 
HETATM   17  O5  UNL     1      26.616   2.549  20.101  1.00  0.00    -0.281 OA
HETATM   18  C11 UNL     1      25.488   1.911  19.935  1.00  0.00     0.133 A 
HETATM   19  C16 UNL     1      25.598   1.185  18.750  1.00  0.00     0.015 A 
HETATM   20  C17 UNL     1      24.512   0.346  18.179  1.00  0.00     0.054 C 
BRANCH  16  21
HETATM   21  O4  UNL     1      28.730   2.772  18.930  1.00  0.00    -0.339 OA
ATOM     22  H4  UNL     1      29.232   3.153  19.641  1.00  0.00     0.220 HD
ENDBRANCH  16  21
BRANCH  18  23
HETATM   23  C12 UNL     1      24.329   1.939  20.807  1.00  0.00     0.187 C 
HETATM   24  O6  UNL     1      24.067   0.920  21.492  1.00  0.00    -0.290 OA
BRANCH  23  25
HETATM   25  C13 UNL     1      23.467   3.121  20.900  1.00  0.00     0.054 C 
HETATM   26  C14 UNL     1      24.137   4.214  21.696  1.00  0.00     0.018 C 
HETATM   27  C15 UNL     1      23.130   3.690  19.536  1.00  0.00     0.018 C 
ENDBRANCH  23  25
ENDBRANCH  18  23
ENDBRANCH   1  15
TORSDOF 8
ENDMDL
MODEL 2
REMARK VINA RESULT: -7.951542009      1.098      1.905
REMARK  8 active torsions:
REMARK  status: ('A' for Active; 'I' for Inactive)
REMARK    1  A    between atoms: O1_2  and  C2_3 
REMARK    2  A    between atoms: C4_5  and  C5_6 
REMARK    3  A    between atoms: C8_10  and  O3_11 
REMARK    4  A    between atoms: O3_11  and  C9_12 
REMARK    5  A    between atoms: C10_13  and  O4_14 
REMARK    6  A    between atoms: C11_17  and  C12_18 
REMARK    7  A    between atoms: C12_18  and  C13_20 
REMARK    8  A    between atoms: C18_25  and  O7_26 
ROOT
HETATM    1  O3  UNL     1      27.151   0.442  16.985  1.00  0.00    -0.302 OA
ENDROOT
BRANCH   1   2
HETATM    2  C8  UNL     1      27.145   0.879  15.701  1.00  0.00     0.113 A 
HETATM    3  C7  UNL     1      27.784   2.113  15.480  1.00  0.00     0.055 A 
HETATM    4  C4  UNL     1      27.875   2.709  14.247  1.00  0.00     0.015 A 
HETATM    5  C3  UNL     1      27.296   2.025  13.197  1.00  0.00     0.055 A 
HETATM    6  C2  UNL     1      26.666   0.819  13.372  1.00  0.00     0.105 A 
HETATM    7  C18 UNL     1      26.586   0.238  14.629  1.00  0.00     0.133 A 
BRANCH   4   8
HETATM    8  C5  UNL     1      28.546   3.992  14.063  1.00  0.00     0.155 C 
HETATM    9  C6  UNL     1      29.330   4.257  12.855  1.00  0.00     0.096 C 
HETATM   10  O2  UNL     1      28.427   4.848  14.965  1.00  0.00    -0.293 OA
ENDBRANCH   4   8
BRANCH   6  11
HETATM   11  O1  UNL     1      26.091   0.150  12.301  1.00  0.00    -0.353 OA
HETATM   12  C1  UNL     1      25.865   0.857  11.097  1.00  0.00     0.210 C 
ENDBRANCH   6  11
BRANCH   7  13
HETATM   13  O7  UNL     1      25.940  -0.985  14.771  1.00  0.00    -0.356 OA
ATOM     14  H7  UNL     1      25.102  -1.017  15.217  1.00  0.00     0.218 HD
ENDBRANCH   7  13
ENDBRANCH   1   2
BRANCH   1  15
HETATM   15  C9  UNL     1      26.378   0.709  18.056  1.00  0.00     0.143 A 
HETATM   16  C10 UNL     1      25.186   0.041  18.420  1.00  0.00     0.219 A 
HETATM   17  O5  UNL     1      24.709   0.561  19.514  1.00  0.00    -0.281 OA
HETATM   18  C11 UNL     1      25.472   1.533  19.940  1.00  0.00     0.133 A 
HETATM   19  C16 UNL     1      26.530   1.647  19.040  1.00  0.00     0.015 A 
HETATM   20  C17 UNL     1      27.647   2.618  19.181  1.00  0.00     0.054 C 
BRANCH  16  21
HETATM   21  O4  UNL     1      24.678  -1.003  17.659  1.00  0.00    -0.339 OA
ATOM     22  H4  UNL     1      23.760  -1.241  17.694  1.00  0.00     0.220 HD
ENDBRANCH  16  21
BRANCH  18  23
HETATM   23  C12 UNL     1      25.272   2.352  21.120  1.00  0.00     0.187 C 
HETATM   24  O6  UNL     1      25.547   1.863  22.244  1.00  0.00    -0.290 OA
BRANCH  23  25
HETATM   25  C13 UNL     1      24.759   3.721  21.027  1.00  0.00     0.054 C 
HETATM   26  C14 UNL     1      23.649   3.812  20.010  1.00  0.00     0.018 C 
HETATM   27  C15 UNL     1      24.207   4.214  22.351  1.00  0.00     0.018 C 
ENDBRANCH  23  25
ENDBRANCH  18  23
ENDBRANCH   1  15
TORSDOF 8
ENDMDL
MODEL 3
REMARK VINA RESULT: -7.846598136      2.030      2.738
REMARK  8 active torsions:
REMARK  status: ('A' for Active; 'I' for Inactive)
REMARK    1  A    between atoms: O1_2  and  C2_3 
REMARK    2  A    between atoms: C4_5  and  C5_6 
REMARK    3  A    between atoms: C8_10  and  O3_11 
REMARK    4  A    between atoms: O3_11  and  C9_12 
REMARK    5  A    between atoms: C10_13  and  O4_14 
REMARK    6  A    between atoms: C11_17  and  C12_18 
REMARK    7  A    between atoms: C12_18  and  C13_20 
REMARK    8  A    between atoms: C18_25  and  O7_26 
ROOT
HETATM    1  O3  UNL     1      27.445   0.066  17.321  1.00  0.00    -0.302 OA
ENDROOT
BRANCH   1   2
HETATM    2  C8  UNL     1      27.132  -0.404  16.087  1.00  0.00     0.113 A 
HETATM    3  C7  UNL     1      27.059   0.569  15.072  1.00  0.00     0.055 A 
HETATM    4  C4  UNL     1      26.755   0.278  13.765  1.00  0.00     0.015 A 
HETATM    5  C3  UNL     1      26.518  -1.051  13.477  1.00  0.00     0.055 A 
HETATM    6  C2  UNL     1      26.581  -2.027  14.439  1.00  0.00     0.105 A 
HETATM    7  C18 UNL     1      26.889  -1.708  15.753  1.00  0.00     0.133 A 
BRANCH   4   8
HETATM    8  C5  UNL     1      26.688   1.318  12.744  1.00  0.00     0.155 C 
HETATM    9  C6  UNL     1      26.145   1.026  11.416  1.00  0.00     0.096 C 
HETATM   10  O2  UNL     1      27.107   2.457  13.042  1.00  0.00    -0.293 OA
ENDBRANCH   4   8
BRANCH   6  11
HETATM   11  O1  UNL     1      26.338  -3.357  14.125  1.00  0.00    -0.353 OA
HETATM   12  C1  UNL     1      26.692  -3.831  12.841  1.00  0.00     0.210 C 
ENDBRANCH   6  11
BRANCH   7  13
HETATM   13  O7  UNL     1      26.945  -2.722  16.702  1.00  0.00    -0.356 OA
ATOM     14  H7  UNL     1      26.708  -2.529  17.601  1.00  0.00     0.218 HD
ENDBRANCH   7  13
ENDBRANCH   1   2
BRANCH   1  15
HETATM   15  C9  UNL     1      27.072   1.158  18.016  1.00  0.00     0.143 A 
HETATM   16  C10 UNL     1      27.879   2.282  18.310  1.00  0.00     0.219 A 
HETATM   17  O5  UNL     1      27.190   3.149  18.995  1.00  0.00    -0.281 OA
HETATM   18  C11 UNL     1      25.972   2.719  19.199  1.00  0.00     0.133 A 
HETATM   19  C16 UNL     1      25.872   1.468  18.593  1.00  0.00     0.015 A 
HETATM   20  C17 UNL     1      24.631   0.649  18.564  1.00  0.00     0.054 C 
BRANCH  16  21
HETATM   21  O4  UNL     1      29.199   2.358  17.888  1.00  0.00    -0.339 OA
ATOM     22  H4  UNL     1      29.697   3.164  17.958  1.00  0.00     0.220 HD
ENDBRANCH  16  21
BRANCH  18  23
HETATM   23  C12 UNL     1      24.912   3.399  19.919  1.00  0.00     0.187 C 
HETATM   24  O6  UNL     1      24.053   4.037  19.262  1.00  0.00    -0.290 OA
BRANCH  23  25
HETATM   25  C13 UNL     1      24.828   3.357  21.381  1.00  0.00     0.054 C 
HETATM   26  C14 UNL     1      24.320   4.668  21.929  1.00  0.00     0.018 C 
HETATM   27  C15 UNL     1      23.892   2.268  21.867  1.00  0.00     0.018 C 
ENDBRANCH  23  25
ENDBRANCH  18  23
ENDBRANCH   1  15
TORSDOF 8
ENDMDL
MODEL 4
REMARK VINA RESULT: -7.653839972      2.494      4.654
REMARK  8 active torsions:
REMARK  status: ('A' for Active; 'I' for Inactive)
REMARK    1  A    between atoms: O1_2  and  C2_3 
REMARK    2  A    between atoms: C4_5  and  C5_6 
REMARK    3  A    between atoms: C8_10  and  O3_11 
REMARK    4  A    between atoms: O3_11  and  C9_12 
REMARK    5  A    between atoms: C10_13  and  O4_14 
REMARK    6  A    between atoms: C11_17  and  C12_18 
REMARK    7  A    between atoms: C12_18  and  C13_20 
REMARK    8  A    between atoms: C18_25  and  O7_26 
ROOT
HETATM    1  O3  UNL     1      25.566   1.782  19.444  1.00  0.00    -0.302 OA
ENDROOT
BRANCH   1   2
HETATM    2  C8  UNL     1      26.408   1.560  18.404  1.00  0.00     0.113 A 
HETATM    3  C7  UNL     1      26.710   0.208  18.150  1.00  0.00     0.055 A 
HETATM    4  C4  UNL     1      27.542  -0.205  17.140  1.00  0.00     0.015 A 
HETATM    5  C3  UNL     1      28.089   0.792  16.357  1.00  0.00     0.055 A 
HETATM    6  C2  UNL     1      27.818   2.119  16.572  1.00  0.00     0.105 A 
HETATM    7  C18 UNL     1      26.974   2.512  17.601  1.00  0.00     0.133 A 
BRANCH   4   8
HETATM    8  C5  UNL     1      27.829  -1.617  16.912  1.00  0.00     0.155 C 
HETATM    9  C6  UNL     1      28.075  -2.520  18.037  1.00  0.00     0.096 C 
HETATM   10  O2  UNL     1      27.855  -2.024  15.730  1.00  0.00    -0.293 OA
ENDBRANCH   4   8
BRANCH   6  11
HETATM   11  O1  UNL     1      28.380   3.104  15.772  1.00  0.00    -0.353 OA
HETATM   12  C1  UNL     1      27.972   3.201  14.422  1.00  0.00     0.210 C 
ENDBRANCH   6  11
BRANCH   7  13
HETATM   13  O7  UNL     1      26.721   3.865  17.791  1.00  0.00    -0.356 OA
ATOM     14  H7  UNL     1      26.323   4.152  18.605  1.00  0.00     0.218 HD
ENDBRANCH   7  13
ENDBRANCH   1   2
BRANCH   1  15
HETATM   15  C9  UNL     1      24.534   2.628  19.634  1.00  0.00     0.143 A 
HETATM   16  C10 UNL     1      23.418   2.794  18.782  1.00  0.00     0.219 A 
HETATM   17  O5  UNL     1      22.617   3.692  19.281  1.00  0.00    -0.281 OA
HETATM   18  C11 UNL     1      23.085   4.160  20.408  1.00  0.00     0.133 A 
HETATM   19  C16 UNL     1      24.291   3.507  20.653  1.00  0.00     0.015 A 
HETATM   20  C17 UNL     1      25.132   3.727  21.859  1.00  0.00     0.054 C 
BRANCH  16  21
HETATM   21  O4  UNL     1      23.284   2.064  17.609  1.00  0.00    -0.339 OA
ATOM     22  H4  UNL     1      22.650   2.305  16.944  1.00  0.00     0.220 HD
ENDBRANCH  16  21
BRANCH  18  23
HETATM   23  C12 UNL     1      22.481   5.170  21.256  1.00  0.00     0.187 C 
HETATM   24  O6  UNL     1      21.646   4.807  22.121  1.00  0.00    -0.290 OA
BRANCH  23  25
HETATM   25  C13 UNL     1      22.821   6.589  21.123  1.00  0.00     0.054 C 
HETATM   26  C14 UNL     1      22.506   7.090  19.735  1.00  0.00     0.018 C 
HETATM   27  C15 UNL     1      22.055   7.453  22.104  1.00  0.00     0.018 C 
ENDBRANCH  23  25
ENDBRANCH  18  23
ENDBRANCH   1  15
TORSDOF 8
ENDMDL
MODEL 5
REMARK VINA RESULT: -7.634660584      7.001     10.372
REMARK  8 active torsions:
REMARK  status: ('A' for Active; 'I' for Inactive)
REMARK    1  A    between atoms: O1_2  and  C2_3 
REMARK    2  A    between atoms: C4_5  and  C5_6 
REMARK    3  A    between atoms: C8_10  and  O3_11 
REMARK    4  A    between atoms: O3_11  and  C9_12 
REMARK    5  A    between atoms: C10_13  and  O4_14 
REMARK    6  A    between atoms: C11_17  and  C12_18 
REMARK    7  A    between atoms: C12_18  and  C13_20 
REMARK    8  A    between atoms: C18_25  and  O7_26 
ROOT
HETATM    1  O3  UNL     1      22.942   5.996  22.739  1.00  0.00    -0.302 OA
ENDROOT
BRANCH   1   2
HETATM    2  C8  UNL     1      22.514   4.885  23.388  1.00  0.00     0.113 A 
HETATM    3  C7  UNL     1      21.477   5.090  24.317  1.00  0.00     0.055 A 
HETATM    4  C4  UNL     1      20.920   4.083  25.065  1.00  0.00     0.015 A 
HETATM    5  C3  UNL     1      21.434   2.819  24.860  1.00  0.00     0.055 A 
HETATM    6  C2  UNL     1      22.443   2.578  23.963  1.00  0.00     0.105 A 
HETATM    7  C18 UNL     1      22.991   3.614  23.219  1.00  0.00     0.133 A 
BRANCH   4   8
HETATM    8  C5  UNL     1      19.847   4.340  26.019  1.00  0.00     0.155 C 
HETATM    9  C6  UNL     1      20.015   5.333  27.082  1.00  0.00     0.096 C 
HETATM   10  O2  UNL     1      18.788   3.689  25.895  1.00  0.00    -0.293 OA
ENDBRANCH   4   8
BRANCH   6  11
HETATM   11  O1  UNL     1      22.945   1.298  23.775  1.00  0.00    -0.353 OA
HETATM   12  C1  UNL     1      22.171   0.193  24.201  1.00  0.00     0.210 C 
ENDBRANCH   6  11
BRANCH   7  13
HETATM   13  O7  UNL     1      24.012   3.335  22.318  1.00  0.00    -0.356 OA
ATOM     14  H7  UNL     1      23.927   2.589  21.738  1.00  0.00     0.218 HD
ENDBRANCH   7  13
ENDBRANCH   1   2
BRANCH   1  15
HETATM   15  C9  UNL     1      22.591   6.582  21.577  1.00  0.00     0.143 A 
HETATM   16  C10 UNL     1      23.111   6.285  20.296  1.00  0.00     0.219 A 
HETATM   17  O5  UNL     1      22.539   7.041  19.404  1.00  0.00    -0.281 OA
HETATM   18  C11 UNL     1      21.664   7.838  19.961  1.00  0.00     0.133 A 
HETATM   19  C16 UNL     1      21.677   7.568  21.328  1.00  0.00     0.015 A 
HETATM   20  C17 UNL     1      20.797   8.238  22.321  1.00  0.00     0.054 C 
BRANCH  16  21
HETATM   21  O4  UNL     1      24.087   5.313  20.116  1.00  0.00    -0.339 OA
ATOM     22  H4  UNL     1      24.022   4.462  20.532  1.00  0.00     0.220 HD
ENDBRANCH  16  21
BRANCH  18  23
HETATM   23  C12 UNL     1      20.830   8.822  19.299  1.00  0.00     0.187 C 
HETATM   24  O6  UNL     1      20.149   9.606  20.006  1.00  0.00    -0.290 OA
BRANCH  23  25
HETATM   25  C13 UNL     1      20.766   8.917  17.838  1.00  0.00     0.054 C 
HETATM   26  C14 UNL     1      19.595   9.764  17.405  1.00  0.00     0.018 C 
HETATM   27  C15 UNL     1      22.019   9.536  17.252  1.00  0.00     0.018 C 
ENDBRANCH  23  25
ENDBRANCH  18  23
ENDBRANCH   1  15
TORSDOF 8
ENDMDL
