MODEL 1
REMARK VINA RESULT: -6.680576622      0.000      0.000
REMARK  8 active torsions:
REMARK  status: ('A' for Active; 'I' for Inactive)
REMARK    1  A    between atoms: C2_2  and  C3_3 
REMARK    2  A    between atoms: C3_3  and  C4_4 
REMARK    3  A    between atoms: C4_4  and  C5_5 
REMARK    4  A    between atoms: C5_5  and  C6_6 
REMARK    5  A    between atoms: C11_12  and  O2_13 
REMARK    6  A    between atoms: C12_15  and  O3_16 
REMARK    7  A    between atoms: C13_18  and  O4_19 
REMARK    8  A    between atoms: O4_19  and  C14_20 
ROOT
HETATM    1  C6  UNL     1      21.870   4.034  23.497  1.00  0.00     0.119 C 
HETATM    2  C7  UNL     1      21.011   3.343  22.459  1.00  0.00     0.059 C 
HETATM    3  O1  UNL     1      21.541   5.378  23.609  1.00  0.00    -0.328 OA
HETATM    4  C8  UNL     1      20.965   6.073  24.618  1.00  0.00     0.097 A 
HETATM    5  C9  UNL     1      20.421   7.312  24.348  1.00  0.00     0.009 A 
HETATM    6  C10 UNL     1      20.464   7.886  22.973  1.00  0.00     0.054 C 
HETATM    7  C11 UNL     1      19.808   8.095  25.329  1.00  0.00     0.110 A 
HETATM    8  C12 UNL     1      19.736   7.623  26.622  1.00  0.00     0.135 A 
HETATM    9  C13 UNL     1      20.270   6.387  26.929  1.00  0.00     0.132 A 
HETATM   10  C16 UNL     1      20.870   5.633  25.939  1.00  0.00     0.092 A 
HETATM   11  C17 UNL     1      21.420   4.333  26.313  1.00  0.00     0.227 C 
HETATM   12  O6  UNL     1      21.681   4.088  27.488  1.00  0.00    -0.280 OA
HETATM   13  S1  UNL     1      21.701   3.124  25.052  1.00  0.00    -0.049 SA
ENDROOT
BRANCH   1  14
HETATM   14  C5  UNL     1      23.306   3.939  23.024  1.00  0.00     0.050 C 
BRANCH  14  15
HETATM   15  C4  UNL     1      23.755   5.234  22.379  1.00  0.00     0.004 C 
BRANCH  15  16
HETATM   16  C3  UNL     1      23.894   5.094  20.891  1.00  0.00    -0.000 C 
BRANCH  16  17
HETATM   17  C2  UNL     1      22.744   5.732  20.144  1.00  0.00    -0.005 C 
HETATM   18  C1  UNL     1      22.810   7.237  20.187  1.00  0.00     0.005 C 
ENDBRANCH  16  17
ENDBRANCH  15  16
ENDBRANCH  14  15
ENDBRANCH   1  14
BRANCH   7  19
HETATM   19  O2  UNL     1      19.280   9.346  24.970  1.00  0.00    -0.357 OA
ATOM     20  H2  UNL     1      19.665  10.132  25.340  1.00  0.00     0.217 HD
ENDBRANCH   7  19
BRANCH   9  21
HETATM   21  O4  UNL     1      20.182   5.926  28.258  1.00  0.00    -0.275 OA
BRANCH  21  22
HETATM   22  C14 UNL     1      18.955   5.513  28.779  1.00  0.00     0.260 C 
HETATM   23  C15 UNL     1      18.335   4.205  28.485  1.00  0.00     0.126 C 
HETATM   24  O5  UNL     1      18.354   6.310  29.540  1.00  0.00    -0.265 OA
ENDBRANCH  21  22
ENDBRANCH   9  21
BRANCH   8  25
HETATM   25  O3  UNL     1      19.124   8.394  27.619  1.00  0.00    -0.356 OA
ATOM     26  H3  UNL     1      18.318   8.098  28.024  1.00  0.00     0.218 HD
ENDBRANCH   8  25
TORSDOF 8
ENDMDL
MODEL 2
REMARK VINA RESULT: -6.567788596      0.931      1.125
REMARK  8 active torsions:
REMARK  status: ('A' for Active; 'I' for Inactive)
REMARK    1  A    between atoms: C2_2  and  C3_3 
REMARK    2  A    between atoms: C3_3  and  C4_4 
REMARK    3  A    between atoms: C4_4  and  C5_5 
REMARK    4  A    between atoms: C5_5  and  C6_6 
REMARK    5  A    between atoms: C11_12  and  O2_13 
REMARK    6  A    between atoms: C12_15  and  O3_16 
REMARK    7  A    between atoms: C13_18  and  O4_19 
REMARK    8  A    between atoms: O4_19  and  C14_20 
ROOT
HETATM    1  C6  UNL     1      21.867   3.872  23.317  1.00  0.00     0.119 C 
HETATM    2  C7  UNL     1      21.017   3.199  22.261  1.00  0.00     0.059 C 
HETATM    3  O1  UNL     1      21.574   5.226  23.412  1.00  0.00    -0.328 OA
HETATM    4  C8  UNL     1      20.990   5.944  24.400  1.00  0.00     0.097 A 
HETATM    5  C9  UNL     1      20.490   7.196  24.107  1.00  0.00     0.009 A 
HETATM    6  C10 UNL     1      20.587   7.759  22.729  1.00  0.00     0.054 C 
HETATM    7  C11 UNL     1      19.872   8.003  25.065  1.00  0.00     0.110 A 
HETATM    8  C12 UNL     1      19.751   7.543  26.359  1.00  0.00     0.135 A 
HETATM    9  C13 UNL     1      20.241   6.295  26.688  1.00  0.00     0.132 A 
HETATM   10  C16 UNL     1      20.847   5.517  25.721  1.00  0.00     0.092 A 
HETATM   11  C17 UNL     1      21.348   4.205  26.118  1.00  0.00     0.227 C 
HETATM   12  O6  UNL     1      21.570   3.960  27.302  1.00  0.00    -0.280 OA
HETATM   13  S1  UNL     1      21.629   2.979  24.873  1.00  0.00    -0.049 SA
ENDROOT
BRANCH   1  14
HETATM   14  C5  UNL     1      23.312   3.733  22.885  1.00  0.00     0.050 C 
BRANCH  14  15
HETATM   15  C4  UNL     1      23.851   5.044  22.351  1.00  0.00     0.004 C 
BRANCH  15  16
HETATM   16  C3  UNL     1      24.009   5.012  20.859  1.00  0.00    -0.000 C 
BRANCH  16  17
HETATM   17  C2  UNL     1      22.818   5.612  20.143  1.00  0.00    -0.005 C 
HETATM   18  C1  UNL     1      22.883   7.117  20.104  1.00  0.00     0.005 C 
ENDBRANCH  16  17
ENDBRANCH  15  16
ENDBRANCH  14  15
ENDBRANCH   1  14
BRANCH   7  19
HETATM   19  O2  UNL     1      19.390   9.267  24.684  1.00  0.00    -0.357 OA
ATOM     20  H2  UNL     1      19.985  10.008  24.691  1.00  0.00     0.217 HD
ENDBRANCH   7  19
BRANCH   9  21
HETATM   21  O4  UNL     1      20.104   5.846  28.018  1.00  0.00    -0.275 OA
BRANCH  21  22
HETATM   22  C14 UNL     1      20.783   6.493  29.051  1.00  0.00     0.260 C 
HETATM   23  C15 UNL     1      22.246   6.424  29.243  1.00  0.00     0.126 C 
HETATM   24  O5  UNL     1      20.098   7.170  29.856  1.00  0.00    -0.265 OA
ENDBRANCH  21  22
ENDBRANCH   9  21
BRANCH   8  25
HETATM   25  O3  UNL     1      19.135   8.339  27.333  1.00  0.00    -0.356 OA
ATOM     26  H3  UNL     1      18.189   8.419  27.355  1.00  0.00     0.218 HD
ENDBRANCH   8  25
TORSDOF 8
ENDMDL
MODEL 3
REMARK VINA RESULT: -6.446071960      3.258      5.676
REMARK  8 active torsions:
REMARK  status: ('A' for Active; 'I' for Inactive)
REMARK    1  A    between atoms: C2_2  and  C3_3 
REMARK    2  A    between atoms: C3_3  and  C4_4 
REMARK    3  A    between atoms: C4_4  and  C5_5 
REMARK    4  A    between atoms: C5_5  and  C6_6 
REMARK    5  A    between atoms: C11_12  and  O2_13 
REMARK    6  A    between atoms: C12_15  and  O3_16 
REMARK    7  A    between atoms: C13_18  and  O4_19 
REMARK    8  A    between atoms: O4_19  and  C14_20 
ROOT
HETATM    1  C6  UNL     1      22.253   7.042  21.292  1.00  0.00     0.119 C 
HETATM    2  C7  UNL     1      23.648   7.628  21.329  1.00  0.00     0.059 C 
HETATM    3  O1  UNL     1      22.253   5.776  20.724  1.00  0.00    -0.328 OA
HETATM    4  C8  UNL     1      22.010   4.558  21.262  1.00  0.00     0.097 A 
HETATM    5  C9  UNL     1      22.422   3.433  20.578  1.00  0.00     0.009 A 
HETATM    6  C10 UNL     1      23.122   3.546  19.266  1.00  0.00     0.054 C 
HETATM    7  C11 UNL     1      22.213   2.139  21.061  1.00  0.00     0.110 A 
HETATM    8  C12 UNL     1      21.570   1.964  22.268  1.00  0.00     0.135 A 
HETATM    9  C13 UNL     1      21.144   3.068  22.980  1.00  0.00     0.132 A 
HETATM   10  C16 UNL     1      21.364   4.336  22.479  1.00  0.00     0.092 A 
HETATM   11  C17 UNL     1      20.895   5.471  23.269  1.00  0.00     0.227 C 
HETATM   12  O6  UNL     1      20.026   5.312  24.124  1.00  0.00    -0.280 OA
HETATM   13  S1  UNL     1      21.595   7.070  22.978  1.00  0.00    -0.049 SA
ENDROOT
BRANCH   1  14
HETATM   14  C5  UNL     1      21.410   7.950  20.421  1.00  0.00     0.050 C 
BRANCH  14  15
HETATM   15  C4  UNL     1      21.948   8.000  19.004  1.00  0.00     0.004 C 
BRANCH  15  16
HETATM   16  C3  UNL     1      21.030   8.755  18.089  1.00  0.00    -0.000 C 
BRANCH  16  17
HETATM   17  C2  UNL     1      21.786   9.628  17.111  1.00  0.00    -0.005 C 
HETATM   18  C1  UNL     1      22.410   8.822  16.001  1.00  0.00     0.005 C 
ENDBRANCH  16  17
ENDBRANCH  15  16
ENDBRANCH  14  15
ENDBRANCH   1  14
BRANCH   7  19
HETATM   19  O2  UNL     1      22.664   1.047  20.300  1.00  0.00    -0.357 OA
ATOM     20  H2  UNL     1      22.906   1.186  19.392  1.00  0.00     0.217 HD
ENDBRANCH   7  19
BRANCH   9  21
HETATM   21  O4  UNL     1      20.491   2.863  24.213  1.00  0.00    -0.275 OA
BRANCH  21  22
HETATM   22  C14 UNL     1      21.151   2.217  25.259  1.00  0.00     0.260 C 
HETATM   23  C15 UNL     1      20.482   1.324  26.226  1.00  0.00     0.126 C 
HETATM   24  O5  UNL     1      22.385   2.415  25.372  1.00  0.00    -0.265 OA
ENDBRANCH  21  22
ENDBRANCH   9  21
BRANCH   8  25
HETATM   25  O3  UNL     1      21.352   0.674  22.768  1.00  0.00    -0.356 OA
ATOM     26  H3  UNL     1      21.761  -0.074  22.351  1.00  0.00     0.218 HD
ENDBRANCH   8  25
TORSDOF 8
ENDMDL
MODEL 4
REMARK VINA RESULT: -6.388981330      2.637      5.856
REMARK  8 active torsions:
REMARK  status: ('A' for Active; 'I' for Inactive)
REMARK    1  A    between atoms: C2_2  and  C3_3 
REMARK    2  A    between atoms: C3_3  and  C4_4 
REMARK    3  A    between atoms: C4_4  and  C5_5 
REMARK    4  A    between atoms: C5_5  and  C6_6 
REMARK    5  A    between atoms: C11_12  and  O2_13 
REMARK    6  A    between atoms: C12_15  and  O3_16 
REMARK    7  A    between atoms: C13_18  and  O4_19 
REMARK    8  A    between atoms: O4_19  and  C14_20 
ROOT
HETATM    1  C6  UNL     1      22.930   2.843  22.421  1.00  0.00     0.119 C 
HETATM    2  C7  UNL     1      23.969   2.344  23.403  1.00  0.00     0.059 C 
HETATM    3  O1  UNL     1      21.966   3.613  23.057  1.00  0.00    -0.328 OA
HETATM    4  C8  UNL     1      21.686   4.935  22.974  1.00  0.00     0.097 A 
HETATM    5  C9  UNL     1      20.923   5.518  23.966  1.00  0.00     0.009 A 
HETATM    6  C10 UNL     1      20.411   4.714  25.113  1.00  0.00     0.054 C 
HETATM    7  C11 UNL     1      20.588   6.873  23.959  1.00  0.00     0.110 A 
HETATM    8  C12 UNL     1      21.029   7.673  22.926  1.00  0.00     0.135 A 
HETATM    9  C13 UNL     1      21.794   7.124  21.916  1.00  0.00     0.132 A 
HETATM   10  C16 UNL     1      22.111   5.780  21.948  1.00  0.00     0.092 A 
HETATM   11  C17 UNL     1      22.922   5.246  20.858  1.00  0.00     0.227 C 
HETATM   12  O6  UNL     1      22.994   5.849  19.789  1.00  0.00    -0.280 OA
HETATM   13  S1  UNL     1      23.794   3.725  21.100  1.00  0.00    -0.049 SA
ENDROOT
BRANCH   1  14
HETATM   14  C5  UNL     1      22.248   1.624  21.835  1.00  0.00     0.050 C 
BRANCH  14  15
HETATM   15  C4  UNL     1      20.989   1.280  22.606  1.00  0.00     0.004 C 
BRANCH  15  16
HETATM   16  C3  UNL     1      19.803   1.141  21.698  1.00  0.00    -0.000 C 
BRANCH  16  17
HETATM   17  C2  UNL     1      18.699   0.312  22.320  1.00  0.00    -0.005 C 
HETATM   18  C1  UNL     1      17.344   0.674  21.767  1.00  0.00     0.005 C 
ENDBRANCH  16  17
ENDBRANCH  15  16
ENDBRANCH  14  15
ENDBRANCH   1  14
BRANCH   7  19
HETATM   19  O2  UNL     1      19.807   7.387  25.008  1.00  0.00    -0.357 OA
ATOM     20  H2  UNL     1      20.240   7.811  25.740  1.00  0.00     0.217 HD
ENDBRANCH   7  19
BRANCH   9  21
HETATM   21  O4  UNL     1      22.234   7.962  20.872  1.00  0.00    -0.275 OA
BRANCH  21  22
HETATM   22  C14 UNL     1      21.342   8.375  19.880  1.00  0.00     0.260 C 
HETATM   23  C15 UNL     1      21.631   8.303  18.434  1.00  0.00     0.126 C 
HETATM   24  O5  UNL     1      20.235   8.833  20.255  1.00  0.00    -0.265 OA
ENDBRANCH  21  22
ENDBRANCH   9  21
BRANCH   8  25
HETATM   25  O3  UNL     1      20.702   9.035  22.903  1.00  0.00    -0.356 OA
ATOM     26  H3  UNL     1      21.325   9.669  22.569  1.00  0.00     0.218 HD
ENDBRANCH   8  25
TORSDOF 8
ENDMDL
MODEL 5
REMARK VINA RESULT: -6.371741495      1.919      2.737
REMARK  8 active torsions:
REMARK  status: ('A' for Active; 'I' for Inactive)
REMARK    1  A    between atoms: C2_2  and  C3_3 
REMARK    2  A    between atoms: C3_3  and  C4_4 
REMARK    3  A    between atoms: C4_4  and  C5_5 
REMARK    4  A    between atoms: C5_5  and  C6_6 
REMARK    5  A    between atoms: C11_12  and  O2_13 
REMARK    6  A    between atoms: C12_15  and  O3_16 
REMARK    7  A    between atoms: C13_18  and  O4_19 
REMARK    8  A    between atoms: O4_19  and  C14_20 
ROOT
HETATM    1  C6  UNL     1      22.630   3.697  22.435  1.00  0.00     0.119 C 
HETATM    2  C7  UNL     1      22.073   2.971  21.229  1.00  0.00     0.059 C 
HETATM    3  O1  UNL     1      22.468   5.070  22.315  1.00  0.00    -0.328 OA
HETATM    4  C8  UNL     1      21.693   5.939  23.006  1.00  0.00     0.097 A 
HETATM    5  C9  UNL     1      21.440   7.183  22.465  1.00  0.00     0.009 A 
HETATM    6  C10 UNL     1      22.008   7.574  21.142  1.00  0.00     0.054 C 
HETATM    7  C11 UNL     1      20.652   8.138  23.109  1.00  0.00     0.110 A 
HETATM    8  C12 UNL     1      20.098   7.841  24.336  1.00  0.00     0.135 A 
HETATM    9  C13 UNL     1      20.330   6.606  24.908  1.00  0.00     0.132 A 
HETATM   10  C16 UNL     1      21.113   5.679  24.249  1.00  0.00     0.092 A 
HETATM   11  C17 UNL     1      21.329   4.388  24.895  1.00  0.00     0.227 C 
HETATM   12  O6  UNL     1      21.156   4.265  26.105  1.00  0.00    -0.280 OA
HETATM   13  S1  UNL     1      21.841   3.009  23.910  1.00  0.00    -0.049 SA
ENDROOT
BRANCH   1  14
HETATM   14  C5  UNL     1      24.115   3.401  22.487  1.00  0.00     0.050 C 
BRANCH  14  15
HETATM   15  C4  UNL     1      24.768   3.643  21.141  1.00  0.00     0.004 C 
BRANCH  15  16
HETATM   16  C3  UNL     1      25.868   2.658  20.873  1.00  0.00    -0.000 C 
BRANCH  16  17
HETATM   17  C2  UNL     1      26.106   2.452  19.393  1.00  0.00    -0.005 C 
HETATM   18  C1  UNL     1      27.575   2.392  19.062  1.00  0.00     0.005 C 
ENDBRANCH  16  17
ENDBRANCH  15  16
ENDBRANCH  14  15
ENDBRANCH   1  14
BRANCH   7  19
HETATM   19  O2  UNL     1      20.444   9.382  22.488  1.00  0.00    -0.357 OA
ATOM     20  H2  UNL     1      21.163  10.002  22.448  1.00  0.00     0.217 HD
ENDBRANCH   7  19
BRANCH   9  21
HETATM   21  O4  UNL     1      19.751   6.325  26.163  1.00  0.00    -0.275 OA
BRANCH  21  22
HETATM   22  C14 UNL     1      20.097   7.084  27.282  1.00  0.00     0.260 C 
HETATM   23  C15 UNL     1      21.361   6.919  28.029  1.00  0.00     0.126 C 
HETATM   24  O5  UNL     1      19.277   7.954  27.664  1.00  0.00    -0.265 OA
ENDBRANCH  21  22
ENDBRANCH   9  21
BRANCH   8  25
HETATM   25  O3  UNL     1      19.304   8.787  24.997  1.00  0.00    -0.356 OA
ATOM     26  H3  UNL     1      19.701   9.403  25.601  1.00  0.00     0.218 HD
ENDBRANCH   8  25
TORSDOF 8
ENDMDL
