MODEL 1
REMARK VINA RESULT: -8.124446783      0.000      0.000
REMARK  7 active torsions:
REMARK  status: ('A' for Active; 'I' for Inactive)
REMARK    1  A    between atoms: C2_2  and  C3_3 
REMARK    2  A    between atoms: C3_3  and  C4_4 
REMARK    3  A    between atoms: C5_5  and  C6_6 
REMARK    4  A    between atoms: C7_8  and  O2_9 
REMARK    5  A    between atoms: C9_13  and  C10_14 
REMARK    6  A    between atoms: C15_22  and  C16_23 
REMARK    7  A    between atoms: C18_26  and  O6_27 
ROOT
HETATM    1  C4  UNL     1      27.546   2.349  13.371  1.00  0.00    -0.008 A 
HETATM    2  C5  UNL     1      27.050   1.187  12.827  1.00  0.00     0.047 A 
HETATM    3  C7  UNL     1      26.739   0.132  13.641  1.00  0.00     0.114 A 
HETATM    4  C8  UNL     1      26.905   0.180  15.021  1.00  0.00     0.124 A 
HETATM    5  O3  UNL     1      26.690  -0.655  15.977  1.00  0.00    -0.303 OA
HETATM    6  C9  UNL     1      27.010  -0.145  17.182  1.00  0.00     0.126 A 
HETATM    7  C15 UNL     1      27.460   1.104  16.939  1.00  0.00     0.054 A 
HETATM    8  C17 UNL     1      27.398   1.336  15.568  1.00  0.00     0.051 A 
HETATM    9  C18 UNL     1      27.714   2.405  14.760  1.00  0.00     0.087 A 
ENDROOT
BRANCH   6  10
HETATM   10  C10 UNL     1      26.859  -0.906  18.402  1.00  0.00     0.134 A 
HETATM   11  O4  UNL     1      27.431  -2.124  18.485  1.00  0.00    -0.293 OA
HETATM   12  C11 UNL     1      27.196  -2.640  19.654  1.00  0.00     0.120 A 
HETATM   13  C12 UNL     1      27.665  -3.986  20.135  1.00  0.00     0.098 C 
HETATM   14  N1  UNL     1      26.467  -1.780  20.367  1.00  0.00    -0.342 N 
HETATM   15  C13 UNL     1      26.258  -0.688  19.567  1.00  0.00     0.044 A 
ATOM     16  H1  UNL     1      26.131  -1.910  21.321  1.00  0.00     0.167 HD
HETATM   17  C14 UNL     1      25.414   0.446  20.050  1.00  0.00     0.071 C 
ENDBRANCH   6  10
BRANCH   7  18
HETATM   18  C16 UNL     1      27.989   2.121  17.827  1.00  0.00     0.273 C 
HETATM   19  O5  UNL     1      29.213   2.371  17.788  1.00  0.00    -0.301 OA
ENDBRANCH   7  18
BRANCH   3  20
HETATM   20  O2  UNL     1      26.240  -1.041  13.125  1.00  0.00    -0.357 OA
ATOM     21  H2  UNL     1      26.798  -1.644  12.647  1.00  0.00     0.217 HD
ENDBRANCH   3  20
BRANCH   9  22
HETATM   22  O6  UNL     1      28.199   3.563  15.238  1.00  0.00    -0.359 OA
ATOM     23  H6  UNL     1      27.800   3.873  16.043  1.00  0.00     0.217 HD
ENDBRANCH   9  22
BRANCH   2  24
HETATM   24  C6  UNL     1      26.854   1.082  11.363  1.00  0.00     0.273 C 
HETATM   25  O1  UNL     1      25.727   0.821  10.925  1.00  0.00    -0.301 OA
ENDBRANCH   2  24
BRANCH   1  26
HETATM   26  C3  UNL     1      27.858   3.434  12.461  1.00  0.00     0.042 C 
BRANCH  26  27
HETATM   27  C2  UNL     1      29.205   3.510  11.864  1.00  0.00     0.000 C 
HETATM   28  C1  UNL     1      29.927   4.659  12.609  1.00  0.00     0.005 C 
ENDBRANCH  26  27
ENDBRANCH   1  26
TORSDOF 7
ENDMDL
MODEL 2
REMARK VINA RESULT: -8.001177379      0.809      1.499
REMARK  7 active torsions:
REMARK  status: ('A' for Active; 'I' for Inactive)
REMARK    1  A    between atoms: C2_2  and  C3_3 
REMARK    2  A    between atoms: C3_3  and  C4_4 
REMARK    3  A    between atoms: C5_5  and  C6_6 
REMARK    4  A    between atoms: C7_8  and  O2_9 
REMARK    5  A    between atoms: C9_13  and  C10_14 
REMARK    6  A    between atoms: C15_22  and  C16_23 
REMARK    7  A    between atoms: C18_26  and  O6_27 
ROOT
HETATM    1  C4  UNL     1      27.541   2.353  13.309  1.00  0.00    -0.008 A 
HETATM    2  C5  UNL     1      27.005   1.194  12.801  1.00  0.00     0.047 A 
HETATM    3  C7  UNL     1      26.647   0.180  13.647  1.00  0.00     0.114 A 
HETATM    4  C8  UNL     1      26.804   0.269  15.026  1.00  0.00     0.124 A 
HETATM    5  O3  UNL     1      26.549  -0.524  16.007  1.00  0.00    -0.303 OA
HETATM    6  C9  UNL     1      26.880   0.014  17.197  1.00  0.00     0.126 A 
HETATM    7  C15 UNL     1      27.379   1.236  16.916  1.00  0.00     0.054 A 
HETATM    8  C17 UNL     1      27.337   1.423  15.538  1.00  0.00     0.051 A 
HETATM    9  C18 UNL     1      27.701   2.451  14.697  1.00  0.00     0.087 A 
ENDROOT
BRANCH   6  10
HETATM   10  C10 UNL     1      26.690  -0.699  18.441  1.00  0.00     0.134 A 
HETATM   11  O4  UNL     1      25.898  -0.156  19.387  1.00  0.00    -0.293 OA
HETATM   12  C11 UNL     1      25.842  -0.946  20.417  1.00  0.00     0.120 A 
HETATM   13  C12 UNL     1      25.062  -0.698  21.679  1.00  0.00     0.098 C 
HETATM   14  N1  UNL     1      26.592  -2.023  20.177  1.00  0.00    -0.342 N 
HETATM   15  C13 UNL     1      27.124  -1.857  18.925  1.00  0.00     0.044 A 
ATOM     16  H1  UNL     1      26.739  -2.815  20.802  1.00  0.00     0.167 HD
HETATM   17  C14 UNL     1      28.073  -2.870  18.373  1.00  0.00     0.071 C 
ENDBRANCH   6  10
BRANCH   7  18
HETATM   18  C16 UNL     1      27.940   2.262  17.774  1.00  0.00     0.273 C 
HETATM   19  O5  UNL     1      29.180   2.424  17.781  1.00  0.00    -0.301 OA
ENDBRANCH   7  18
BRANCH   3  20
HETATM   20  O2  UNL     1      26.107  -0.991  13.166  1.00  0.00    -0.357 OA
ATOM     21  H2  UNL     1      26.616  -1.793  13.145  1.00  0.00     0.217 HD
ENDBRANCH   3  20
BRANCH   9  22
HETATM   22  O6  UNL     1      28.226   3.605  15.139  1.00  0.00    -0.359 OA
ATOM     23  H6  UNL     1      27.601   4.304  15.298  1.00  0.00     0.217 HD
ENDBRANCH   9  22
BRANCH   2  24
HETATM   24  C6  UNL     1      26.817   1.047  11.339  1.00  0.00     0.273 C 
HETATM   25  O1  UNL     1      25.680   0.834  10.898  1.00  0.00    -0.301 OA
ENDBRANCH   2  24
BRANCH   1  26
HETATM   26  C3  UNL     1      27.902   3.394  12.365  1.00  0.00     0.042 C 
BRANCH  26  27
HETATM   27  C2  UNL     1      29.291   3.471  11.871  1.00  0.00     0.000 C 
HETATM   28  C1  UNL     1      29.927   4.677  12.603  1.00  0.00     0.005 C 
ENDBRANCH  26  27
ENDBRANCH   1  26
TORSDOF 7
ENDMDL
MODEL 3
REMARK VINA RESULT: -7.812101626      7.105      9.864
REMARK  7 active torsions:
REMARK  status: ('A' for Active; 'I' for Inactive)
REMARK    1  A    between atoms: C2_2  and  C3_3 
REMARK    2  A    between atoms: C3_3  and  C4_4 
REMARK    3  A    between atoms: C5_5  and  C6_6 
REMARK    4  A    between atoms: C7_8  and  O2_9 
REMARK    5  A    between atoms: C9_13  and  C10_14 
REMARK    6  A    between atoms: C15_22  and  C16_23 
REMARK    7  A    between atoms: C18_26  and  O6_27 
ROOT
HETATM    1  C4  UNL     1      21.325   7.371  22.369  1.00  0.00    -0.008 A 
HETATM    2  C5  UNL     1      21.310   7.881  21.092  1.00  0.00     0.047 A 
HETATM    3  C7  UNL     1      21.993   7.240  20.095  1.00  0.00     0.114 A 
HETATM    4  C8  UNL     1      22.717   6.074  20.316  1.00  0.00     0.124 A 
HETATM    5  O3  UNL     1      23.422   5.303  19.564  1.00  0.00    -0.303 OA
HETATM    6  C9  UNL     1      23.943   4.264  20.244  1.00  0.00     0.126 A 
HETATM    7  C15 UNL     1      23.522   4.416  21.517  1.00  0.00     0.054 A 
HETATM    8  C17 UNL     1      22.735   5.561  21.587  1.00  0.00     0.051 A 
HETATM    9  C18 UNL     1      22.052   6.196  22.600  1.00  0.00     0.087 A 
ENDROOT
BRANCH   6  10
HETATM   10  C10 UNL     1      24.777   3.270  19.606  1.00  0.00     0.134 A 
HETATM   11  O4  UNL     1      25.799   3.679  18.828  1.00  0.00    -0.293 OA
HETATM   12  C11 UNL     1      26.434   2.647  18.359  1.00  0.00     0.120 A 
HETATM   13  C12 UNL     1      27.634   2.686  17.452  1.00  0.00     0.098 C 
HETATM   14  N1  UNL     1      25.849   1.537  18.813  1.00  0.00    -0.342 N 
HETATM   15  C13 UNL     1      24.802   1.941  19.599  1.00  0.00     0.044 A 
ATOM     16  H1  UNL     1      26.127   0.577  18.614  1.00  0.00     0.167 HD
HETATM   17  C14 UNL     1      23.894   0.929  20.217  1.00  0.00     0.071 C 
ENDBRANCH   6  10
BRANCH   7  18
HETATM   18  C16 UNL     1      23.792   3.643  22.714  1.00  0.00     0.273 C 
HETATM   19  O5  UNL     1      22.907   2.868  23.138  1.00  0.00    -0.301 OA
ENDBRANCH   7  18
BRANCH   3  20
HETATM   20  O2  UNL     1      21.994   7.727  18.808  1.00  0.00    -0.357 OA
ATOM     21  H2  UNL     1      22.637   7.433  18.173  1.00  0.00     0.217 HD
ENDBRANCH   3  20
BRANCH   9  22
HETATM   22  O6  UNL     1      22.030   5.741  23.864  1.00  0.00    -0.359 OA
ATOM     23  H6  UNL     1      21.933   4.800  23.958  1.00  0.00     0.217 HD
ENDBRANCH   9  22
BRANCH   2  24
HETATM   24  C6  UNL     1      20.554   9.121  20.802  1.00  0.00     0.273 C 
HETATM   25  O1  UNL     1      19.810   9.153  19.814  1.00  0.00    -0.301 OA
ENDBRANCH   2  24
BRANCH   1  26
HETATM   26  C3  UNL     1      20.584   8.092  23.387  1.00  0.00     0.042 C 
BRANCH  26  27
HETATM   27  C2  UNL     1      21.300   9.028  24.275  1.00  0.00     0.000 C 
HETATM   28  C1  UNL     1      20.534   8.997  25.619  1.00  0.00     0.005 C 
ENDBRANCH  26  27
ENDBRANCH   1  26
TORSDOF 7
ENDMDL
MODEL 4
REMARK VINA RESULT: -7.625788544      4.522      7.493
REMARK  7 active torsions:
REMARK  status: ('A' for Active; 'I' for Inactive)
REMARK    1  A    between atoms: C2_2  and  C3_3 
REMARK    2  A    between atoms: C3_3  and  C4_4 
REMARK    3  A    between atoms: C5_5  and  C6_6 
REMARK    4  A    between atoms: C7_8  and  O2_9 
REMARK    5  A    between atoms: C9_13  and  C10_14 
REMARK    6  A    between atoms: C15_22  and  C16_23 
REMARK    7  A    between atoms: C18_26  and  O6_27 
ROOT
HETATM    1  C4  UNL     1      26.542   0.351  18.835  1.00  0.00    -0.008 A 
HETATM    2  C5  UNL     1      27.152   1.290  18.038  1.00  0.00     0.047 A 
HETATM    3  C7  UNL     1      26.741   2.594  18.085  1.00  0.00     0.114 A 
HETATM    4  C8  UNL     1      25.714   3.023  18.917  1.00  0.00     0.124 A 
HETATM    5  O3  UNL     1      25.160   4.164  19.138  1.00  0.00    -0.303 OA
HETATM    6  C9  UNL     1      24.178   4.084  20.057  1.00  0.00     0.126 A 
HETATM    7  C15 UNL     1      24.129   2.787  20.425  1.00  0.00     0.054 A 
HETATM    8  C17 UNL     1      25.102   2.091  19.714  1.00  0.00     0.051 A 
HETATM    9  C18 UNL     1      25.507   0.775  19.677  1.00  0.00     0.087 A 
ENDROOT
BRANCH   6  10
HETATM   10  C10 UNL     1      23.410   5.241  20.461  1.00  0.00     0.134 A 
HETATM   11  O4  UNL     1      22.991   6.107  19.517  1.00  0.00    -0.293 OA
HETATM   12  C11 UNL     1      22.311   7.065  20.071  1.00  0.00     0.120 A 
HETATM   13  C12 UNL     1      21.675   8.225  19.354  1.00  0.00     0.098 C 
HETATM   14  N1  UNL     1      22.265   6.857  21.388  1.00  0.00    -0.342 N 
HETATM   15  C13 UNL     1      22.963   5.702  21.625  1.00  0.00     0.044 A 
ATOM     16  H1  UNL     1      21.801   7.442  22.082  1.00  0.00     0.167 HD
HETATM   17  C14 UNL     1      23.156   5.216  23.024  1.00  0.00     0.071 C 
ENDBRANCH   6  10
BRANCH   7  18
HETATM   18  C16 UNL     1      23.253   2.083  21.341  1.00  0.00     0.273 C 
HETATM   19  O5  UNL     1      22.323   1.393  20.869  1.00  0.00    -0.301 OA
ENDBRANCH   7  18
BRANCH   3  20
HETATM   20  O2  UNL     1      27.335   3.555  17.299  1.00  0.00    -0.357 OA
ATOM     21  H2  UNL     1      27.470   3.414  16.369  1.00  0.00     0.217 HD
ENDBRANCH   3  20
BRANCH   9  22
HETATM   22  O6  UNL     1      24.948  -0.183  20.435  1.00  0.00    -0.359 OA
ATOM     23  H6  UNL     1      25.123  -1.076  20.161  1.00  0.00     0.217 HD
ENDBRANCH   9  22
BRANCH   2  24
HETATM   24  C6  UNL     1      28.253   0.887  17.132  1.00  0.00     0.273 C 
HETATM   25  O1  UNL     1      29.319   1.513  17.166  1.00  0.00    -0.301 OA
ENDBRANCH   2  24
BRANCH   1  26
HETATM   26  C3  UNL     1      27.018  -1.017  18.744  1.00  0.00     0.042 C 
BRANCH  26  27
HETATM   27  C2  UNL     1      26.254  -1.996  17.948  1.00  0.00     0.000 C 
HETATM   28  C1  UNL     1      27.073  -3.308  18.004  1.00  0.00     0.005 C 
ENDBRANCH  26  27
ENDBRANCH   1  26
TORSDOF 7
ENDMDL
MODEL 5
REMARK VINA RESULT: -7.470749177      5.792      9.222
REMARK  7 active torsions:
REMARK  status: ('A' for Active; 'I' for Inactive)
REMARK    1  A    between atoms: C2_2  and  C3_3 
REMARK    2  A    between atoms: C3_3  and  C4_4 
REMARK    3  A    between atoms: C5_5  and  C6_6 
REMARK    4  A    between atoms: C7_8  and  O2_9 
REMARK    5  A    between atoms: C9_13  and  C10_14 
REMARK    6  A    between atoms: C15_22  and  C16_23 
REMARK    7  A    between atoms: C18_26  and  O6_27 
ROOT
HETATM    1  C4  UNL     1      22.611   5.396  23.058  1.00  0.00    -0.008 A 
HETATM    2  C5  UNL     1      22.558   6.283  22.008  1.00  0.00     0.047 A 
HETATM    3  C7  UNL     1      23.147   5.964  20.815  1.00  0.00     0.114 A 
HETATM    4  C8  UNL     1      23.811   4.760  20.610  1.00  0.00     0.124 A 
HETATM    5  O3  UNL     1      24.428   4.239  19.607  1.00  0.00    -0.303 OA
HETATM    6  C9  UNL     1      24.922   3.019  19.890  1.00  0.00     0.126 A 
HETATM    7  C15 UNL     1      24.580   2.777  21.173  1.00  0.00     0.054 A 
HETATM    8  C17 UNL     1      23.868   3.872  21.652  1.00  0.00     0.051 A 
HETATM    9  C18 UNL     1      23.278   4.181  22.858  1.00  0.00     0.087 A 
ENDROOT
BRANCH   6  10
HETATM   10  C10 UNL     1      25.660   2.245  18.917  1.00  0.00     0.134 A 
HETATM   11  O4  UNL     1      26.938   2.581  18.652  1.00  0.00    -0.293 OA
HETATM   12  C11 UNL     1      27.431   1.766  17.767  1.00  0.00     0.120 A 
HETATM   13  C12 UNL     1      28.828   1.808  17.210  1.00  0.00     0.098 C 
HETATM   14  N1  UNL     1      26.495   0.878  17.429  1.00  0.00    -0.342 N 
HETATM   15  C13 UNL     1      25.379   1.189  18.160  1.00  0.00     0.044 A 
ATOM     16  H1  UNL     1      26.592   0.116  16.758  1.00  0.00     0.167 HD
HETATM   17  C14 UNL     1      24.116   0.414  17.968  1.00  0.00     0.071 C 
ENDBRANCH   6  10
BRANCH   7  18
HETATM   18  C16 UNL     1      24.867   1.656  22.047  1.00  0.00     0.273 C 
HETATM   19  O5  UNL     1      23.966   0.816  22.259  1.00  0.00    -0.301 OA
ENDBRANCH   7  18
BRANCH   3  20
HETATM   20  O2  UNL     1      23.108   6.832  19.748  1.00  0.00    -0.357 OA
ATOM     21  H2  UNL     1      23.305   6.536  18.867  1.00  0.00     0.217 HD
ENDBRANCH   3  20
BRANCH   9  22
HETATM   22  O6  UNL     1      23.297   3.351  23.914  1.00  0.00    -0.359 OA
ATOM     23  H6  UNL     1      23.812   2.559  23.804  1.00  0.00     0.217 HD
ENDBRANCH   9  22
BRANCH   2  24
HETATM   24  C6  UNL     1      21.863   7.581  22.174  1.00  0.00     0.273 C 
HETATM   25  O1  UNL     1      21.058   7.945  21.307  1.00  0.00    -0.301 OA
ENDBRANCH   2  24
BRANCH   1  26
HETATM   26  C3  UNL     1      21.970   5.787  24.299  1.00  0.00     0.042 C 
BRANCH  26  27
HETATM   27  C2  UNL     1      20.560   5.421  24.530  1.00  0.00     0.000 C 
HETATM   28  C1  UNL     1      19.961   6.578  25.366  1.00  0.00     0.005 C 
ENDBRANCH  26  27
ENDBRANCH   1  26
TORSDOF 7
ENDMDL
