MODEL 1
REMARK VINA RESULT: -7.898781113      0.000      0.000
REMARK  6 active torsions:
REMARK  status: ('A' for Active; 'I' for Inactive)
REMARK    1  A    between atoms: C2_2  and  N1_4 
REMARK    2  A    between atoms: N1_4  and  C4_6 
REMARK    3  A    between atoms: C5_7  and  N2_8 
REMARK    4  A    between atoms: C6_11  and  O3_12 
REMARK    5  A    between atoms: C8_16  and  C9_17 
REMARK    6  A    between atoms: C15_24  and  N3_25 
ROOT
HETATM    1  C4  UNL     1      27.479   1.271  15.162  1.00  0.00     0.099 A 
HETATM    2  C5  UNL     1      26.610   0.322  14.627  1.00  0.00     0.166 A 
HETATM    3  C6  UNL     1      25.742  -0.404  15.396  1.00  0.00     0.124 A 
HETATM    4  C7  UNL     1      25.692  -0.219  16.765  1.00  0.00     0.082 A 
HETATM    5 CL1  UNL     1      24.495  -1.142  17.670  1.00  0.00    -0.080 Cl
HETATM    6  C8  UNL     1      26.526   0.699  17.330  1.00  0.00     0.026 A 
HETATM    7  C15 UNL     1      27.414   1.438  16.517  1.00  0.00     0.143 A 
ENDROOT
BRANCH   6   8
HETATM    8  C9  UNL     1      26.562   0.875  18.769  1.00  0.00     0.048 C 
HETATM    9  C10 UNL     1      25.696   1.504  19.509  1.00  0.00     0.047 C 
HETATM   10  C11 UNL     1      24.466   2.188  19.087  1.00  0.00     0.065 C 
HETATM   11  O4  UNL     1      25.956   1.542  20.899  1.00  0.00    -0.355 OA
HETATM   12  C12 UNL     1      24.322   3.559  19.733  1.00  0.00     0.009 C 
HETATM   13  C13 UNL     1      24.901   3.611  21.126  1.00  0.00     0.027 C 
HETATM   14  C14 UNL     1      24.949   2.185  21.681  1.00  0.00     0.175 C 
ENDBRANCH   6   8
BRANCH   7  15
HETATM   15  N3  UNL     1      28.231   2.410  17.167  1.00  0.00    -0.112 N 
HETATM   16  O5  UNL     1      29.418   2.124  17.408  1.00  0.00    -0.532 OA
HETATM   17  O6  UNL     1      27.725   3.656  17.528  1.00  0.00    -0.532 OA
ENDBRANCH   7  15
BRANCH   3  18
HETATM   18  O3  UNL     1      24.895  -1.342  14.806  1.00  0.00    -0.357 OA
ATOM     19  H3  UNL     1      24.458  -1.995  15.341  1.00  0.00     0.218 HD
ENDBRANCH   3  18
BRANCH   1  20
HETATM   20  N1  UNL     1      28.304   1.960  14.268  1.00  0.00    -0.382 N 
ATOM     21  H1  UNL     1      29.100   1.423  13.924  1.00  0.00     0.160 HD
BRANCH  20  22
HETATM   22  C2  UNL     1      28.218   3.279  13.762  1.00  0.00     0.073 C 
HETATM   23  C1  UNL     1      28.060   3.387  12.260  1.00  0.00     0.031 C 
HETATM   24  C3  UNL     1      29.491   4.044  14.137  1.00  0.00     0.031 C 
ENDBRANCH  20  22
ENDBRANCH   1  20
BRANCH   2  25
HETATM   25  N2  UNL     1      26.585   0.108  13.240  1.00  0.00    -0.110 N 
HETATM   26  O1  UNL     1      27.292  -0.744  12.722  1.00  0.00    -0.532 OA
HETATM   27  O2  UNL     1      25.744   0.848  12.466  1.00  0.00    -0.532 OA
ENDBRANCH   2  25
TORSDOF 6
ENDMDL
MODEL 2
REMARK VINA RESULT: -7.826980240      8.169     12.519
REMARK  6 active torsions:
REMARK  status: ('A' for Active; 'I' for Inactive)
REMARK    1  A    between atoms: C2_2  and  N1_4 
REMARK    2  A    between atoms: N1_4  and  C4_6 
REMARK    3  A    between atoms: C5_7  and  N2_8 
REMARK    4  A    between atoms: C6_11  and  O3_12 
REMARK    5  A    between atoms: C8_16  and  C9_17 
REMARK    6  A    between atoms: C15_24  and  N3_25 
ROOT
HETATM    1  C4  UNL     1      19.820   6.443  25.788  1.00  0.00     0.099 A 
HETATM    2  C5  UNL     1      19.992   7.721  25.259  1.00  0.00     0.166 A 
HETATM    3  C6  UNL     1      20.410   7.940  23.975  1.00  0.00     0.124 A 
HETATM    4  C7  UNL     1      20.684   6.878  23.133  1.00  0.00     0.082 A 
HETATM    5 CL1  UNL     1      21.147   7.250  21.474  1.00  0.00    -0.080 Cl
HETATM    6  C8  UNL     1      20.530   5.612  23.610  1.00  0.00     0.026 A 
HETATM    7  C15 UNL     1      20.096   5.407  24.939  1.00  0.00     0.143 A 
ENDROOT
BRANCH   6   8
HETATM    8  C9  UNL     1      20.875   4.468  22.789  1.00  0.00     0.048 C 
HETATM    9  C10 UNL     1      22.067   4.056  22.469  1.00  0.00     0.047 C 
HETATM   10  C11 UNL     1      23.362   4.632  22.857  1.00  0.00     0.065 C 
HETATM   11  O4  UNL     1      22.144   2.907  21.647  1.00  0.00    -0.355 OA
HETATM   12  C12 UNL     1      24.314   4.748  21.674  1.00  0.00     0.009 C 
HETATM   13  C13 UNL     1      24.132   3.639  20.668  1.00  0.00     0.027 C 
HETATM   14  C14 UNL     1      23.469   2.452  21.374  1.00  0.00     0.175 C 
ENDBRANCH   6   8
BRANCH   7  15
HETATM   15  N3  UNL     1      19.918   4.057  25.363  1.00  0.00    -0.112 N 
HETATM   16  O5  UNL     1      18.762   3.597  25.414  1.00  0.00    -0.532 OA
HETATM   17  O6  UNL     1      21.004   3.261  25.716  1.00  0.00    -0.532 OA
ENDBRANCH   7  15
BRANCH   3  18
HETATM   18  O3  UNL     1      20.566   9.242  23.499  1.00  0.00    -0.357 OA
ATOM     19  H3  UNL     1      20.300   9.464  22.614  1.00  0.00     0.218 HD
ENDBRANCH   3  18
BRANCH   1  20
HETATM   20  N1  UNL     1      19.370   6.352  27.109  1.00  0.00    -0.382 N 
ATOM     21  H1  UNL     1      18.363   6.470  27.224  1.00  0.00     0.160 HD
BRANCH  20  22
HETATM   22  C2  UNL     1      20.081   6.122  28.311  1.00  0.00     0.073 C 
HETATM   23  C1  UNL     1      21.587   6.068  28.172  1.00  0.00     0.031 C 
HETATM   24  C3  UNL     1      19.636   4.784  28.909  1.00  0.00     0.031 C 
ENDBRANCH  20  22
ENDBRANCH   1  20
BRANCH   2  25
HETATM   25  N2  UNL     1      19.699   8.844  26.048  1.00  0.00    -0.110 N 
HETATM   26  O1  UNL     1      20.593   9.530  26.521  1.00  0.00    -0.532 OA
HETATM   27  O2  UNL     1      18.399   9.182  26.272  1.00  0.00    -0.532 OA
ENDBRANCH   2  25
TORSDOF 6
ENDMDL
MODEL 3
REMARK VINA RESULT: -7.580781794      2.285      2.796
REMARK  6 active torsions:
REMARK  status: ('A' for Active; 'I' for Inactive)
REMARK    1  A    between atoms: C2_2  and  N1_4 
REMARK    2  A    between atoms: N1_4  and  C4_6 
REMARK    3  A    between atoms: C5_7  and  N2_8 
REMARK    4  A    between atoms: C6_11  and  O3_12 
REMARK    5  A    between atoms: C8_16  and  C9_17 
REMARK    6  A    between atoms: C15_24  and  N3_25 
ROOT
HETATM    1  C4  UNL     1      27.743   1.614  14.322  1.00  0.00     0.099 A 
HETATM    2  C5  UNL     1      27.415   0.719  13.303  1.00  0.00     0.166 A 
HETATM    3  C6  UNL     1      27.203  -0.613  13.529  1.00  0.00     0.124 A 
HETATM    4  C7  UNL     1      27.307  -1.136  14.805  1.00  0.00     0.082 A 
HETATM    5 CL1  UNL     1      26.947  -2.848  15.017  1.00  0.00    -0.080 Cl
HETATM    6  C8  UNL     1      27.627  -0.297  15.829  1.00  0.00     0.026 A 
HETATM    7  C15 UNL     1      27.840   1.076  15.574  1.00  0.00     0.143 A 
ENDROOT
BRANCH   6   8
HETATM    8  C9  UNL     1      27.819  -0.812  17.171  1.00  0.00     0.048 C 
HETATM    9  C10 UNL     1      26.898  -1.137  18.032  1.00  0.00     0.047 C 
HETATM   10  C11 UNL     1      25.439  -1.073  17.869  1.00  0.00     0.065 C 
HETATM   11  O4  UNL     1      27.342  -1.616  19.287  1.00  0.00    -0.355 OA
HETATM   12  C12 UNL     1      24.756  -0.447  19.077  1.00  0.00     0.009 C 
HETATM   13  C13 UNL     1      25.465  -0.754  20.373  1.00  0.00     0.027 C 
HETATM   14  C14 UNL     1      26.301  -2.021  20.176  1.00  0.00     0.175 C 
ENDBRANCH   6   8
BRANCH   7  15
HETATM   15  N3  UNL     1      28.133   1.906  16.697  1.00  0.00    -0.112 N 
HETATM   16  O5  UNL     1      27.203   2.546  17.223  1.00  0.00    -0.532 OA
HETATM   17  O6  UNL     1      29.425   2.008  17.203  1.00  0.00    -0.532 OA
ENDBRANCH   7  15
BRANCH   3  18
HETATM   18  O3  UNL     1      26.879  -1.463  12.471  1.00  0.00    -0.357 OA
ATOM     19  H3  UNL     1      26.955  -2.405  12.573  1.00  0.00     0.218 HD
ENDBRANCH   3  18
BRANCH   1  20
HETATM   20  N1  UNL     1      27.916   2.954  13.965  1.00  0.00    -0.382 N 
ATOM     21  H1  UNL     1      27.058   3.440  13.704  1.00  0.00     0.160 HD
BRANCH  20  22
HETATM   22  C2  UNL     1      29.086   3.749  13.906  1.00  0.00     0.073 C 
HETATM   23  C1  UNL     1      28.888   5.217  14.216  1.00  0.00     0.031 C 
HETATM   24  C3  UNL     1      29.680   3.663  12.496  1.00  0.00     0.031 C 
ENDBRANCH  20  22
ENDBRANCH   1  20
BRANCH   2  25
HETATM   25  N2  UNL     1      27.260   1.189  11.990  1.00  0.00    -0.110 N 
HETATM   26  O1  UNL     1      26.352   1.954  11.699  1.00  0.00    -0.532 OA
HETATM   27  O2  UNL     1      28.148   0.801  11.033  1.00  0.00    -0.532 OA
ENDBRANCH   2  25
TORSDOF 6
ENDMDL
MODEL 4
REMARK VINA RESULT: -7.567346452      2.460      3.356
REMARK  6 active torsions:
REMARK  status: ('A' for Active; 'I' for Inactive)
REMARK    1  A    between atoms: C2_2  and  N1_4 
REMARK    2  A    between atoms: N1_4  and  C4_6 
REMARK    3  A    between atoms: C5_7  and  N2_8 
REMARK    4  A    between atoms: C6_11  and  O3_12 
REMARK    5  A    between atoms: C8_16  and  C9_17 
REMARK    6  A    between atoms: C15_24  and  N3_25 
ROOT
HETATM    1  C4  UNL     1      28.234   2.082  14.574  1.00  0.00     0.099 A 
HETATM    2  C5  UNL     1      27.423   1.583  13.555  1.00  0.00     0.166 A 
HETATM    3  C6  UNL     1      26.430   0.670  13.780  1.00  0.00     0.124 A 
HETATM    4  C7  UNL     1      26.186   0.195  15.056  1.00  0.00     0.082 A 
HETATM    5 CL1  UNL     1      24.842  -0.924  15.267  1.00  0.00    -0.080 Cl
HETATM    6  C8  UNL     1      26.957   0.655  16.081  1.00  0.00     0.026 A 
HETATM    7  C15 UNL     1      27.977   1.600  15.827  1.00  0.00     0.143 A 
ENDROOT
BRANCH   6   8
HETATM    8  C9  UNL     1      26.788   0.132  17.423  1.00  0.00     0.048 C 
HETATM    9  C10 UNL     1      27.223  -1.002  17.889  1.00  0.00     0.047 C 
HETATM   10  C11 UNL     1      27.997  -2.036  17.188  1.00  0.00     0.065 C 
HETATM   11  O4  UNL     1      26.924  -1.290  19.241  1.00  0.00    -0.355 OA
HETATM   12  C12 UNL     1      27.448  -3.433  17.444  1.00  0.00     0.009 C 
HETATM   13  C13 UNL     1      26.862  -3.586  18.825  1.00  0.00     0.027 C 
HETATM   14  C14 UNL     1      27.475  -2.513  19.730  1.00  0.00     0.175 C 
ENDBRANCH   6   8
BRANCH   7  15
HETATM   15  N3  UNL     1      28.721   2.069  16.950  1.00  0.00    -0.112 N 
HETATM   16  O5  UNL     1      29.881   1.648  17.114  1.00  0.00    -0.532 OA
HETATM   17  O6  UNL     1      28.173   2.978  17.850  1.00  0.00    -0.532 OA
ENDBRANCH   7  15
BRANCH   3  18
HETATM   18  O3  UNL     1      25.649   0.205  12.722  1.00  0.00    -0.357 OA
ATOM     19  H3  UNL     1      25.828   0.490  11.834  1.00  0.00     0.218 HD
ENDBRANCH   3  18
BRANCH   1  20
HETATM   20  N1  UNL     1      29.202   3.025  14.218  1.00  0.00    -0.382 N 
ATOM     21  H1  UNL     1      30.090   2.628  13.909  1.00  0.00     0.160 HD
BRANCH  20  22
HETATM   22  C2  UNL     1      29.154   4.440  14.215  1.00  0.00     0.073 C 
HETATM   23  C1  UNL     1      27.796   5.042  14.506  1.00  0.00     0.031 C 
HETATM   24  C3  UNL     1      29.589   4.954  12.839  1.00  0.00     0.031 C 
ENDBRANCH  20  22
ENDBRANCH   1  20
BRANCH   2  25
HETATM   25  N2  UNL     1      27.594   2.048  12.242  1.00  0.00    -0.110 N 
HETATM   26  O1  UNL     1      28.412   1.533  11.494  1.00  0.00    -0.532 OA
HETATM   27  O2  UNL     1      26.822   3.076  11.792  1.00  0.00    -0.532 OA
ENDBRANCH   2  25
TORSDOF 6
ENDMDL
MODEL 5
REMARK VINA RESULT: -7.553150360      2.746      4.210
REMARK  6 active torsions:
REMARK  status: ('A' for Active; 'I' for Inactive)
REMARK    1  A    between atoms: C2_2  and  N1_4 
REMARK    2  A    between atoms: N1_4  and  C4_6 
REMARK    3  A    between atoms: C5_7  and  N2_8 
REMARK    4  A    between atoms: C6_11  and  O3_12 
REMARK    5  A    between atoms: C8_16  and  C9_17 
REMARK    6  A    between atoms: C15_24  and  N3_25 
ROOT
HETATM    1  C4  UNL     1      26.887   0.003  17.217  1.00  0.00     0.099 A 
HETATM    2  C5  UNL     1      27.864   0.954  17.510  1.00  0.00     0.166 A 
HETATM    3  C6  UNL     1      27.771   1.805  18.577  1.00  0.00     0.124 A 
HETATM    4  C7  UNL     1      26.681   1.754  19.425  1.00  0.00     0.082 A 
HETATM    5 CL1  UNL     1      26.678   2.837  20.815  1.00  0.00    -0.080 Cl
HETATM    6  C8  UNL     1      25.702   0.840  19.175  1.00  0.00     0.026 A 
HETATM    7  C15 UNL     1      25.818  -0.031  18.069  1.00  0.00     0.143 A 
ENDROOT
BRANCH   6   8
HETATM    8  C9  UNL     1      24.506   0.799  19.994  1.00  0.00     0.048 C 
HETATM    9  C10 UNL     1      23.563   1.693  20.060  1.00  0.00     0.047 C 
HETATM   10  C11 UNL     1      23.461   2.963  19.327  1.00  0.00     0.065 C 
HETATM   11  O4  UNL     1      22.492   1.423  20.943  1.00  0.00    -0.355 OA
HETATM   12  C12 UNL     1      23.068   4.119  20.237  1.00  0.00     0.009 C 
HETATM   13  C13 UNL     1      22.148   3.694  21.355  1.00  0.00     0.027 C 
HETATM   14  C14 UNL     1      21.449   2.398  20.937  1.00  0.00     0.175 C 
ENDBRANCH   6   8
BRANCH   7  15
HETATM   15  N3  UNL     1      24.777  -0.990  17.886  1.00  0.00    -0.112 N 
HETATM   16  O5  UNL     1      23.871  -0.737  17.071  1.00  0.00    -0.532 OA
HETATM   17  O6  UNL     1      24.764  -2.185  18.599  1.00  0.00    -0.532 OA
ENDBRANCH   7  15
BRANCH   3  18
HETATM   18  O3  UNL     1      28.779   2.738  18.821  1.00  0.00    -0.357 OA
ATOM     19  H3  UNL     1      29.467   2.547  19.448  1.00  0.00     0.218 HD
ENDBRANCH   3  18
BRANCH   1  20
HETATM   20  N1  UNL     1      27.107  -0.821  16.110  1.00  0.00    -0.382 N 
ATOM     21  H1  UNL     1      27.832  -1.526  16.241  1.00  0.00     0.160 HD
BRANCH  20  22
HETATM   22  C2  UNL     1      26.489  -0.838  14.836  1.00  0.00     0.073 C 
HETATM   23  C1  UNL     1      27.166  -1.709  13.800  1.00  0.00     0.031 C 
HETATM   24  C3  UNL     1      26.458   0.587  14.275  1.00  0.00     0.031 C 
ENDBRANCH  20  22
ENDBRANCH   1  20
BRANCH   2  25
HETATM   25  N2  UNL     1      29.013   1.036  16.709  1.00  0.00    -0.110 N 
HETATM   26  O1  UNL     1      29.693   0.047  16.481  1.00  0.00    -0.532 OA
HETATM   27  O2  UNL     1      29.361   2.234  16.163  1.00  0.00    -0.532 OA
ENDBRANCH   2  25
TORSDOF 6
ENDMDL
