MODEL 1
REMARK VINA RESULT: -7.594051731      0.000      0.000
REMARK  6 active torsions:
REMARK  status: ('A' for Active; 'I' for Inactive)
REMARK    1  A    between atoms: S1_2  and  C2_3 
REMARK    2  A    between atoms: C3_5  and  N1_6 
REMARK    3  A    between atoms: C4_11  and  C6_13 
REMARK    4  A    between atoms: C8_18  and  O4_19 
REMARK    5  A    between atoms: C9_21  and  C10_22 
REMARK    6  A    between atoms: C10_22  and  C12_24 
ROOT
HETATM    1  C2  UNL     1      22.988   1.900  21.067  1.00  0.00     0.052 A 
HETATM    2  S2  UNL     1      23.611   0.689  20.060  1.00  0.00    -0.060 SA
HETATM    3  C3  UNL     1      24.561   1.632  19.035  1.00  0.00     0.137 A 
HETATM    4  C8  UNL     1      24.375   2.910  19.503  1.00  0.00     0.110 A 
HETATM    5  C9  UNL     1      23.569   3.077  20.549  1.00  0.00     0.009 A 
ENDROOT
BRANCH   3   6
HETATM    6  N1  UNL     1      25.381   1.166  17.950  1.00  0.00    -0.197 N 
HETATM    7  N2  UNL     1      25.004   0.447  16.822  1.00  0.00    -0.235 N 
HETATM    8  N3  UNL     1      25.984   0.177  16.059  1.00  0.00    -0.292 N 
ATOM      9  H2  UNL     1      24.043   0.166  16.627  1.00  0.00     0.208 HD
HETATM   10  C4  UNL     1      27.224   0.702  16.583  1.00  0.00     0.213 A 
ATOM     11  H3  UNL     1      25.904  -0.345  15.186  1.00  0.00     0.183 HD
HETATM   12  C5  UNL     1      27.846   1.692  15.614  1.00  0.00     0.063 C 
HETATM   13  C7  UNL     1      26.769   1.352  17.847  1.00  0.00     0.285 A 
HETATM   14  O3  UNL     1      27.610   1.935  18.602  1.00  0.00    -0.268 OA
BRANCH  10  15
HETATM   15  C6  UNL     1      28.162  -0.423  16.875  1.00  0.00     0.213 C 
HETATM   16  O1  UNL     1      27.733  -1.411  17.505  1.00  0.00    -0.646 OA
HETATM   17  O2  UNL     1      29.483  -0.402  16.472  1.00  0.00    -0.646 OA
ENDBRANCH  10  15
ENDBRANCH   3   6
BRANCH   4  18
HETATM   18  O4  UNL     1      25.057   3.958  18.798  1.00  0.00    -0.357 OA
ATOM     19  H4  UNL     1      24.533   4.478  18.198  1.00  0.00     0.217 HD
ENDBRANCH   4  18
BRANCH   1  20
HETATM   20  S1  UNL     1      21.904   1.831  22.512  1.00  0.00    -0.126 SA
HETATM   21  C1  UNL     1      20.236   1.542  21.919  1.00  0.00     0.096 C 
ENDBRANCH   1  20
BRANCH   5  22
HETATM   22  C10 UNL     1      23.159   4.395  21.221  1.00  0.00     0.044 C 
HETATM   23  C11 UNL     1      24.320   4.806  22.183  1.00  0.00     0.019 C 
BRANCH  22  24
HETATM   24  C12 UNL     1      23.175   5.545  20.261  1.00  0.00     0.019 C 
HETATM   25  C13 UNL     1      22.675   6.741  20.426  1.00  0.00     0.087 C 
HETATM   26  C14 UNL     1      21.967   7.294  21.582  1.00  0.00     0.082 C 
HETATM   27  F1  UNL     1      22.879   7.615  19.349  1.00  0.00    -0.212 F 
ENDBRANCH  22  24
ENDBRANCH   5  22
TORSDOF 6
ENDMDL
MODEL 2
REMARK VINA RESULT: -7.413623528      1.750      2.143
REMARK  6 active torsions:
REMARK  status: ('A' for Active; 'I' for Inactive)
REMARK    1  A    between atoms: S1_2  and  C2_3 
REMARK    2  A    between atoms: C3_5  and  N1_6 
REMARK    3  A    between atoms: C4_11  and  C6_13 
REMARK    4  A    between atoms: C8_18  and  O4_19 
REMARK    5  A    between atoms: C9_21  and  C10_22 
REMARK    6  A    between atoms: C10_22  and  C12_24 
ROOT
HETATM    1  C2  UNL     1      21.806   3.156  21.993  1.00  0.00     0.052 A 
HETATM    2  S2  UNL     1      22.154   1.664  21.272  1.00  0.00    -0.060 SA
HETATM    3  C3  UNL     1      23.168   2.180  20.027  1.00  0.00     0.137 A 
HETATM    4  C8  UNL     1      23.223   3.543  20.195  1.00  0.00     0.110 A 
HETATM    5  C9  UNL     1      22.529   4.072  21.200  1.00  0.00     0.009 A 
ENDROOT
BRANCH   3   6
HETATM    6  N1  UNL     1      23.824   1.352  19.052  1.00  0.00    -0.197 N 
HETATM    7  N2  UNL     1      23.369   0.959  17.799  1.00  0.00    -0.235 N 
HETATM    8  N3  UNL     1      24.192   0.207  17.189  1.00  0.00    -0.292 N 
ATOM      9  H2  UNL     1      22.470   1.244  17.410  1.00  0.00     0.208 HD
HETATM   10  C4  UNL     1      25.382  -0.026  17.977  1.00  0.00     0.213 A 
ATOM     11  H3  UNL     1      24.034  -0.183  16.260  1.00  0.00     0.183 HD
HETATM   12  C5  UNL     1      26.619   0.478  17.254  1.00  0.00     0.063 C 
HETATM   13  C7  UNL     1      25.086   0.759  19.212  1.00  0.00     0.285 A 
HETATM   14  O3  UNL     1      25.928   0.790  20.163  1.00  0.00    -0.268 OA
BRANCH  10  15
HETATM   15  C6  UNL     1      25.500  -1.481  18.291  1.00  0.00     0.213 C 
HETATM   16  O1  UNL     1      24.460  -2.169  18.334  1.00  0.00    -0.646 OA
HETATM   17  O2  UNL     1      26.719  -2.083  18.533  1.00  0.00    -0.646 OA
ENDBRANCH  10  15
ENDBRANCH   3   6
BRANCH   4  18
HETATM   18  O4  UNL     1      24.011   4.276  19.246  1.00  0.00    -0.357 OA
ATOM     19  H4  UNL     1      24.654   4.878  19.602  1.00  0.00     0.217 HD
ENDBRANCH   4  18
BRANCH   1  20
HETATM   20  S1  UNL     1      20.830   3.596  23.451  1.00  0.00    -0.126 SA
HETATM   21  C1  UNL     1      20.385   2.068  24.279  1.00  0.00     0.096 C 
ENDBRANCH   1  20
BRANCH   5  22
HETATM   22  C10 UNL     1      22.384   5.556  21.565  1.00  0.00     0.044 C 
HETATM   23  C11 UNL     1      23.574   5.920  22.510  1.00  0.00     0.019 C 
BRANCH  22  24
HETATM   24  C12 UNL     1      22.673   6.452  20.400  1.00  0.00     0.019 C 
HETATM   25  C13 UNL     1      22.087   7.577  20.081  1.00  0.00     0.087 C 
HETATM   26  C14 UNL     1      20.997   8.275  20.765  1.00  0.00     0.082 C 
HETATM   27  F1  UNL     1      22.606   8.206  18.942  1.00  0.00    -0.212 F 
ENDBRANCH  22  24
ENDBRANCH   5  22
TORSDOF 6
ENDMDL
MODEL 3
REMARK VINA RESULT: -7.400371280      2.463      3.324
REMARK  6 active torsions:
REMARK  status: ('A' for Active; 'I' for Inactive)
REMARK    1  A    between atoms: S1_2  and  C2_3 
REMARK    2  A    between atoms: C3_5  and  N1_6 
REMARK    3  A    between atoms: C4_11  and  C6_13 
REMARK    4  A    between atoms: C8_18  and  O4_19 
REMARK    5  A    between atoms: C9_21  and  C10_22 
REMARK    6  A    between atoms: C10_22  and  C12_24 
ROOT
HETATM    1  C2  UNL     1      24.449   0.737  21.369  1.00  0.00     0.052 A 
HETATM    2  S2  UNL     1      25.391  -0.096  20.235  1.00  0.00    -0.060 SA
HETATM    3  C3  UNL     1      24.753   0.542  18.811  1.00  0.00     0.137 A 
HETATM    4  C8  UNL     1      23.788   1.418  19.250  1.00  0.00     0.110 A 
HETATM    5  C9  UNL     1      23.611   1.536  20.564  1.00  0.00     0.009 A 
ENDROOT
BRANCH   3   6
HETATM    6  N1  UNL     1      25.165   0.234  17.469  1.00  0.00    -0.197 N 
HETATM    7  N2  UNL     1      24.378   0.043  16.340  1.00  0.00    -0.235 N 
HETATM    8  N3  UNL     1      25.060  -0.233  15.304  1.00  0.00    -0.292 N 
ATOM      9  H2  UNL     1      23.360   0.116  16.342  1.00  0.00     0.208 HD
HETATM   10  C4  UNL     1      26.476  -0.266  15.594  1.00  0.00     0.213 A 
ATOM     11  H3  UNL     1      24.659  -0.409  14.383  1.00  0.00     0.183 HD
HETATM   12  C5  UNL     1      27.223   0.767  14.769  1.00  0.00     0.063 C 
HETATM   13  C7  UNL     1      26.494   0.051  17.053  1.00  0.00     0.285 A 
HETATM   14  O3  UNL     1      27.599   0.109  17.679  1.00  0.00    -0.268 OA
BRANCH  10  15
HETATM   15  C6  UNL     1      27.008  -1.639  15.345  1.00  0.00     0.213 C 
HETATM   16  O1  UNL     1      26.200  -2.585  15.253  1.00  0.00    -0.646 OA
HETATM   17  O2  UNL     1      28.360  -1.890  15.215  1.00  0.00    -0.646 OA
ENDBRANCH  10  15
ENDBRANCH   3   6
BRANCH   4  18
HETATM   18  O4  UNL     1      23.041   2.110  18.239  1.00  0.00    -0.357 OA
ATOM     19  H4  UNL     1      22.095   2.025  18.276  1.00  0.00     0.217 HD
ENDBRANCH   4  18
BRANCH   1  20
HETATM   20  S1  UNL     1      24.458   0.744  23.178  1.00  0.00    -0.126 SA
HETATM   21  C1  UNL     1      25.318  -0.736  23.716  1.00  0.00     0.096 C 
ENDBRANCH   1  20
BRANCH   5  22
HETATM   22  C10 UNL     1      22.574   2.397  21.299  1.00  0.00     0.044 C 
HETATM   23  C11 UNL     1      22.482   3.761  20.541  1.00  0.00     0.019 C 
BRANCH  22  24
HETATM   24  C12 UNL     1      21.179   1.882  21.111  1.00  0.00     0.019 C 
HETATM   25  C13 UNL     1      20.341   1.470  22.025  1.00  0.00     0.087 C 
HETATM   26  C14 UNL     1      20.520   1.398  23.476  1.00  0.00     0.082 C 
HETATM   27  F1  UNL     1      19.089   1.075  21.536  1.00  0.00    -0.212 F 
ENDBRANCH  22  24
ENDBRANCH   5  22
TORSDOF 6
ENDMDL
MODEL 4
REMARK VINA RESULT: -7.337073457      1.554      1.911
REMARK  6 active torsions:
REMARK  status: ('A' for Active; 'I' for Inactive)
REMARK    1  A    between atoms: S1_2  and  C2_3 
REMARK    2  A    between atoms: C3_5  and  N1_6 
REMARK    3  A    between atoms: C4_11  and  C6_13 
REMARK    4  A    between atoms: C8_18  and  O4_19 
REMARK    5  A    between atoms: C9_21  and  C10_22 
REMARK    6  A    between atoms: C10_22  and  C12_24 
ROOT
HETATM    1  C2  UNL     1      22.878   1.896  21.105  1.00  0.00     0.052 A 
HETATM    2  S2  UNL     1      23.493   0.629  20.164  1.00  0.00    -0.060 SA
HETATM    3  C3  UNL     1      24.524   1.500  19.153  1.00  0.00     0.137 A 
HETATM    4  C8  UNL     1      24.370   2.800  19.572  1.00  0.00     0.110 A 
HETATM    5  C9  UNL     1      23.527   3.032  20.576  1.00  0.00     0.009 A 
ENDROOT
BRANCH   3   6
HETATM    6  N1  UNL     1      25.369   0.967  18.120  1.00  0.00    -0.197 N 
HETATM    7  N2  UNL     1      26.304   1.630  17.334  1.00  0.00    -0.235 N 
HETATM    8  N3  UNL     1      26.876   0.864  16.496  1.00  0.00    -0.292 N 
ATOM      9  H2  UNL     1      26.509   2.626  17.419  1.00  0.00     0.208 HD
HETATM   10  C4  UNL     1      26.390  -0.494  16.602  1.00  0.00     0.213 A 
ATOM     11  H3  UNL     1      27.587   1.169  15.832  1.00  0.00     0.183 HD
HETATM   12  C5  UNL     1      27.519  -1.447  16.954  1.00  0.00     0.063 C 
HETATM   13  C7  UNL     1      25.386  -0.372  17.699  1.00  0.00     0.285 A 
HETATM   14  O3  UNL     1      24.731  -1.393  18.079  1.00  0.00    -0.268 OA
BRANCH  10  15
HETATM   15  C6  UNL     1      25.730  -0.893  15.323  1.00  0.00     0.213 C 
HETATM   16  O1  UNL     1      24.973  -0.076  14.762  1.00  0.00    -0.646 OA
HETATM   17  O2  UNL     1      25.933  -2.131  14.747  1.00  0.00    -0.646 OA
ENDBRANCH  10  15
ENDBRANCH   3   6
BRANCH   4  18
HETATM   18  O4  UNL     1      25.122   3.797  18.865  1.00  0.00    -0.357 OA
ATOM     19  H4  UNL     1      24.625   4.407  18.333  1.00  0.00     0.217 HD
ENDBRANCH   4  18
BRANCH   1  20
HETATM   20  S1  UNL     1      21.732   1.918  22.503  1.00  0.00    -0.126 SA
HETATM   21  C1  UNL     1      20.114   1.456  21.879  1.00  0.00     0.096 C 
ENDBRANCH   1  20
BRANCH   5  22
HETATM   22  C10 UNL     1      23.143   4.387  21.188  1.00  0.00     0.044 C 
HETATM   23  C11 UNL     1      24.315   4.821  22.127  1.00  0.00     0.019 C 
BRANCH  22  24
HETATM   24  C12 UNL     1      23.176   5.491  20.177  1.00  0.00     0.019 C 
HETATM   25  C13 UNL     1      22.683   6.697  20.282  1.00  0.00     0.087 C 
HETATM   26  C14 UNL     1      21.970   7.308  21.405  1.00  0.00     0.082 C 
HETATM   27  F1  UNL     1      22.903   7.519  19.168  1.00  0.00    -0.212 F 
ENDBRANCH  22  24
ENDBRANCH   5  22
TORSDOF 6
ENDMDL
MODEL 5
REMARK VINA RESULT: -7.202959808      2.942      3.848
REMARK  6 active torsions:
REMARK  status: ('A' for Active; 'I' for Inactive)
REMARK    1  A    between atoms: S1_2  and  C2_3 
REMARK    2  A    between atoms: C3_5  and  N1_6 
REMARK    3  A    between atoms: C4_11  and  C6_13 
REMARK    4  A    between atoms: C8_18  and  O4_19 
REMARK    5  A    between atoms: C9_21  and  C10_22 
REMARK    6  A    between atoms: C10_22  and  C12_24 
ROOT
HETATM    1  C2  UNL     1      25.450  -1.067  20.343  1.00  0.00     0.052 A 
HETATM    2  S2  UNL     1      25.902  -1.624  18.809  1.00  0.00    -0.060 SA
HETATM    3  C3  UNL     1      25.507  -0.269  17.886  1.00  0.00     0.137 A 
HETATM    4  C8  UNL     1      25.014   0.622  18.810  1.00  0.00     0.110 A 
HETATM    5  C9  UNL     1      24.972   0.235  20.083  1.00  0.00     0.009 A 
ENDROOT
BRANCH   3   6
HETATM    6  N1  UNL     1      25.682  -0.112  16.468  1.00  0.00    -0.197 N 
HETATM    7  N2  UNL     1      24.713   0.041  15.484  1.00  0.00    -0.235 N 
HETATM    8  N3  UNL     1      25.206   0.140  14.317  1.00  0.00    -0.292 N 
ATOM      9  H2  UNL     1      23.712   0.070  15.678  1.00  0.00     0.208 HD
HETATM   10  C4  UNL     1      26.650   0.069  14.344  1.00  0.00     0.213 A 
ATOM     11  H3  UNL     1      24.653   0.255  13.468  1.00  0.00     0.183 HD
HETATM   12  C5  UNL     1      27.266   1.340  13.786  1.00  0.00     0.063 C 
HETATM   13  C7  UNL     1      26.918  -0.100  15.803  1.00  0.00     0.285 A 
HETATM   14  O3  UNL     1      28.114  -0.205  16.222  1.00  0.00    -0.268 OA
BRANCH  10  15
HETATM   15  C6  UNL     1      27.109  -1.129  13.580  1.00  0.00     0.213 C 
HETATM   16  O1  UNL     1      27.305  -1.015  12.353  1.00  0.00    -0.646 OA
HETATM   17  O2  UNL     1      27.322  -2.350  14.187  1.00  0.00    -0.646 OA
ENDBRANCH  10  15
ENDBRANCH   3   6
BRANCH   4  18
HETATM   18  O4  UNL     1      24.563   1.887  18.305  1.00  0.00    -0.357 OA
ATOM     19  H4  UNL     1      25.196   2.597  18.309  1.00  0.00     0.217 HD
ENDBRANCH   4  18
BRANCH   1  20
HETATM   20  S1  UNL     1      25.560  -1.820  21.983  1.00  0.00    -0.126 SA
HETATM   21  C1  UNL     1      25.484  -3.599  21.764  1.00  0.00     0.096 C 
ENDBRANCH   1  20
BRANCH   5  22
HETATM   22  C10 UNL     1      24.423   1.015  21.286  1.00  0.00     0.044 C 
HETATM   23  C11 UNL     1      25.323   2.281  21.467  1.00  0.00     0.019 C 
BRANCH  22  24
HETATM   24  C12 UNL     1      23.103   1.656  20.986  1.00  0.00     0.019 C 
HETATM   25  C13 UNL     1      22.108   1.876  21.805  1.00  0.00     0.087 C 
HETATM   26  C14 UNL     1      22.002   1.567  23.232  1.00  0.00     0.082 C 
HETATM   27  F1  UNL     1      21.008   2.527  21.230  1.00  0.00    -0.212 F 
ENDBRANCH  22  24
ENDBRANCH   5  22
TORSDOF 6
ENDMDL
