MODEL 1
REMARK VINA RESULT: -6.870704065      0.000      0.000
REMARK  6 active torsions:
REMARK  status: ('A' for Active; 'I' for Inactive)
REMARK    1  A    between atoms: C2_2  and  O2_4 
REMARK    2  A    between atoms: O2_4  and  C3_5 
REMARK    3  A    between atoms: C8_12  and  O5_13 
REMARK    4  A    between atoms: C9_15  and  O6_16 
REMARK    5  A    between atoms: C11_20  and  C12_21 
REMARK    6  A    between atoms: C12_21  and  C13_22 
ROOT
HETATM    1  C3  UNL     1      22.692   1.033  22.589  1.00  0.00     0.152 C 
HETATM    2  C4  UNL     1      23.373   0.920  23.902  1.00  0.00     0.057 C 
HETATM    3  C5  UNL     1      22.358   1.163  25.029  1.00  0.00     0.186 C 
HETATM    4  O3  UNL     1      23.083   0.626  26.133  1.00  0.00    -0.321 OA
HETATM    5  C6  UNL     1      23.852  -0.468  25.701  1.00  0.00     0.266 C 
HETATM    6  O4  UNL     1      24.466  -1.201  26.520  1.00  0.00    -0.265 OA
HETATM    7  C7  UNL     1      23.765  -0.525  24.241  1.00  0.00     0.125 C 
HETATM    8  C8  UNL     1      25.077  -0.814  23.559  1.00  0.00     0.163 C 
HETATM    9  C9  UNL     1      24.835  -0.873  22.089  1.00  0.00     0.177 C 
HETATM   10  C10 UNL     1      24.811   0.413  21.376  1.00  0.00     0.166 C 
HETATM   11  O7  UNL     1      25.435   1.513  21.959  1.00  0.00    -0.376 OA
HETATM   12  C11 UNL     1      24.485   2.296  21.275  1.00  0.00     0.138 C 
HETATM   13  C17 UNL     1      23.537   1.177  21.402  1.00  0.00     0.038 C 
HETATM   14  C18 UNL     1      22.696   1.044  20.125  1.00  0.00     0.023 C 
ENDROOT
BRANCH  12  15
HETATM   15  C12 UNL     1      24.178   3.609  21.881  1.00  0.00     0.060 C 
BRANCH  15  16
HETATM   16  C13 UNL     1      23.806   4.611  20.843  1.00  0.00    -0.022 C 
HETATM   17  C14 UNL     1      22.886   5.541  21.047  1.00  0.00    -0.091 C 
HETATM   18  C15 UNL     1      22.214   5.565  22.372  1.00  0.00     0.042 C 
HETATM   19  C16 UNL     1      22.527   6.531  20.002  1.00  0.00     0.042 C 
ENDBRANCH  15  16
ENDBRANCH  12  15
BRANCH   1  20
HETATM   20  O2  UNL     1      21.764   2.099  22.654  1.00  0.00    -0.315 OA
BRANCH  20  21
HETATM   21  C2  UNL     1      20.401   1.948  22.659  1.00  0.00     0.255 C 
HETATM   22  C1  UNL     1      19.766   0.714  22.152  1.00  0.00     0.126 C 
HETATM   23  O1  UNL     1      19.709   2.895  23.111  1.00  0.00    -0.266 OA
ENDBRANCH  20  21
ENDBRANCH   1  20
BRANCH   9  24
HETATM   24  O6  UNL     1      25.883  -1.654  21.543  1.00  0.00    -0.390 OA
ATOM     25  H6  UNL     1      26.655  -1.101  21.539  1.00  0.00     0.210 HD
ENDBRANCH   9  24
BRANCH   8  26
HETATM   26  O5  UNL     1      25.993   0.150  23.936  1.00  0.00    -0.392 OA
ATOM     27  H5  UNL     1      26.680  -0.265  24.443  1.00  0.00     0.210 HD
ENDBRANCH   8  26
TORSDOF 6
ENDMDL
MODEL 2
REMARK VINA RESULT: -6.859209410      5.406      8.010
REMARK  6 active torsions:
REMARK  status: ('A' for Active; 'I' for Inactive)
REMARK    1  A    between atoms: C2_2  and  O2_4 
REMARK    2  A    between atoms: O2_4  and  C3_5 
REMARK    3  A    between atoms: C8_12  and  O5_13 
REMARK    4  A    between atoms: C9_15  and  O6_16 
REMARK    5  A    between atoms: C11_20  and  C12_21 
REMARK    6  A    between atoms: C12_21  and  C13_22 
ROOT
HETATM    1  C3  UNL     1      25.704  -0.422  18.139  1.00  0.00     0.152 C 
HETATM    2  C4  UNL     1      25.084   0.867  17.746  1.00  0.00     0.057 C 
HETATM    3  C5  UNL     1      23.608   0.876  18.171  1.00  0.00     0.186 C 
HETATM    4  O3  UNL     1      23.336   2.273  18.083  1.00  0.00    -0.321 OA
HETATM    5  C6  UNL     1      24.483   2.998  18.444  1.00  0.00     0.266 C 
HETATM    6  O4  UNL     1      24.451   4.249  18.586  1.00  0.00    -0.265 OA
HETATM    7  C7  UNL     1      25.584   2.045  18.592  1.00  0.00     0.125 C 
HETATM    8  C8  UNL     1      26.887   2.514  17.997  1.00  0.00     0.163 C 
HETATM    9  C9  UNL     1      27.917   1.466  18.247  1.00  0.00     0.177 C 
HETATM   10  C10 UNL     1      27.952   0.343  17.299  1.00  0.00     0.166 C 
HETATM   11  O7  UNL     1      27.392   0.514  16.036  1.00  0.00    -0.376 OA
HETATM   12  C11 UNL     1      27.132  -0.870  16.066  1.00  0.00     0.138 C 
HETATM   13  C17 UNL     1      26.989  -0.766  17.528  1.00  0.00     0.038 C 
HETATM   14  C18 UNL     1      27.596  -1.999  18.211  1.00  0.00     0.023 C 
ENDROOT
BRANCH  12  15
HETATM   15  C12 UNL     1      25.999  -1.329  15.235  1.00  0.00     0.060 C 
BRANCH  15  16
HETATM   16  C13 UNL     1      26.356  -2.549  14.459  1.00  0.00    -0.022 C 
HETATM   17  C14 UNL     1      26.747  -2.502  13.195  1.00  0.00    -0.091 C 
HETATM   18  C15 UNL     1      26.824  -1.166  12.549  1.00  0.00     0.042 C 
HETATM   19  C16 UNL     1      27.099  -3.727  12.436  1.00  0.00     0.042 C 
ENDBRANCH  15  16
ENDBRANCH  12  15
BRANCH   1  20
HETATM   20  O2  UNL     1      24.768  -1.459  17.913  1.00  0.00    -0.315 OA
BRANCH  20  21
HETATM   21  C2  UNL     1      24.399  -2.395  18.846  1.00  0.00     0.255 C 
HETATM   22  C1  UNL     1      24.371  -2.069  20.287  1.00  0.00     0.126 C 
HETATM   23  O1  UNL     1      24.086  -3.540  18.433  1.00  0.00    -0.266 OA
ENDBRANCH  20  21
ENDBRANCH   1  20
BRANCH   9  24
HETATM   24  O6  UNL     1      29.172   2.120  18.194  1.00  0.00    -0.390 OA
ATOM     25  H6  UNL     1      29.724   1.692  18.838  1.00  0.00     0.210 HD
ENDBRANCH   9  24
BRANCH   8  26
HETATM   26  O5  UNL     1      26.686   2.792  16.659  1.00  0.00    -0.392 OA
ATOM     27  H5  UNL     1      27.531   2.831  16.226  1.00  0.00     0.210 HD
ENDBRANCH   8  26
TORSDOF 6
ENDMDL
MODEL 3
REMARK VINA RESULT: -6.488106034      3.041      5.279
REMARK  6 active torsions:
REMARK  status: ('A' for Active; 'I' for Inactive)
REMARK    1  A    between atoms: C2_2  and  O2_4 
REMARK    2  A    between atoms: O2_4  and  C3_5 
REMARK    3  A    between atoms: C8_12  and  O5_13 
REMARK    4  A    between atoms: C9_15  and  O6_16 
REMARK    5  A    between atoms: C11_20  and  C12_21 
REMARK    6  A    between atoms: C12_21  and  C13_22 
ROOT
HETATM    1  C3  UNL     1      24.957   1.301  20.269  1.00  0.00     0.152 C 
HETATM    2  C4  UNL     1      25.964   1.980  19.417  1.00  0.00     0.057 C 
HETATM    3  C5  UNL     1      27.109   2.504  20.296  1.00  0.00     0.186 C 
HETATM    4  O3  UNL     1      28.101   2.732  19.297  1.00  0.00    -0.321 OA
HETATM    5  C6  UNL     1      27.980   1.764  18.287  1.00  0.00     0.266 C 
HETATM    6  O4  UNL     1      28.836   1.665  17.369  1.00  0.00    -0.265 OA
HETATM    7  C7  UNL     1      26.759   0.999  18.547  1.00  0.00     0.125 C 
HETATM    8  C8  UNL     1      25.941   0.713  17.314  1.00  0.00     0.163 C 
HETATM    9  C9  UNL     1      24.753  -0.092  17.720  1.00  0.00     0.177 C 
HETATM   10  C10 UNL     1      23.602   0.657  18.245  1.00  0.00     0.166 C 
HETATM   11  O7  UNL     1      23.481   2.008  17.929  1.00  0.00    -0.376 OA
HETATM   12  C11 UNL     1      22.811   2.140  19.160  1.00  0.00     0.138 C 
HETATM   13  C17 UNL     1      23.641   1.041  19.680  1.00  0.00     0.038 C 
HETATM   14  C18 UNL     1      22.812   0.135  20.599  1.00  0.00     0.023 C 
ENDROOT
BRANCH  12  15
HETATM   15  C12 UNL     1      22.868   3.480  19.783  1.00  0.00     0.060 C 
BRANCH  15  16
HETATM   16  C13 UNL     1      21.824   3.633  20.834  1.00  0.00    -0.022 C 
HETATM   17  C14 UNL     1      21.973   4.440  21.874  1.00  0.00    -0.091 C 
HETATM   18  C15 UNL     1      23.239   5.212  21.970  1.00  0.00     0.042 C 
HETATM   19  C16 UNL     1      20.924   4.581  22.913  1.00  0.00     0.042 C 
ENDBRANCH  15  16
ENDBRANCH  12  15
BRANCH   1  20
HETATM   20  O2  UNL     1      24.813   2.037  21.468  1.00  0.00    -0.315 OA
BRANCH  20  21
HETATM   21  C2  UNL     1      24.650   1.479  22.711  1.00  0.00     0.255 C 
HETATM   22  C1  UNL     1      23.522   1.868  23.582  1.00  0.00     0.126 C 
HETATM   23  O1  UNL     1      25.494   0.626  23.084  1.00  0.00    -0.266 OA
ENDBRANCH  20  21
ENDBRANCH   1  20
BRANCH   9  24
HETATM   24  O6  UNL     1      24.329  -0.789  16.562  1.00  0.00    -0.390 OA
ATOM     25  H6  UNL     1      23.436  -1.066  16.730  1.00  0.00     0.210 HD
ENDBRANCH   9  24
BRANCH   8  26
HETATM   26  O5  UNL     1      25.621   1.914  16.709  1.00  0.00    -0.392 OA
ATOM     27  H5  UNL     1      26.348   2.514  16.822  1.00  0.00     0.210 HD
ENDBRANCH   8  26
TORSDOF 6
ENDMDL
MODEL 4
REMARK VINA RESULT: -6.484915837      2.934      5.375
REMARK  6 active torsions:
REMARK  status: ('A' for Active; 'I' for Inactive)
REMARK    1  A    between atoms: C2_2  and  O2_4 
REMARK    2  A    between atoms: O2_4  and  C3_5 
REMARK    3  A    between atoms: C8_12  and  O5_13 
REMARK    4  A    between atoms: C9_15  and  O6_16 
REMARK    5  A    between atoms: C11_20  and  C12_21 
REMARK    6  A    between atoms: C12_21  and  C13_22 
ROOT
HETATM    1  C3  UNL     1      25.608   1.433  19.162  1.00  0.00     0.152 C 
HETATM    2  C4  UNL     1      24.663   0.346  18.809  1.00  0.00     0.057 C 
HETATM    3  C5  UNL     1      24.828  -0.015  17.326  1.00  0.00     0.186 C 
HETATM    4  O3  UNL     1      24.170  -1.280  17.306  1.00  0.00    -0.321 OA
HETATM    5  C6  UNL     1      24.390  -1.942  18.525  1.00  0.00     0.266 C 
HETATM    6  O4  UNL     1      24.034  -3.138  18.695  1.00  0.00    -0.265 OA
HETATM    7  C7  UNL     1      25.055  -1.002  19.429  1.00  0.00     0.125 C 
HETATM    8  C8  UNL     1      24.525  -1.028  20.839  1.00  0.00     0.163 C 
HETATM    9  C9  UNL     1      25.308  -0.052  21.649  1.00  0.00     0.177 C 
HETATM   10  C10 UNL     1      24.882   1.354  21.573  1.00  0.00     0.166 C 
HETATM   11  O7  UNL     1      23.582   1.638  21.162  1.00  0.00    -0.376 OA
HETATM   12  C11 UNL     1      24.102   2.849  20.667  1.00  0.00     0.138 C 
HETATM   13  C17 UNL     1      25.373   2.149  20.418  1.00  0.00     0.038 C 
HETATM   14  C18 UNL     1      26.560   3.066  20.742  1.00  0.00     0.023 C 
ENDROOT
BRANCH  12  15
HETATM   15  C12 UNL     1      23.354   3.461  19.549  1.00  0.00     0.060 C 
BRANCH  15  16
HETATM   16  C13 UNL     1      22.798   4.789  19.932  1.00  0.00    -0.022 C 
HETATM   17  C14 UNL     1      23.185   5.916  19.354  1.00  0.00    -0.091 C 
HETATM   18  C15 UNL     1      24.212   5.825  18.286  1.00  0.00     0.042 C 
HETATM   19  C16 UNL     1      22.622   7.232  19.748  1.00  0.00     0.042 C 
ENDBRANCH  15  16
ENDBRANCH  12  15
BRANCH   1  20
HETATM   20  O2  UNL     1      25.662   2.349  18.086  1.00  0.00    -0.315 OA
BRANCH  20  21
HETATM   21  C2  UNL     1      26.814   2.743  17.453  1.00  0.00     0.255 C 
HETATM   22  C1  UNL     1      27.821   1.755  17.013  1.00  0.00     0.126 C 
HETATM   23  O1  UNL     1      26.982   3.973  17.258  1.00  0.00    -0.266 OA
ENDBRANCH  20  21
ENDBRANCH   1  20
BRANCH   9  24
HETATM   24  O6  UNL     1      25.194  -0.469  22.997  1.00  0.00    -0.390 OA
ATOM     25  H6  UNL     1      24.399  -0.072  23.334  1.00  0.00     0.210 HD
ENDBRANCH   9  24
BRANCH   8  26
HETATM   26  O5  UNL     1      23.168  -0.765  20.806  1.00  0.00    -0.392 OA
ATOM     27  H5  UNL     1      22.788  -1.225  20.067  1.00  0.00     0.210 HD
ENDBRANCH   8  26
TORSDOF 6
ENDMDL
MODEL 5
REMARK VINA RESULT: -6.275682613      4.989      8.627
REMARK  6 active torsions:
REMARK  status: ('A' for Active; 'I' for Inactive)
REMARK    1  A    between atoms: C2_2  and  O2_4 
REMARK    2  A    between atoms: O2_4  and  C3_5 
REMARK    3  A    between atoms: C8_12  and  O5_13 
REMARK    4  A    between atoms: C9_15  and  O6_16 
REMARK    5  A    between atoms: C11_20  and  C12_21 
REMARK    6  A    between atoms: C12_21  and  C13_22 
ROOT
HETATM    1  C3  UNL     1      20.022   5.340  25.922  1.00  0.00     0.152 C 
HETATM    2  C4  UNL     1      20.799   6.195  24.990  1.00  0.00     0.057 C 
HETATM    3  C5  UNL     1      21.387   5.327  23.868  1.00  0.00     0.186 C 
HETATM    4  O3  UNL     1      21.717   6.341  22.921  1.00  0.00    -0.321 OA
HETATM    5  C6  UNL     1      20.769   7.375  22.991  1.00  0.00     0.266 C 
HETATM    6  O4  UNL     1      20.761   8.314  22.153  1.00  0.00    -0.265 OA
HETATM    7  C7  UNL     1      19.905   7.110  24.143  1.00  0.00     0.125 C 
HETATM    8  C8  UNL     1      19.590   8.331  24.967  1.00  0.00     0.163 C 
HETATM    9  C9  UNL     1      18.684   7.922  26.079  1.00  0.00     0.177 C 
HETATM   10  C10 UNL     1      19.328   7.351  27.271  1.00  0.00     0.166 C 
HETATM   11  O7  UNL     1      20.673   7.626  27.503  1.00  0.00    -0.376 OA
HETATM   12  C11 UNL     1      20.721   6.377  28.152  1.00  0.00     0.138 C 
HETATM   13  C17 UNL     1      19.677   5.907  27.227  1.00  0.00     0.038 C 
HETATM   14  C18 UNL     1      18.685   4.995  27.962  1.00  0.00     0.023 C 
ENDROOT
BRANCH  12  15
HETATM   15  C12 UNL     1      22.044   5.719  28.183  1.00  0.00     0.060 C 
BRANCH  15  16
HETATM   16  C13 UNL     1      22.461   5.406  29.578  1.00  0.00    -0.022 C 
HETATM   17  C14 UNL     1      22.505   4.168  30.048  1.00  0.00    -0.091 C 
HETATM   18  C15 UNL     1      22.121   3.068  29.126  1.00  0.00     0.042 C 
HETATM   19  C16 UNL     1      22.922   3.873  31.441  1.00  0.00     0.042 C 
ENDBRANCH  15  16
ENDBRANCH  12  15
BRANCH   1  20
HETATM   20  O2  UNL     1      20.713   4.118  26.092  1.00  0.00    -0.315 OA
BRANCH  20  21
HETATM   21  C2  UNL     1      20.259   2.898  25.659  1.00  0.00     0.255 C 
HETATM   22  C1  UNL     1      21.097   1.686  25.772  1.00  0.00     0.126 C 
HETATM   23  O1  UNL     1      19.106   2.846  25.163  1.00  0.00    -0.266 OA
ENDBRANCH  20  21
ENDBRANCH   1  20
BRANCH   9  24
HETATM   24  O6  UNL     1      17.988   9.089  26.476  1.00  0.00    -0.390 OA
ATOM     25  H6  UNL     1      17.264   9.187  25.869  1.00  0.00     0.210 HD
ENDBRANCH   9  24
BRANCH   8  26
HETATM   26  O5  UNL     1      20.777   8.895  25.393  1.00  0.00    -0.392 OA
ATOM     27  H5  UNL     1      20.927   9.695  24.902  1.00  0.00     0.210 HD
ENDBRANCH   8  26
TORSDOF 6
ENDMDL
