MODEL 1
REMARK VINA RESULT: -6.898656768      0.000      0.000
REMARK  8 active torsions:
REMARK  status: ('A' for Active; 'I' for Inactive)
REMARK    1  A    between atoms: C2_2  and  O2_4 
REMARK    2  A    between atoms: O2_4  and  C3_5 
REMARK    3  A    between atoms: C6_8  and  O3_9 
REMARK    4  A    between atoms: O3_9  and  C7_10 
REMARK    5  A    between atoms: C7_10  and  C8_12 
REMARK    6  A    between atoms: C10_15  and  N1_16 
REMARK    7  A    between atoms: C14_23  and  C15_24 
REMARK    8  A    between atoms: C15_24  and  O6_25 
ROOT
HETATM    1  C3  UNL     1      21.993   2.463  21.455  1.00  0.00     0.144 C 
HETATM    2  C4  UNL     1      22.049   3.206  20.165  1.00  0.00     0.041 C 
HETATM    3  C5  UNL     1      23.526   3.255  19.824  1.00  0.00     0.026 C 
HETATM    4  C6  UNL     1      23.826   2.054  18.985  1.00  0.00     0.137 C 
HETATM    5  C11 UNL     1      23.944   0.775  19.724  1.00  0.00     0.038 C 
HETATM    6  C12 UNL     1      23.945   0.856  21.209  1.00  0.00    -0.002 C 
HETATM    7  C13 UNL     1      23.435  -0.440  21.814  1.00  0.00     0.011 C 
HETATM    8  C14 UNL     1      23.375   2.087  21.815  1.00  0.00     0.018 C 
HETATM    9  C16 UNL     1      24.160   3.235  21.194  1.00  0.00    -0.029 C 
HETATM   10  C17 UNL     1      25.640   2.973  21.160  1.00  0.00     0.016 C 
HETATM   11  C18 UNL     1      23.922   4.549  21.850  1.00  0.00     0.016 C 
ENDROOT
BRANCH   4  12
HETATM   12  O3  UNL     1      24.927   2.282  18.103  1.00  0.00    -0.314 OA
BRANCH  12  13
HETATM   13  C7  UNL     1      25.938   1.394  17.877  1.00  0.00     0.290 C 
HETATM   14  O4  UNL     1      26.871   1.358  18.751  1.00  0.00    -0.262 OA
BRANCH  13  15
HETATM   15  C8  UNL     1      26.034   0.485  16.716  1.00  0.00     0.253 C 
HETATM   16  O5  UNL     1      26.788  -0.641  16.955  1.00  0.00    -0.371 OA
HETATM   17  C9  UNL     1      25.626  -1.427  17.122  1.00  0.00     0.204 C 
HETATM   18  C10 UNL     1      24.829  -0.347  16.425  1.00  0.00     0.245 C 
BRANCH  18  19
HETATM   19  N1  UNL     1      24.773  -0.649  14.990  1.00  0.00    -0.070 N 
ATOM     20  H13 UNL     1      25.650  -0.431  14.516  1.00  0.00     0.274 HD
ATOM     21  H12 UNL     1      24.755  -1.653  14.809  1.00  0.00     0.274 HD
ATOM     22  H11 UNL     1      23.978  -0.168  14.568  1.00  0.00     0.274 HD
ENDBRANCH  18  19
ENDBRANCH  13  15
ENDBRANCH  12  13
ENDBRANCH   4  12
BRANCH   1  23
HETATM   23  O2  UNL     1      20.988   1.528  21.605  1.00  0.00    -0.315 OA
BRANCH  23  24
HETATM   24  C2  UNL     1      19.779   1.662  22.238  1.00  0.00     0.255 C 
HETATM   25  C1  UNL     1      18.665   0.721  22.059  1.00  0.00     0.126 C 
HETATM   26  O1  UNL     1      19.746   2.673  22.977  1.00  0.00    -0.266 OA
ENDBRANCH  23  24
ENDBRANCH   1  23
BRANCH   8  27
HETATM   27  C15 UNL     1      23.567   2.008  23.293  1.00  0.00     0.177 C 
BRANCH  27  28
HETATM   28  O6  UNL     1      22.504   2.570  23.992  1.00  0.00    -0.400 OA
ATOM     29  H6  UNL     1      22.582   2.440  24.930  1.00  0.00     0.209 HD
ENDBRANCH  27  28
ENDBRANCH   8  27
TORSDOF 8
ENDMDL
MODEL 2
REMARK VINA RESULT: -6.843785826      1.528      1.839
REMARK  8 active torsions:
REMARK  status: ('A' for Active; 'I' for Inactive)
REMARK    1  A    between atoms: C2_2  and  O2_4 
REMARK    2  A    between atoms: O2_4  and  C3_5 
REMARK    3  A    between atoms: C6_8  and  O3_9 
REMARK    4  A    between atoms: O3_9  and  C7_10 
REMARK    5  A    between atoms: C7_10  and  C8_12 
REMARK    6  A    between atoms: C10_15  and  N1_16 
REMARK    7  A    between atoms: C14_23  and  C15_24 
REMARK    8  A    between atoms: C15_24  and  O6_25 
ROOT
HETATM    1  C3  UNL     1      21.945   2.288  21.736  1.00  0.00     0.144 C 
HETATM    2  C4  UNL     1      21.839   3.068  20.472  1.00  0.00     0.041 C 
HETATM    3  C5  UNL     1      23.247   3.068  19.911  1.00  0.00     0.026 C 
HETATM    4  C6  UNL     1      23.363   1.882  19.007  1.00  0.00     0.137 C 
HETATM    5  C11 UNL     1      23.535   0.578  19.688  1.00  0.00     0.038 C 
HETATM    6  C12 UNL     1      23.764   0.611  21.156  1.00  0.00    -0.002 C 
HETATM    7  C13 UNL     1      23.294  -0.680  21.800  1.00  0.00     0.011 C 
HETATM    8  C14 UNL     1      23.348   1.845  21.872  1.00  0.00     0.018 C 
HETATM    9  C16 UNL     1      24.080   2.980  21.167  1.00  0.00    -0.029 C 
HETATM   10  C17 UNL     1      25.525   2.660  20.902  1.00  0.00     0.016 C 
HETATM   11  C18 UNL     1      24.003   4.281  21.885  1.00  0.00     0.016 C 
ENDROOT
BRANCH   4  12
HETATM   12  O3  UNL     1      24.328   2.094  17.973  1.00  0.00    -0.314 OA
BRANCH  12  13
HETATM   13  C7  UNL     1      25.186   1.142  17.505  1.00  0.00     0.290 C 
HETATM   14  O4  UNL     1      24.685   0.252  16.736  1.00  0.00    -0.262 OA
BRANCH  13  15
HETATM   15  C8  UNL     1      26.628   1.064  17.816  1.00  0.00     0.253 C 
HETATM   16  O5  UNL     1      27.381   0.497  16.813  1.00  0.00    -0.371 OA
HETATM   17  C9  UNL     1      27.827   1.767  16.382  1.00  0.00     0.204 C 
HETATM   18  C10 UNL     1      27.398   2.338  17.715  1.00  0.00     0.245 C 
BRANCH  18  19
HETATM   19  N1  UNL     1      28.539   2.301  18.638  1.00  0.00    -0.070 N 
ATOM     20  H13 UNL     1      28.870   3.236  18.878  1.00  0.00     0.274 HD
ATOM     21  H12 UNL     1      28.268   1.997  19.573  1.00  0.00     0.274 HD
ATOM     22  H11 UNL     1      29.280   1.720  18.244  1.00  0.00     0.274 HD
ENDBRANCH  18  19
ENDBRANCH  13  15
ENDBRANCH  12  13
ENDBRANCH   4  12
BRANCH   1  23
HETATM   23  O2  UNL     1      20.934   1.390  22.014  1.00  0.00    -0.315 OA
BRANCH  23  24
HETATM   24  C2  UNL     1      19.723   1.619  22.617  1.00  0.00     0.255 C 
HETATM   25  C1  UNL     1      18.506   0.860  22.301  1.00  0.00     0.126 C 
HETATM   26  O1  UNL     1      19.787   2.545  23.459  1.00  0.00    -0.266 OA
ENDBRANCH  23  24
ENDBRANCH   1  23
BRANCH   8  27
HETATM   27  C15 UNL     1      23.757   1.713  23.302  1.00  0.00     0.177 C 
BRANCH  27  28
HETATM   28  O6  UNL     1      22.778   2.174  24.174  1.00  0.00    -0.400 OA
ATOM     29  H6  UNL     1      22.650   3.113  24.106  1.00  0.00     0.209 HD
ENDBRANCH  27  28
ENDBRANCH   8  27
TORSDOF 8
ENDMDL
MODEL 3
REMARK VINA RESULT: -6.790112153      2.012      3.710
REMARK  8 active torsions:
REMARK  status: ('A' for Active; 'I' for Inactive)
REMARK    1  A    between atoms: C2_2  and  O2_4 
REMARK    2  A    between atoms: O2_4  and  C3_5 
REMARK    3  A    between atoms: C6_8  and  O3_9 
REMARK    4  A    between atoms: O3_9  and  C7_10 
REMARK    5  A    between atoms: C7_10  and  C8_12 
REMARK    6  A    between atoms: C10_15  and  N1_16 
REMARK    7  A    between atoms: C14_23  and  C15_24 
REMARK    8  A    between atoms: C15_24  and  O6_25 
ROOT
HETATM    1  C3  UNL     1      24.612   0.443  21.216  1.00  0.00     0.144 C 
HETATM    2  C4  UNL     1      25.614  -0.271  20.377  1.00  0.00     0.041 C 
HETATM    3  C5  UNL     1      25.576   0.456  19.047  1.00  0.00     0.026 C 
HETATM    4  C6  UNL     1      26.603   1.541  19.106  1.00  0.00     0.137 C 
HETATM    5  C11 UNL     1      26.215   2.743  19.879  1.00  0.00     0.038 C 
HETATM    6  C12 UNL     1      24.803   2.819  20.339  1.00  0.00    -0.002 C 
HETATM    7  C13 UNL     1      24.692   3.682  21.582  1.00  0.00     0.011 C 
HETATM    8  C14 UNL     1      24.049   1.541  20.405  1.00  0.00     0.018 C 
HETATM    9  C16 UNL     1      24.149   0.948  19.005  1.00  0.00    -0.029 C 
HETATM   10  C17 UNL     1      23.902   1.965  17.926  1.00  0.00     0.016 C 
HETATM   11  C18 UNL     1      23.248  -0.215  18.780  1.00  0.00     0.016 C 
ENDROOT
BRANCH   4  12
HETATM   12  O3  UNL     1      27.112   1.863  17.809  1.00  0.00    -0.314 OA
BRANCH  12  13
HETATM   13  C7  UNL     1      28.246   1.334  17.267  1.00  0.00     0.290 C 
HETATM   14  O4  UNL     1      29.353   1.702  17.790  1.00  0.00    -0.262 OA
BRANCH  13  15
HETATM   15  C8  UNL     1      28.291   0.381  16.138  1.00  0.00     0.253 C 
HETATM   16  O5  UNL     1      29.034  -0.748  16.394  1.00  0.00    -0.371 OA
HETATM   17  C9  UNL     1      27.865  -1.508  16.626  1.00  0.00     0.204 C 
HETATM   18  C10 UNL     1      27.064  -0.439  15.915  1.00  0.00     0.245 C 
BRANCH  18  19
HETATM   19  N1  UNL     1      26.957  -0.792  14.494  1.00  0.00    -0.070 N 
ATOM     20  H13 UNL     1      26.068  -0.497  14.090  1.00  0.00     0.274 HD
ATOM     21  H12 UNL     1      27.577  -0.230  13.911  1.00  0.00     0.274 HD
ATOM     22  H11 UNL     1      27.121  -1.793  14.375  1.00  0.00     0.274 HD
ENDBRANCH  18  19
ENDBRANCH  13  15
ENDBRANCH  12  13
ENDBRANCH   4  12
BRANCH   1  23
HETATM   23  O2  UNL     1      24.950   0.693  22.532  1.00  0.00    -0.315 OA
BRANCH  23  24
HETATM   24  C2  UNL     1      25.088  -0.196  23.567  1.00  0.00     0.255 C 
HETATM   25  C1  UNL     1      24.327  -1.449  23.664  1.00  0.00     0.126 C 
HETATM   26  O1  UNL     1      25.933   0.191  24.407  1.00  0.00    -0.266 OA
ENDBRANCH  23  24
ENDBRANCH   1  23
BRANCH   8  27
HETATM   27  C15 UNL     1      22.639   1.852  20.785  1.00  0.00     0.177 C 
BRANCH  27  28
HETATM   28  O6  UNL     1      22.200   1.080  21.855  1.00  0.00    -0.400 OA
ATOM     29  H6  UNL     1      22.014   1.605  22.624  1.00  0.00     0.209 HD
ENDBRANCH  27  28
ENDBRANCH   8  27
TORSDOF 8
ENDMDL
MODEL 4
REMARK VINA RESULT: -6.712945620      2.034      3.559
REMARK  8 active torsions:
REMARK  status: ('A' for Active; 'I' for Inactive)
REMARK    1  A    between atoms: C2_2  and  O2_4 
REMARK    2  A    between atoms: O2_4  and  C3_5 
REMARK    3  A    between atoms: C6_8  and  O3_9 
REMARK    4  A    between atoms: O3_9  and  C7_10 
REMARK    5  A    between atoms: C7_10  and  C8_12 
REMARK    6  A    between atoms: C10_15  and  N1_16 
REMARK    7  A    between atoms: C14_23  and  C15_24 
REMARK    8  A    between atoms: C15_24  and  O6_25 
ROOT
HETATM    1  C3  UNL     1      23.998   3.005  21.160  1.00  0.00     0.144 C 
HETATM    2  C4  UNL     1      25.108   2.084  21.535  1.00  0.00     0.041 C 
HETATM    3  C5  UNL     1      25.270   1.181  20.328  1.00  0.00     0.026 C 
HETATM    4  C6  UNL     1      26.285   1.818  19.433  1.00  0.00     0.137 C 
HETATM    5  C11 UNL     1      25.796   2.961  18.628  1.00  0.00     0.038 C 
HETATM    6  C12 UNL     1      24.332   3.222  18.651  1.00  0.00    -0.002 C 
HETATM    7  C13 UNL     1      24.046   4.685  18.366  1.00  0.00     0.011 C 
HETATM    8  C14 UNL     1      23.568   2.654  19.792  1.00  0.00     0.018 C 
HETATM    9  C16 UNL     1      23.868   1.160  19.767  1.00  0.00    -0.029 C 
HETATM   10  C17 UNL     1      23.789   0.577  18.384  1.00  0.00     0.016 C 
HETATM   11  C18 UNL     1      23.002   0.359  20.673  1.00  0.00     0.016 C 
ENDROOT
BRANCH   4  12
HETATM   12  O3  UNL     1      26.981   0.849  18.644  1.00  0.00    -0.314 OA
BRANCH  12  13
HETATM   13  C7  UNL     1      28.001   1.135  17.785  1.00  0.00     0.290 C 
HETATM   14  O4  UNL     1      28.855   2.000  18.182  1.00  0.00    -0.262 OA
BRANCH  13  15
HETATM   15  C8  UNL     1      28.190   0.530  16.450  1.00  0.00     0.253 C 
HETATM   16  O5  UNL     1      29.110  -0.492  16.430  1.00  0.00    -0.371 OA
HETATM   17  C9  UNL     1      28.083  -1.463  16.418  1.00  0.00     0.204 C 
HETATM   18  C10 UNL     1      27.112  -0.389  15.981  1.00  0.00     0.245 C 
BRANCH  18  19
HETATM   19  N1  UNL     1      27.052  -0.372  14.514  1.00  0.00    -0.070 N 
ATOM     20  H13 UNL     1      27.795   0.195  14.105  1.00  0.00     0.274 HD
ATOM     21  H12 UNL     1      27.313  -1.270  14.108  1.00  0.00     0.274 HD
ATOM     22  H11 UNL     1      26.126  -0.067  14.212  1.00  0.00     0.274 HD
ENDBRANCH  18  19
ENDBRANCH  13  15
ENDBRANCH  12  13
ENDBRANCH   4  12
BRANCH   1  23
HETATM   23  O2  UNL     1      24.141   4.337  21.492  1.00  0.00    -0.315 OA
BRANCH  23  24
HETATM   24  C2  UNL     1      23.203   5.203  21.994  1.00  0.00     0.255 C 
HETATM   25  C1  UNL     1      22.780   6.427  21.300  1.00  0.00     0.126 C 
HETATM   26  O1  UNL     1      22.759   4.822  23.102  1.00  0.00    -0.266 OA
ENDBRANCH  23  24
ENDBRANCH   1  23
BRANCH   8  27
HETATM   27  C15 UNL     1      22.120   2.941  19.569  1.00  0.00     0.177 C 
BRANCH  27  28
HETATM   28  O6  UNL     1      21.411   3.029  20.763  1.00  0.00    -0.400 OA
ATOM     29  H6  UNL     1      20.537   2.665  20.689  1.00  0.00     0.209 HD
ENDBRANCH  27  28
ENDBRANCH   8  27
TORSDOF 8
ENDMDL
MODEL 5
REMARK VINA RESULT: -6.686760063      2.089      2.762
REMARK  8 active torsions:
REMARK  status: ('A' for Active; 'I' for Inactive)
REMARK    1  A    between atoms: C2_2  and  O2_4 
REMARK    2  A    between atoms: O2_4  and  C3_5 
REMARK    3  A    between atoms: C6_8  and  O3_9 
REMARK    4  A    between atoms: O3_9  and  C7_10 
REMARK    5  A    between atoms: C7_10  and  C8_12 
REMARK    6  A    between atoms: C10_15  and  N1_16 
REMARK    7  A    between atoms: C14_23  and  C15_24 
REMARK    8  A    between atoms: C15_24  and  O6_25 
ROOT
HETATM    1  C3  UNL     1      20.931   2.732  21.912  1.00  0.00     0.144 C 
HETATM    2  C4  UNL     1      21.531   2.230  20.645  1.00  0.00     0.041 C 
HETATM    3  C5  UNL     1      23.002   2.580  20.761  1.00  0.00     0.026 C 
HETATM    4  C6  UNL     1      23.687   1.408  21.388  1.00  0.00     0.137 C 
HETATM    5  C11 UNL     1      23.508   1.274  22.852  1.00  0.00     0.038 C 
HETATM    6  C12 UNL     1      22.842   2.404  23.553  1.00  0.00    -0.002 C 
HETATM    7  C13 UNL     1      22.162   1.919  24.820  1.00  0.00     0.011 C 
HETATM    8  C14 UNL     1      22.019   3.318  22.721  1.00  0.00     0.018 C 
HETATM    9  C16 UNL     1      22.957   3.815  21.628  1.00  0.00    -0.029 C 
HETATM   10  C17 UNL     1      24.305   4.216  22.161  1.00  0.00     0.016 C 
HETATM   11  C18 UNL     1      22.405   4.941  20.829  1.00  0.00     0.016 C 
ENDROOT
BRANCH   4  12
HETATM   12  O3  UNL     1      25.058   1.319  20.992  1.00  0.00    -0.314 OA
BRANCH  12  13
HETATM   13  C7  UNL     1      25.497   1.346  19.701  1.00  0.00     0.290 C 
HETATM   14  O4  UNL     1      25.127   0.378  18.952  1.00  0.00    -0.262 OA
BRANCH  13  15
HETATM   15  C8  UNL     1      26.355   2.395  19.111  1.00  0.00     0.253 C 
HETATM   16  O5  UNL     1      27.696   2.217  19.356  1.00  0.00    -0.371 OA
HETATM   17  C9  UNL     1      27.902   1.707  18.054  1.00  0.00     0.204 C 
HETATM   18  C10 UNL     1      26.581   2.316  17.639  1.00  0.00     0.245 C 
BRANCH  18  19
HETATM   19  N1  UNL     1      26.825   3.660  17.102  1.00  0.00    -0.070 N 
ATOM     20  H13 UNL     1      27.369   3.638  16.239  1.00  0.00     0.274 HD
ATOM     21  H12 UNL     1      25.975   4.085  16.729  1.00  0.00     0.274 HD
ATOM     22  H11 UNL     1      27.263   4.242  17.818  1.00  0.00     0.274 HD
ENDBRANCH  18  19
ENDBRANCH  13  15
ENDBRANCH  12  13
ENDBRANCH   4  12
BRANCH   1  23
HETATM   23  O2  UNL     1      19.999   1.926  22.535  1.00  0.00    -0.315 OA
BRANCH  23  24
HETATM   24  C2  UNL     1      19.542   0.689  22.155  1.00  0.00     0.255 C 
HETATM   25  C1  UNL     1      20.261  -0.560  22.438  1.00  0.00     0.126 C 
HETATM   26  O1  UNL     1      18.450   0.761  21.546  1.00  0.00    -0.266 OA
ENDBRANCH  23  24
ENDBRANCH   1  23
BRANCH   8  27
HETATM   27  C15 UNL     1      21.532   4.428  23.593  1.00  0.00     0.177 C 
BRANCH  27  28
HETATM   28  O6  UNL     1      20.156   4.603  23.503  1.00  0.00    -0.400 OA
ATOM     29  H6  UNL     1      19.819   5.160  24.194  1.00  0.00     0.209 HD
ENDBRANCH  27  28
ENDBRANCH   8  27
TORSDOF 8
ENDMDL
