MODEL 1
REMARK VINA RESULT: -5.696776407      0.000      0.000
REMARK  10 active torsions:
REMARK  status: ('A' for Active; 'I' for Inactive)
REMARK    1  A    between atoms: C2_2  and  S1_3 
REMARK    2  A    between atoms: S1_3  and  C3_4 
REMARK    3  A    between atoms: C3_4  and  C4_6 
REMARK    4  A    between atoms: C5_7  and  S2_8 
REMARK    5  A    between atoms: C7_10  and  C8_11 
REMARK    6  A    between atoms: C8_11  and  O3_13 
REMARK    7  A    between atoms: C10_15  and  N1_16 
REMARK    8  A    between atoms: N1_16  and  N2_17 
REMARK    9  A    between atoms: C11_20  and  N3_21 
REMARK   10  A    between atoms: C11_20  and  N4_25 
ROOT
HETATM    1  C4  UNL     1      25.479   0.266  19.714  1.00  0.00     0.025 C 
HETATM    2  C5  UNL     1      25.674  -1.047  19.306  1.00  0.00     0.031 C 
HETATM    3  C7  UNL     1      26.613  -1.205  18.193  1.00  0.00     0.100 C 
HETATM    4  C10 UNL     1      26.305  -0.268  17.075  1.00  0.00     0.190 C 
HETATM    5  C11 UNL     1      25.932   1.108  17.474  1.00  0.00     0.346 C 
HETATM    6  C12 UNL     1      26.201   1.287  18.988  1.00  0.00     0.093 C 
HETATM    7  C13 UNL     1      25.932   2.715  19.299  1.00  0.00     0.020 C 
ENDROOT
BRANCH   5   8
HETATM    8  N3  UNL     1      26.791   2.026  16.787  1.00  0.00    -0.037 N 
ATOM      9  H33 UNL     1      26.893   1.802  15.797  1.00  0.00     0.277 HD
ATOM     10  H32 UNL     1      26.372   2.949  16.678  1.00  0.00     0.277 HD
ATOM     11  H31 UNL     1      27.686   2.057  17.276  1.00  0.00     0.277 HD
ENDBRANCH   5   8
BRANCH   5  12
HETATM   12  N4  UNL     1      24.538   1.290  17.171  1.00  0.00    -0.037 N 
ATOM     13  H43 UNL     1      24.321   1.115  16.190  1.00  0.00     0.277 HD
ATOM     14  H42 UNL     1      23.947   0.563  17.572  1.00  0.00     0.277 HD
ATOM     15  H41 UNL     1      24.274   2.228  17.473  1.00  0.00     0.277 HD
ENDBRANCH   5  12
BRANCH   4  16
HETATM   16  N1  UNL     1      26.352  -0.584  15.876  1.00  0.00    -0.332 NA
BRANCH  16  17
HETATM   17  N2  UNL     1      26.065  -0.813  14.675  1.00  0.00    -0.280 N 
ATOM     18  H22 UNL     1      25.649   0.106  14.526  1.00  0.00     0.191 HD
ATOM     19  H21 UNL     1      25.950  -1.248  13.759  1.00  0.00     0.191 HD
ENDBRANCH  16  17
ENDBRANCH   4  16
BRANCH   3  20
HETATM   20  C8  UNL     1      26.994  -2.517  17.742  1.00  0.00     0.297 C 
HETATM   21  O2  UNL     1      28.231  -2.811  17.633  1.00  0.00    -0.259 OA
BRANCH  20  22
HETATM   22  O3  UNL     1      26.147  -3.571  17.397  1.00  0.00    -0.322 OA
HETATM   23  C9  UNL     1      26.321  -4.892  17.933  1.00  0.00     0.213 C 
ENDBRANCH  20  22
ENDBRANCH   3  20
BRANCH   1  24
HETATM   24  C3  UNL     1      24.567   0.508  20.800  1.00  0.00     0.217 C 
HETATM   25  O1  UNL     1      24.988   0.521  22.022  1.00  0.00    -0.280 OA
BRANCH  24  26
HETATM   26  S1  UNL     1      22.839   0.807  20.616  1.00  0.00    -0.088 SA
BRANCH  26  27
HETATM   27  C2  UNL     1      22.335   2.443  21.137  1.00  0.00     0.078 C 
HETATM   28  C1  UNL     1      22.324   3.392  19.971  1.00  0.00     0.016 C 
ENDBRANCH  26  27
ENDBRANCH  24  26
ENDBRANCH   1  24
BRANCH   2  29
HETATM   29  S2  UNL     1      24.747  -2.216  20.205  1.00  0.00    -0.133 SA
HETATM   30  C6  UNL     1      25.678  -3.270  21.276  1.00  0.00     0.095 C 
ENDBRANCH   2  29
TORSDOF 10
ENDMDL
MODEL 2
REMARK VINA RESULT: -5.648902186      0.981      1.040
REMARK  10 active torsions:
REMARK  status: ('A' for Active; 'I' for Inactive)
REMARK    1  A    between atoms: C2_2  and  S1_3 
REMARK    2  A    between atoms: S1_3  and  C3_4 
REMARK    3  A    between atoms: C3_4  and  C4_6 
REMARK    4  A    between atoms: C5_7  and  S2_8 
REMARK    5  A    between atoms: C7_10  and  C8_11 
REMARK    6  A    between atoms: C8_11  and  O3_13 
REMARK    7  A    between atoms: C10_15  and  N1_16 
REMARK    8  A    between atoms: N1_16  and  N2_17 
REMARK    9  A    between atoms: C11_20  and  N3_21 
REMARK   10  A    between atoms: C11_20  and  N4_25 
ROOT
HETATM    1  C4  UNL     1      25.484   0.260  19.723  1.00  0.00     0.025 C 
HETATM    2  C5  UNL     1      25.685  -1.052  19.312  1.00  0.00     0.031 C 
HETATM    3  C7  UNL     1      26.602  -1.201  18.179  1.00  0.00     0.100 C 
HETATM    4  C10 UNL     1      26.260  -0.268  17.067  1.00  0.00     0.190 C 
HETATM    5  C11 UNL     1      25.880   1.104  17.473  1.00  0.00     0.346 C 
HETATM    6  C12 UNL     1      26.178   1.288  18.980  1.00  0.00     0.093 C 
HETATM    7  C13 UNL     1      25.900   2.713  19.296  1.00  0.00     0.020 C 
ENDROOT
BRANCH   5   8
HETATM    8  N3  UNL     1      26.714   2.031  16.767  1.00  0.00    -0.037 N 
ATOM      9  H33 UNL     1      27.704   1.907  16.978  1.00  0.00     0.277 HD
ATOM     10  H32 UNL     1      26.760   1.835  15.767  1.00  0.00     0.277 HD
ATOM     11  H31 UNL     1      26.385   2.976  16.966  1.00  0.00     0.277 HD
ENDBRANCH   5   8
BRANCH   5  12
HETATM   12  N4  UNL     1      24.478   1.270  17.198  1.00  0.00    -0.037 N 
ATOM     13  H43 UNL     1      24.029   0.407  16.893  1.00  0.00     0.277 HD
ATOM     14  H42 UNL     1      23.924   1.420  18.042  1.00  0.00     0.277 HD
ATOM     15  H41 UNL     1      24.381   2.028  16.521  1.00  0.00     0.277 HD
ENDBRANCH   5  12
BRANCH   4  16
HETATM   16  N1  UNL     1      26.285  -0.584  15.867  1.00  0.00    -0.332 NA
BRANCH  16  17
HETATM   17  N2  UNL     1      25.973  -0.829  14.676  1.00  0.00    -0.280 N 
ATOM     18  H22 UNL     1      24.972  -0.736  14.846  1.00  0.00     0.191 HD
ATOM     19  H21 UNL     1      25.999  -1.050  13.680  1.00  0.00     0.191 HD
ENDBRANCH  16  17
ENDBRANCH   4  16
BRANCH   3  20
HETATM   20  C8  UNL     1      26.988  -2.508  17.722  1.00  0.00     0.297 C 
HETATM   21  O2  UNL     1      28.226  -2.788  17.584  1.00  0.00    -0.259 OA
BRANCH  20  22
HETATM   22  O3  UNL     1      26.146  -3.573  17.398  1.00  0.00    -0.322 OA
HETATM   23  C9  UNL     1      26.351  -4.892  17.929  1.00  0.00     0.213 C 
ENDBRANCH  20  22
ENDBRANCH   3  20
BRANCH   1  24
HETATM   24  C3  UNL     1      24.592   0.492  20.827  1.00  0.00     0.217 C 
HETATM   25  O1  UNL     1      25.038   0.513  22.040  1.00  0.00    -0.280 OA
BRANCH  24  26
HETATM   26  S1  UNL     1      22.856   0.769  20.680  1.00  0.00    -0.088 SA
BRANCH  26  27
HETATM   27  C2  UNL     1      21.881  -0.137  21.876  1.00  0.00     0.078 C 
HETATM   28  C1  UNL     1      20.463   0.363  21.895  1.00  0.00     0.016 C 
ENDBRANCH  26  27
ENDBRANCH  24  26
ENDBRANCH   1  24
BRANCH   2  29
HETATM   29  S2  UNL     1      24.790  -2.230  20.231  1.00  0.00    -0.133 SA
HETATM   30  C6  UNL     1      25.755  -3.279  21.276  1.00  0.00     0.095 C 
ENDBRANCH   2  29
TORSDOF 10
ENDMDL
MODEL 3
REMARK VINA RESULT: -5.628315421      2.860      5.133
REMARK  10 active torsions:
REMARK  status: ('A' for Active; 'I' for Inactive)
REMARK    1  A    between atoms: C2_2  and  S1_3 
REMARK    2  A    between atoms: S1_3  and  C3_4 
REMARK    3  A    between atoms: C3_4  and  C4_6 
REMARK    4  A    between atoms: C5_7  and  S2_8 
REMARK    5  A    between atoms: C7_10  and  C8_11 
REMARK    6  A    between atoms: C8_11  and  O3_13 
REMARK    7  A    between atoms: C10_15  and  N1_16 
REMARK    8  A    between atoms: N1_16  and  N2_17 
REMARK    9  A    between atoms: C11_20  and  N3_21 
REMARK   10  A    between atoms: C11_20  and  N4_25 
ROOT
HETATM    1  C4  UNL     1      25.306  -0.739  19.479  1.00  0.00     0.025 C 
HETATM    2  C5  UNL     1      26.208  -0.069  18.663  1.00  0.00     0.031 C 
HETATM    3  C7  UNL     1      26.393   1.346  18.994  1.00  0.00     0.100 C 
HETATM    4  C10 UNL     1      25.089   2.050  19.153  1.00  0.00     0.190 C 
HETATM    5  C11 UNL     1      24.039   1.302  19.880  1.00  0.00     0.346 C 
HETATM    6  C12 UNL     1      24.666   0.038  20.517  1.00  0.00     0.093 C 
HETATM    7  C13 UNL     1      23.599  -0.597  21.334  1.00  0.00     0.020 C 
ENDROOT
BRANCH   5   8
HETATM    8  N3  UNL     1      23.565   2.120  20.957  1.00  0.00    -0.037 N 
ATOM      9  H33 UNL     1      23.539   1.621  21.846  1.00  0.00     0.277 HD
ATOM     10  H32 UNL     1      24.234   2.843  21.224  1.00  0.00     0.277 HD
ATOM     11  H31 UNL     1      22.657   2.504  20.695  1.00  0.00     0.277 HD
ENDBRANCH   5   8
BRANCH   5  12
HETATM   12  N4  UNL     1      23.014   0.951  18.934  1.00  0.00    -0.037 N 
ATOM     13  H43 UNL     1      23.350   0.328  18.200  1.00  0.00     0.277 HD
ATOM     14  H42 UNL     1      22.308   0.329  19.327  1.00  0.00     0.277 HD
ATOM     15  H41 UNL     1      22.619   1.818  18.567  1.00  0.00     0.277 HD
ENDBRANCH   5  12
BRANCH   4  16
HETATM   16  N1  UNL     1      24.863   3.191  18.720  1.00  0.00    -0.332 NA
BRANCH  16  17
HETATM   17  N2  UNL     1      24.657   4.183  17.978  1.00  0.00    -0.280 N 
ATOM     18  H22 UNL     1      24.760   3.647  17.116  1.00  0.00     0.191 HD
ATOM     19  H21 UNL     1      24.464   5.120  17.623  1.00  0.00     0.191 HD
ENDBRANCH  16  17
ENDBRANCH   4  16
BRANCH   3  20
HETATM   20  C8  UNL     1      27.380   2.132  18.305  1.00  0.00     0.297 C 
HETATM   21  O2  UNL     1      28.437   2.497  18.919  1.00  0.00    -0.259 OA
BRANCH  20  22
HETATM   22  O3  UNL     1      27.339   2.567  16.979  1.00  0.00    -0.322 OA
HETATM   23  C9  UNL     1      28.263   2.081  15.991  1.00  0.00     0.213 C 
ENDBRANCH  20  22
ENDBRANCH   3  20
BRANCH   1  24
HETATM   24  C3  UNL     1      25.063  -2.133  19.216  1.00  0.00     0.217 C 
HETATM   25  O1  UNL     1      24.163  -2.494  18.363  1.00  0.00    -0.280 OA
BRANCH  24  26
HETATM   26  S1  UNL     1      25.924  -3.467  19.984  1.00  0.00    -0.088 SA
BRANCH  26  27
HETATM   27  C2  UNL     1      26.780  -4.529  18.826  1.00  0.00     0.078 C 
HETATM   28  C1  UNL     1      28.263  -4.286  18.879  1.00  0.00     0.016 C 
ENDBRANCH  26  27
ENDBRANCH  24  26
ENDBRANCH   1  24
BRANCH   2  29
HETATM   29  S2  UNL     1      26.912  -1.061  17.417  1.00  0.00    -0.133 SA
HETATM   30  C6  UNL     1      26.130  -0.972  15.835  1.00  0.00     0.095 C 
ENDBRANCH   2  29
TORSDOF 10
ENDMDL
MODEL 4
REMARK VINA RESULT: -5.578347917      1.232      1.416
REMARK  10 active torsions:
REMARK  status: ('A' for Active; 'I' for Inactive)
REMARK    1  A    between atoms: C2_2  and  S1_3 
REMARK    2  A    between atoms: S1_3  and  C3_4 
REMARK    3  A    between atoms: C3_4  and  C4_6 
REMARK    4  A    between atoms: C5_7  and  S2_8 
REMARK    5  A    between atoms: C7_10  and  C8_11 
REMARK    6  A    between atoms: C8_11  and  O3_13 
REMARK    7  A    between atoms: C10_15  and  N1_16 
REMARK    8  A    between atoms: N1_16  and  N2_17 
REMARK    9  A    between atoms: C11_20  and  N3_21 
REMARK   10  A    between atoms: C11_20  and  N4_25 
ROOT
HETATM    1  C4  UNL     1      25.388   0.084  19.486  1.00  0.00     0.025 C 
HETATM    2  C5  UNL     1      25.678  -1.203  19.052  1.00  0.00     0.031 C 
HETATM    3  C7  UNL     1      26.711  -1.277  18.016  1.00  0.00     0.100 C 
HETATM    4  C10 UNL     1      26.452  -0.314  16.909  1.00  0.00     0.190 C 
HETATM    5  C11 UNL     1      25.982   1.028  17.321  1.00  0.00     0.346 C 
HETATM    6  C12 UNL     1      26.117   1.163  18.857  1.00  0.00     0.093 C 
HETATM    7  C13 UNL     1      25.755   2.564  19.192  1.00  0.00     0.020 C 
ENDROOT
BRANCH   5   8
HETATM    8  N3  UNL     1      26.850   2.009  16.739  1.00  0.00    -0.037 N 
ATOM      9  H33 UNL     1      27.818   1.909  17.047  1.00  0.00     0.277 HD
ATOM     10  H32 UNL     1      27.005   1.854  15.744  1.00  0.00     0.277 HD
ATOM     11  H31 UNL     1      26.469   2.935  16.938  1.00  0.00     0.277 HD
ENDBRANCH   5   8
BRANCH   5  12
HETATM   12  N4  UNL     1      24.611   1.160  16.908  1.00  0.00    -0.037 N 
ATOM     13  H43 UNL     1      24.147   1.966  17.327  1.00  0.00     0.277 HD
ATOM     14  H42 UNL     1      24.516   1.442  15.933  1.00  0.00     0.277 HD
ATOM     15  H41 UNL     1      24.138   0.279  17.114  1.00  0.00     0.277 HD
ENDBRANCH   5  12
BRANCH   4  16
HETATM   16  N1  UNL     1      26.612  -0.581  15.708  1.00  0.00    -0.332 NA
BRANCH  16  17
HETATM   17  N2  UNL     1      26.429  -0.822  14.489  1.00  0.00    -0.280 N 
ATOM     18  H22 UNL     1      25.671  -0.145  14.398  1.00  0.00     0.191 HD
ATOM     19  H21 UNL     1      26.491  -1.200  13.543  1.00  0.00     0.191 HD
ENDBRANCH  16  17
ENDBRANCH   4  16
BRANCH   3  20
HETATM   20  C8  UNL     1      27.190  -2.552  17.556  1.00  0.00     0.297 C 
HETATM   21  O2  UNL     1      26.484  -3.234  16.741  1.00  0.00    -0.259 OA
BRANCH  20  22
HETATM   22  O3  UNL     1      28.393  -3.176  17.893  1.00  0.00    -0.322 OA
HETATM   23  C9  UNL     1      28.480  -4.127  18.966  1.00  0.00     0.213 C 
ENDBRANCH  20  22
ENDBRANCH   3  20
BRANCH   1  24
HETATM   24  C3  UNL     1      24.379   0.244  20.500  1.00  0.00     0.217 C 
HETATM   25  O1  UNL     1      23.127   0.265  20.183  1.00  0.00    -0.280 OA
BRANCH  24  26
HETATM   26  S1  UNL     1      24.703   0.421  22.225  1.00  0.00    -0.088 SA
BRANCH  26  27
HETATM   27  C2  UNL     1      23.670   1.643  23.026  1.00  0.00     0.078 C 
HETATM   28  C1  UNL     1      23.795   2.976  22.340  1.00  0.00     0.016 C 
ENDBRANCH  26  27
ENDBRANCH  24  26
ENDBRANCH   1  24
BRANCH   2  29
HETATM   29  S2  UNL     1      24.737  -2.445  19.830  1.00  0.00    -0.133 SA
HETATM   30  C6  UNL     1      25.526  -3.270  21.179  1.00  0.00     0.095 C 
ENDBRANCH   2  29
TORSDOF 10
ENDMDL
MODEL 5
REMARK VINA RESULT: -5.390511471      4.530      7.361
REMARK  10 active torsions:
REMARK  status: ('A' for Active; 'I' for Inactive)
REMARK    1  A    between atoms: C2_2  and  S1_3 
REMARK    2  A    between atoms: S1_3  and  C3_4 
REMARK    3  A    between atoms: C3_4  and  C4_6 
REMARK    4  A    between atoms: C5_7  and  S2_8 
REMARK    5  A    between atoms: C7_10  and  C8_11 
REMARK    6  A    between atoms: C8_11  and  O3_13 
REMARK    7  A    between atoms: C10_15  and  N1_16 
REMARK    8  A    between atoms: N1_16  and  N2_17 
REMARK    9  A    between atoms: C11_20  and  N3_21 
REMARK   10  A    between atoms: C11_20  and  N4_25 
ROOT
HETATM    1  C4  UNL     1      22.785   3.079  20.412  1.00  0.00     0.025 C 
HETATM    2  C5  UNL     1      22.088   2.190  21.220  1.00  0.00     0.031 C 
HETATM    3  C7  UNL     1      21.073   2.811  22.075  1.00  0.00     0.100 C 
HETATM    4  C10 UNL     1      21.617   3.989  22.808  1.00  0.00     0.190 C 
HETATM    5  C11 UNL     1      22.501   4.882  22.025  1.00  0.00     0.346 C 
HETATM    6  C12 UNL     1      22.437   4.477  20.533  1.00  0.00     0.093 C 
HETATM    7  C13 UNL     1      23.237   5.483  19.787  1.00  0.00     0.020 C 
ENDROOT
BRANCH   5   8
HETATM    8  N3  UNL     1      21.990   6.218  22.117  1.00  0.00    -0.037 N 
ATOM      9  H33 UNL     1      21.053   6.307  21.725  1.00  0.00     0.277 HD
ATOM     10  H32 UNL     1      21.766   6.487  23.075  1.00  0.00     0.277 HD
ATOM     11  H31 UNL     1      22.661   6.849  21.679  1.00  0.00     0.277 HD
ENDBRANCH   5   8
BRANCH   5  12
HETATM   12  N4  UNL     1      23.836   4.742  22.542  1.00  0.00    -0.037 N 
ATOM     13  H43 UNL     1      23.922   5.062  23.507  1.00  0.00     0.277 HD
ATOM     14  H42 UNL     1      24.100   3.769  22.699  1.00  0.00     0.277 HD
ATOM     15  H41 UNL     1      24.469   5.226  21.906  1.00  0.00     0.277 HD
ENDBRANCH   5  12
BRANCH   4  16
HETATM   16  N1  UNL     1      21.363   4.241  23.996  1.00  0.00    -0.332 NA
BRANCH  16  17
HETATM   17  N2  UNL     1      21.356   4.261  25.252  1.00  0.00    -0.280 N 
ATOM     18  H22 UNL     1      22.273   4.703  25.319  1.00  0.00     0.191 HD
ATOM     19  H21 UNL     1      21.099   4.156  26.234  1.00  0.00     0.191 HD
ENDBRANCH  16  17
ENDBRANCH   4  16
BRANCH   3  20
HETATM   20  C8  UNL     1      20.201   1.997  22.878  1.00  0.00     0.297 C 
HETATM   21  O2  UNL     1      20.678   1.351  23.869  1.00  0.00    -0.259 OA
BRANCH  20  22
HETATM   22  O3  UNL     1      18.827   1.815  22.715  1.00  0.00    -0.322 OA
HETATM   23  C9  UNL     1      18.292   0.750  21.912  1.00  0.00     0.213 C 
ENDBRANCH  20  22
ENDBRANCH   3  20
BRANCH   1  24
HETATM   24  C3  UNL     1      23.804   2.549  19.546  1.00  0.00     0.217 C 
HETATM   25  O1  UNL     1      23.520   2.192  18.337  1.00  0.00    -0.280 OA
BRANCH  24  26
HETATM   26  S1  UNL     1      25.495   2.328  19.997  1.00  0.00    -0.088 SA
BRANCH  26  27
HETATM   27  C2  UNL     1      26.367   1.160  18.958  1.00  0.00     0.078 C 
HETATM   28  C1  UNL     1      25.938  -0.248  19.266  1.00  0.00     0.016 C 
ENDBRANCH  26  27
ENDBRANCH  24  26
ENDBRANCH   1  24
BRANCH   2  29
HETATM   29  S2  UNL     1      22.586   0.530  21.044  1.00  0.00    -0.133 SA
HETATM   30  C6  UNL     1      23.595  -0.109  22.348  1.00  0.00     0.095 C 
ENDBRANCH   2  29
TORSDOF 10
ENDMDL
