MODEL 1
REMARK VINA RESULT: -7.520651751      0.000      0.000
REMARK  7 active torsions:
REMARK  status: ('A' for Active; 'I' for Inactive)
REMARK    1  A    between atoms: C2_2  and  C3_3 
REMARK    2  A    between atoms: C3_3  and  C4_4 
REMARK    3  A    between atoms: C4_4  and  C5_5 
REMARK    4  A    between atoms: C5_5  and  O1_6 
REMARK    5  A    between atoms: C6_8  and  O2_9 
REMARK    6  A    between atoms: C7_11  and  O3_12 
REMARK    7  A    between atoms: O3_12  and  C8_13 
ROOT
HETATM    1  C5  UNL     1      23.346   3.693  19.921  1.00  0.00     0.095 C 
HETATM    2  C6  UNL     1      24.503   3.352  19.028  1.00  0.00     0.188 C 
HETATM    3  C7  UNL     1      25.402   2.563  19.880  1.00  0.00     0.226 C 
HETATM    4  C10 UNL     1      24.515   1.949  20.947  1.00  0.00     0.203 C 
HETATM    5  O5  UNL     1      25.374   1.501  21.939  1.00  0.00    -0.342 OA
HETATM    6  C11 UNL     1      24.557   0.612  22.661  1.00  0.00     0.181 C 
HETATM    7  C12 UNL     1      23.753   1.461  23.604  1.00  0.00     0.051 C 
HETATM    8  C13 UNL     1      22.408   1.845  23.059  1.00  0.00     0.089 C 
HETATM    9  C14 UNL     1      22.431   2.904  22.026  1.00  0.00     0.028 C 
HETATM   10  C15 UNL     1      23.694   3.121  21.305  1.00  0.00     0.089 C 
HETATM   11  C16 UNL     1      21.671   0.643  22.535  1.00  0.00     0.265 C 
HETATM   12  O6  UNL     1      20.439   0.514  22.605  1.00  0.00    -0.265 OA
HETATM   13  O7  UNL     1      22.433  -0.342  21.953  1.00  0.00    -0.287 OA
HETATM   14  C17 UNL     1      23.756  -0.023  21.574  1.00  0.00     0.302 C 
HETATM   15  O8  UNL     1      23.743   0.919  20.522  1.00  0.00    -0.319 OA
ENDROOT
BRANCH   1  16
HETATM   16  C4  UNL     1      23.175   5.177  20.128  1.00  0.00     0.041 C 
BRANCH  16  17
HETATM   17  C3  UNL     1      23.678   5.982  18.952  1.00  0.00     0.003 C 
BRANCH  17  18
HETATM   18  C2  UNL     1      22.941   7.304  18.973  1.00  0.00    -0.004 C 
HETATM   19  C1  UNL     1      22.264   7.552  20.300  1.00  0.00     0.005 C 
ENDBRANCH  17  18
ENDBRANCH  16  17
ENDBRANCH   1  16
BRANCH   1  20
HETATM   20  O1  UNL     1      22.215   3.067  19.458  1.00  0.00    -0.387 OA
ATOM     21  H1  UNL     1      21.422   3.325  19.913  1.00  0.00     0.210 HD
ENDBRANCH   1  20
BRANCH   2  22
HETATM   22  O2  UNL     1      24.082   2.765  17.859  1.00  0.00    -0.390 OA
ATOM     23  H2  UNL     1      23.296   3.181  17.524  1.00  0.00     0.210 HD
ENDBRANCH   2  22
BRANCH   3  24
HETATM   24  O3  UNL     1      26.311   1.721  19.298  1.00  0.00    -0.308 OA
BRANCH  24  25
HETATM   25  C8  UNL     1      27.379   2.063  18.512  1.00  0.00     0.255 C 
HETATM   26  C9  UNL     1      27.417   1.782  17.062  1.00  0.00     0.126 C 
HETATM   27  O4  UNL     1      28.299   2.626  19.133  1.00  0.00    -0.266 OA
ENDBRANCH  24  25
ENDBRANCH   3  24
TORSDOF 7
ENDMDL
MODEL 2
REMARK VINA RESULT: -7.465648524      1.554      4.895
REMARK  7 active torsions:
REMARK  status: ('A' for Active; 'I' for Inactive)
REMARK    1  A    between atoms: C2_2  and  C3_3 
REMARK    2  A    between atoms: C3_3  and  C4_4 
REMARK    3  A    between atoms: C4_4  and  C5_5 
REMARK    4  A    between atoms: C5_5  and  O1_6 
REMARK    5  A    between atoms: C6_8  and  O2_9 
REMARK    6  A    between atoms: C7_11  and  O3_12 
REMARK    7  A    between atoms: O3_12  and  C8_13 
ROOT
HETATM    1  C5  UNL     1      23.519   3.912  20.830  1.00  0.00     0.095 C 
HETATM    2  C6  UNL     1      22.656   3.132  21.779  1.00  0.00     0.188 C 
HETATM    3  C7  UNL     1      22.384   1.872  21.074  1.00  0.00     0.226 C 
HETATM    4  C10 UNL     1      23.542   1.689  20.110  1.00  0.00     0.203 C 
HETATM    5  O5  UNL     1      23.133   0.715  19.212  1.00  0.00    -0.342 OA
HETATM    6  C11 UNL     1      24.352   0.314  18.633  1.00  0.00     0.181 C 
HETATM    7  C12 UNL     1      24.650   1.320  17.558  1.00  0.00     0.051 C 
HETATM    8  C13 UNL     1      25.537   2.440  18.020  1.00  0.00     0.089 C 
HETATM    9  C14 UNL     1      24.873   3.453  18.869  1.00  0.00     0.028 C 
HETATM   10  C15 UNL     1      23.637   3.054  19.560  1.00  0.00     0.089 C 
HETATM   11  C16 UNL     1      26.757   1.911  18.722  1.00  0.00     0.265 C 
HETATM   12  O6  UNL     1      27.870   2.457  18.660  1.00  0.00    -0.265 OA
HETATM   13  O7  UNL     1      26.594   0.764  19.462  1.00  0.00    -0.287 OA
HETATM   14  C17 UNL     1      25.280   0.371  19.799  1.00  0.00     0.302 C 
HETATM   15  O8  UNL     1      24.708   1.308  20.686  1.00  0.00    -0.319 OA
ENDROOT
BRANCH   1  16
HETATM   16  C4  UNL     1      22.888   5.208  20.386  1.00  0.00     0.041 C 
BRANCH  16  17
HETATM   17  C3  UNL     1      22.552   6.111  21.550  1.00  0.00     0.003 C 
BRANCH  17  18
HETATM   18  C2  UNL     1      22.225   7.473  20.974  1.00  0.00    -0.004 C 
HETATM   19  C1  UNL     1      22.515   7.544  19.493  1.00  0.00     0.005 C 
ENDBRANCH  17  18
ENDBRANCH  16  17
ENDBRANCH   1  16
BRANCH   1  20
HETATM   20  O1  UNL     1      24.769   4.066  21.376  1.00  0.00    -0.387 OA
ATOM     21  H1  UNL     1      24.810   4.727  22.056  1.00  0.00     0.210 HD
ENDBRANCH   1  20
BRANCH   2  22
HETATM   22  O2  UNL     1      23.233   3.035  23.022  1.00  0.00    -0.390 OA
ATOM     23  H2  UNL     1      22.674   3.405  23.695  1.00  0.00     0.210 HD
ENDBRANCH   2  22
BRANCH   3  24
HETATM   24  O3  UNL     1      22.022   0.765  21.794  1.00  0.00    -0.308 OA
BRANCH  24  25
HETATM   25  C8  UNL     1      20.753   0.316  22.049  1.00  0.00     0.255 C 
HETATM   26  C9  UNL     1      20.490  -0.971  22.723  1.00  0.00     0.126 C 
HETATM   27  O4  UNL     1      19.860   1.092  21.663  1.00  0.00    -0.266 OA
ENDBRANCH  24  25
ENDBRANCH   3  24
TORSDOF 7
ENDMDL
MODEL 3
REMARK VINA RESULT: -7.381354750      1.724      4.921
REMARK  7 active torsions:
REMARK  status: ('A' for Active; 'I' for Inactive)
REMARK    1  A    between atoms: C2_2  and  C3_3 
REMARK    2  A    between atoms: C3_3  and  C4_4 
REMARK    3  A    between atoms: C4_4  and  C5_5 
REMARK    4  A    between atoms: C5_5  and  O1_6 
REMARK    5  A    between atoms: C6_8  and  O2_9 
REMARK    6  A    between atoms: C7_11  and  O3_12 
REMARK    7  A    between atoms: O3_12  and  C8_13 
ROOT
HETATM    1  C5  UNL     1      23.259   4.454  20.945  1.00  0.00     0.095 C 
HETATM    2  C6  UNL     1      22.231   3.895  21.886  1.00  0.00     0.188 C 
HETATM    3  C7  UNL     1      21.832   2.620  21.276  1.00  0.00     0.226 C 
HETATM    4  C10 UNL     1      23.016   2.188  20.429  1.00  0.00     0.203 C 
HETATM    5  O5  UNL     1      22.536   1.193  19.592  1.00  0.00    -0.342 OA
HETATM    6  C11 UNL     1      23.722   0.576  19.152  1.00  0.00     0.181 C 
HETATM    7  C12 UNL     1      24.233   1.421  18.020  1.00  0.00     0.051 C 
HETATM    8  C13 UNL     1      25.236   2.451  18.451  1.00  0.00     0.089 C 
HETATM    9  C14 UNL     1      24.665   3.624  19.151  1.00  0.00     0.028 C 
HETATM   10  C15 UNL     1      23.341   3.466  19.770  1.00  0.00     0.089 C 
HETATM   11  C16 UNL     1      26.317   1.835  19.295  1.00  0.00     0.265 C 
HETATM   12  O6  UNL     1      27.498   2.218  19.276  1.00  0.00    -0.265 OA
HETATM   13  O7  UNL     1      25.943   0.800  20.119  1.00  0.00    -0.287 OA
HETATM   14  C17 UNL     1      24.566   0.623  20.380  1.00  0.00     0.302 C 
HETATM   15  O8  UNL     1      24.073   1.712  21.131  1.00  0.00    -0.319 OA
ENDROOT
BRANCH   1  16
HETATM   16  C4  UNL     1      22.850   5.773  20.338  1.00  0.00     0.041 C 
BRANCH  16  17
HETATM   17  C3  UNL     1      22.310   6.736  21.369  1.00  0.00     0.003 C 
BRANCH  17  18
HETATM   18  C2  UNL     1      21.640   7.864  20.612  1.00  0.00    -0.004 C 
HETATM   19  C1  UNL     1      21.952   7.816  19.135  1.00  0.00     0.005 C 
ENDBRANCH  17  18
ENDBRANCH  16  17
ENDBRANCH   1  16
BRANCH   1  20
HETATM   20  O1  UNL     1      24.478   4.491  21.576  1.00  0.00    -0.387 OA
ATOM     21  H1  UNL     1      25.214   4.560  20.980  1.00  0.00     0.210 HD
ENDBRANCH   1  20
BRANCH   2  22
HETATM   22  O2  UNL     1      22.702   3.845  23.176  1.00  0.00    -0.390 OA
ATOM     23  H2  UNL     1      21.997   3.932  23.807  1.00  0.00     0.210 HD
ENDBRANCH   2  22
BRANCH   3  24
HETATM   24  O3  UNL     1      21.268   1.649  22.059  1.00  0.00    -0.308 OA
BRANCH  24  25
HETATM   25  C8  UNL     1      19.997   1.624  22.568  1.00  0.00     0.255 C 
HETATM   26  C9  UNL     1      18.939   0.754  22.015  1.00  0.00     0.126 C 
HETATM   27  O4  UNL     1      19.827   2.395  23.530  1.00  0.00    -0.266 OA
ENDBRANCH  24  25
ENDBRANCH   3  24
TORSDOF 7
ENDMDL
MODEL 4
REMARK VINA RESULT: -7.255186871      1.928      5.042
REMARK  7 active torsions:
REMARK  status: ('A' for Active; 'I' for Inactive)
REMARK    1  A    between atoms: C2_2  and  C3_3 
REMARK    2  A    between atoms: C3_3  and  C4_4 
REMARK    3  A    between atoms: C4_4  and  C5_5 
REMARK    4  A    between atoms: C5_5  and  O1_6 
REMARK    5  A    between atoms: C6_8  and  O2_9 
REMARK    6  A    between atoms: C7_11  and  O3_12 
REMARK    7  A    between atoms: O3_12  and  C8_13 
ROOT
HETATM    1  C5  UNL     1      22.775   4.823  21.176  1.00  0.00     0.095 C 
HETATM    2  C6  UNL     1      21.856   4.341  22.261  1.00  0.00     0.188 C 
HETATM    3  C7  UNL     1      21.488   2.980  21.851  1.00  0.00     0.226 C 
HETATM    4  C10 UNL     1      22.628   2.499  20.972  1.00  0.00     0.203 C 
HETATM    5  O5  UNL     1      22.146   1.382  20.308  1.00  0.00    -0.342 OA
HETATM    6  C11 UNL     1      23.330   0.772  19.854  1.00  0.00     0.181 C 
HETATM    7  C12 UNL     1      23.704   1.486  18.586  1.00  0.00     0.051 C 
HETATM    8  C13 UNL     1      24.674   2.611  18.800  1.00  0.00     0.089 C 
HETATM    9  C14 UNL     1      24.090   3.836  19.391  1.00  0.00     0.028 C 
HETATM   10  C15 UNL     1      22.827   3.695  20.132  1.00  0.00     0.089 C 
HETATM   11  C16 UNL     1      25.850   2.164  19.623  1.00  0.00     0.265 C 
HETATM   12  O6  UNL     1      27.002   2.598  19.459  1.00  0.00    -0.265 OA
HETATM   13  O7  UNL     1      25.601   1.228  20.598  1.00  0.00    -0.287 OA
HETATM   14  C17 UNL     1      24.261   1.019  20.992  1.00  0.00     0.302 C 
HETATM   15  O8  UNL     1      23.762   2.171  21.638  1.00  0.00    -0.319 OA
ENDROOT
BRANCH   1  16
HETATM   16  C4  UNL     1      22.245   6.030  20.443  1.00  0.00     0.041 C 
BRANCH  16  17
HETATM   17  C3  UNL     1      22.506   7.316  21.192  1.00  0.00     0.003 C 
BRANCH  17  18
HETATM   18  C2  UNL     1      21.158   7.862  21.615  1.00  0.00    -0.004 C 
HETATM   19  C1  UNL     1      21.034   7.957  23.117  1.00  0.00     0.005 C 
ENDBRANCH  17  18
ENDBRANCH  16  17
ENDBRANCH   1  16
BRANCH   1  20
HETATM   20  O1  UNL     1      24.035   5.001  21.695  1.00  0.00    -0.387 OA
ATOM     21  H1  UNL     1      24.724   4.966  21.042  1.00  0.00     0.210 HD
ENDBRANCH   1  20
BRANCH   2  22
HETATM   22  O2  UNL     1      22.425   4.483  23.504  1.00  0.00    -0.390 OA
ATOM     23  H2  UNL     1      21.813   4.259  24.194  1.00  0.00     0.210 HD
ENDBRANCH   2  22
BRANCH   3  24
HETATM   24  O3  UNL     1      21.043   2.092  22.794  1.00  0.00    -0.308 OA
BRANCH  24  25
HETATM   25  C8  UNL     1      19.751   1.702  23.026  1.00  0.00     0.255 C 
HETATM   26  C9  UNL     1      19.046   0.741  22.154  1.00  0.00     0.126 C 
HETATM   27  O4  UNL     1      19.240   2.231  24.030  1.00  0.00    -0.266 OA
ENDBRANCH  24  25
ENDBRANCH   3  24
TORSDOF 7
ENDMDL
MODEL 5
REMARK VINA RESULT: -7.141826190      2.545      5.000
REMARK  7 active torsions:
REMARK  status: ('A' for Active; 'I' for Inactive)
REMARK    1  A    between atoms: C2_2  and  C3_3 
REMARK    2  A    between atoms: C3_3  and  C4_4 
REMARK    3  A    between atoms: C4_4  and  C5_5 
REMARK    4  A    between atoms: C5_5  and  O1_6 
REMARK    5  A    between atoms: C6_8  and  O2_9 
REMARK    6  A    between atoms: C7_11  and  O3_12 
REMARK    7  A    between atoms: O3_12  and  C8_13 
ROOT
HETATM    1  C5  UNL     1      23.260   3.541  21.115  1.00  0.00     0.095 C 
HETATM    2  C6  UNL     1      23.131   4.788  21.940  1.00  0.00     0.188 C 
HETATM    3  C7  UNL     1      21.801   4.686  22.553  1.00  0.00     0.226 C 
HETATM    4  C10 UNL     1      21.491   3.201  22.603  1.00  0.00     0.203 C 
HETATM    5  O5  UNL     1      20.130   3.109  22.847  1.00  0.00    -0.342 OA
HETATM    6  C11 UNL     1      19.994   1.777  23.280  1.00  0.00     0.181 C 
HETATM    7  C12 UNL     1      19.928   0.942  22.033  1.00  0.00     0.051 C 
HETATM    8  C13 UNL     1      21.260   0.395  21.611  1.00  0.00     0.089 C 
HETATM    9  C14 UNL     1      22.167   1.379  20.978  1.00  0.00     0.028 C 
HETATM   10  C15 UNL     1      21.918   2.803  21.250  1.00  0.00     0.089 C 
HETATM   11  C16 UNL     1      21.962  -0.272  22.762  1.00  0.00     0.265 C 
HETATM   12  O6  UNL     1      22.690  -1.269  22.631  1.00  0.00    -0.265 OA
HETATM   13  O7  UNL     1      21.767   0.277  24.006  1.00  0.00    -0.287 OA
HETATM   14  C17 UNL     1      21.237   1.585  24.080  1.00  0.00     0.302 C 
HETATM   15  O8  UNL     1      22.165   2.511  23.556  1.00  0.00    -0.319 OA
ENDROOT
BRANCH   1  16
HETATM   16  C4  UNL     1      23.423   3.819  19.642  1.00  0.00     0.041 C 
BRANCH  16  17
HETATM   17  C3  UNL     1      23.631   5.288  19.355  1.00  0.00     0.003 C 
BRANCH  17  18
HETATM   18  C2  UNL     1      24.393   5.381  18.050  1.00  0.00    -0.004 C 
HETATM   19  C1  UNL     1      24.550   6.811  17.589  1.00  0.00     0.005 C 
ENDBRANCH  17  18
ENDBRANCH  16  17
ENDBRANCH   1  16
BRANCH   1  20
HETATM   20  O1  UNL     1      24.252   2.750  21.640  1.00  0.00    -0.387 OA
ATOM     21  H1  UNL     1      25.125   2.989  21.350  1.00  0.00     0.210 HD
ENDBRANCH   1  20
BRANCH   2  22
HETATM   22  O2  UNL     1      24.198   4.940  22.793  1.00  0.00    -0.390 OA
ATOM     23  H2  UNL     1      24.551   4.101  23.062  1.00  0.00     0.210 HD
ENDBRANCH   2  22
BRANCH   3  24
HETATM   24  O3  UNL     1      21.531   5.395  23.693  1.00  0.00    -0.308 OA
BRANCH  24  25
HETATM   25  C8  UNL     1      20.558   6.342  23.873  1.00  0.00     0.255 C 
HETATM   26  C9  UNL     1      20.693   7.722  23.366  1.00  0.00     0.126 C 
HETATM   27  O4  UNL     1      19.564   5.927  24.498  1.00  0.00    -0.266 OA
ENDBRANCH  24  25
ENDBRANCH   3  24
TORSDOF 7
ENDMDL
