MODEL 1
REMARK VINA RESULT: -7.411721551      0.000      0.000
REMARK  8 active torsions:
REMARK  status: ('A' for Active; 'I' for Inactive)
REMARK    1  A    between atoms: O1_2  and  C2_3 
REMARK    2  A    between atoms: C2_3  and  C3_5 
REMARK    3  A    between atoms: C5_7  and  O3_8 
REMARK    4  A    between atoms: C6_10  and  C7_11 
REMARK    5  A    between atoms: C8_12  and  C9_13 
REMARK    6  A    between atoms: C11_15  and  O4_16 
REMARK    7  A    between atoms: C15_22  and  O6_23 
REMARK    8  A    between atoms: O6_23  and  C16_24 
ROOT
HETATM    1  C9  UNL     1      24.500   2.924  19.788  1.00  0.00     0.033 C 
HETATM    2  C10 UNL     1      24.539   3.408  18.345  1.00  0.00     0.025 C 
HETATM    3  C11 UNL     1      25.885   2.507  20.153  1.00  0.00     0.133 C 
HETATM    4  C12 UNL     1      26.342   1.459  19.159  1.00  0.00     0.040 C 
HETATM    5  C13 UNL     1      25.423   0.279  19.106  1.00  0.00     0.083 C 
HETATM    6  C14 UNL     1      23.999   0.658  19.128  1.00  0.00     0.157 C 
HETATM    7  O5  UNL     1      23.216  -0.048  18.504  1.00  0.00    -0.295 OA
HETATM    8  C15 UNL     1      23.485   1.823  19.850  1.00  0.00     0.215 C 
ENDROOT
BRANCH   1   9
HETATM    9  C8  UNL     1      24.066   4.129  20.597  1.00  0.00    -0.015 C 
HETATM   10  C7  UNL     1      23.460   5.146  20.015  1.00  0.00    -0.022 C 
BRANCH  10  11
HETATM   11  C6  UNL     1      23.019   6.336  20.752  1.00  0.00     0.045 C 
HETATM   12  C5  UNL     1      21.971   7.120  19.981  1.00  0.00     0.149 C 
HETATM   13  C4  UNL     1      21.299   7.909  21.009  1.00  0.00     0.018 C 
HETATM   14  C3  UNL     1      21.443   7.315  22.179  1.00  0.00     0.017 C 
HETATM   15  C18 UNL     1      22.251   6.043  22.023  1.00  0.00     0.056 C 
BRANCH  12  16
HETATM   16  O3  UNL     1      22.588   7.900  19.005  1.00  0.00    -0.391 OA
ATOM     17  H3  UNL     1      23.067   7.388  18.363  1.00  0.00     0.210 HD
ENDBRANCH  12  16
BRANCH  14  18
HETATM   18  C2  UNL     1      20.915   7.796  23.449  1.00  0.00     0.288 C 
HETATM   19  O2  UNL     1      20.708   9.012  23.674  1.00  0.00    -0.260 OA
BRANCH  18  20
HETATM   20  O1  UNL     1      20.632   6.882  24.440  1.00  0.00    -0.323 OA
HETATM   21  C1  UNL     1      19.536   7.011  25.328  1.00  0.00     0.213 C 
ENDBRANCH  18  20
ENDBRANCH  14  18
ENDBRANCH  10  11
ENDBRANCH   1   9
BRANCH   3  22
HETATM   22  O4  UNL     1      26.034   2.096  21.462  1.00  0.00    -0.394 OA
ATOM     23  H4  UNL     1      26.674   2.590  21.961  1.00  0.00     0.210 HD
ENDBRANCH   3  22
BRANCH   8  24
HETATM   24  O6  UNL     1      23.098   1.476  21.144  1.00  0.00    -0.307 OA
BRANCH  24  25
HETATM   25  C16 UNL     1      21.758   1.400  21.501  1.00  0.00     0.255 C 
HETATM   26  C17 UNL     1      20.942   2.592  21.843  1.00  0.00     0.126 C 
HETATM   27  O7  UNL     1      21.251   0.244  21.521  1.00  0.00    -0.266 OA
ENDBRANCH  24  25
ENDBRANCH   8  24
TORSDOF 8
ENDMDL
MODEL 2
REMARK VINA RESULT: -7.361390778      0.976      1.276
REMARK  8 active torsions:
REMARK  status: ('A' for Active; 'I' for Inactive)
REMARK    1  A    between atoms: O1_2  and  C2_3 
REMARK    2  A    between atoms: C2_3  and  C3_5 
REMARK    3  A    between atoms: C5_7  and  O3_8 
REMARK    4  A    between atoms: C6_10  and  C7_11 
REMARK    5  A    between atoms: C8_12  and  C9_13 
REMARK    6  A    between atoms: C11_15  and  O4_16 
REMARK    7  A    between atoms: C15_22  and  O6_23 
REMARK    8  A    between atoms: O6_23  and  C16_24 
ROOT
HETATM    1  C9  UNL     1      24.409   2.998  20.134  1.00  0.00     0.033 C 
HETATM    2  C10 UNL     1      24.464   3.763  18.820  1.00  0.00     0.025 C 
HETATM    3  C11 UNL     1      25.795   2.538  20.439  1.00  0.00     0.133 C 
HETATM    4  C12 UNL     1      26.291   1.719  19.264  1.00  0.00     0.040 C 
HETATM    5  C13 UNL     1      25.398   0.561  18.953  1.00  0.00     0.083 C 
HETATM    6  C14 UNL     1      23.966   0.904  19.020  1.00  0.00     0.157 C 
HETATM    7  O5  UNL     1      23.210   0.326  18.249  1.00  0.00    -0.295 OA
HETATM    8  C15 UNL     1      23.415   1.891  19.950  1.00  0.00     0.215 C 
ENDROOT
BRANCH   1   9
HETATM    9  C8  UNL     1      23.935   4.007  21.159  1.00  0.00    -0.015 C 
HETATM   10  C7  UNL     1      23.188   5.032  20.798  1.00  0.00    -0.022 C 
BRANCH  10  11
HETATM   11  C6  UNL     1      22.703   6.038  21.750  1.00  0.00     0.045 C 
HETATM   12  C5  UNL     1      21.790   7.052  21.082  1.00  0.00     0.149 C 
HETATM   13  C4  UNL     1      21.024   7.615  22.191  1.00  0.00     0.018 C 
HETATM   14  C3  UNL     1      20.998   6.750  23.187  1.00  0.00     0.017 C 
HETATM   15  C18 UNL     1      21.771   5.501  22.815  1.00  0.00     0.056 C 
BRANCH  12  16
HETATM   16  O3  UNL     1      22.553   8.000  20.404  1.00  0.00    -0.391 OA
ATOM     17  H3  UNL     1      23.462   7.745  20.300  1.00  0.00     0.210 HD
ENDBRANCH  12  16
BRANCH  14  18
HETATM   18  C2  UNL     1      20.333   6.946  24.468  1.00  0.00     0.288 C 
HETATM   19  O2  UNL     1      20.638   6.288  25.491  1.00  0.00    -0.260 OA
BRANCH  18  20
HETATM   20  O1  UNL     1      19.333   7.889  24.562  1.00  0.00    -0.323 OA
HETATM   21  C1  UNL     1      19.140   8.709  25.701  1.00  0.00     0.213 C 
ENDBRANCH  18  20
ENDBRANCH  14  18
ENDBRANCH  10  11
ENDBRANCH   1   9
BRANCH   3  22
HETATM   22  O4  UNL     1      25.928   1.874  21.640  1.00  0.00    -0.394 OA
ATOM     23  H4  UNL     1      26.351   1.025  21.578  1.00  0.00     0.210 HD
ENDBRANCH   3  22
BRANCH   8  24
HETATM   24  O6  UNL     1      23.011   1.283  21.139  1.00  0.00    -0.307 OA
BRANCH  24  25
HETATM   25  C16 UNL     1      21.670   1.202  21.488  1.00  0.00     0.255 C 
HETATM   26  C17 UNL     1      21.049  -0.027  22.042  1.00  0.00     0.126 C 
HETATM   27  O7  UNL     1      20.984   2.248  21.309  1.00  0.00    -0.266 OA
ENDBRANCH  24  25
ENDBRANCH   8  24
TORSDOF 8
ENDMDL
MODEL 3
REMARK VINA RESULT: -7.310413773      2.478      3.254
REMARK  8 active torsions:
REMARK  status: ('A' for Active; 'I' for Inactive)
REMARK    1  A    between atoms: O1_2  and  C2_3 
REMARK    2  A    between atoms: C2_3  and  C3_5 
REMARK    3  A    between atoms: C5_7  and  O3_8 
REMARK    4  A    between atoms: C6_10  and  C7_11 
REMARK    5  A    between atoms: C8_12  and  C9_13 
REMARK    6  A    between atoms: C11_15  and  O4_16 
REMARK    7  A    between atoms: C15_22  and  O6_23 
REMARK    8  A    between atoms: O6_23  and  C16_24 
ROOT
HETATM    1  C9  UNL     1      23.745   3.819  20.010  1.00  0.00     0.033 C 
HETATM    2  C10 UNL     1      24.572   3.520  18.768  1.00  0.00     0.025 C 
HETATM    3  C11 UNL     1      24.686   3.877  21.166  1.00  0.00     0.133 C 
HETATM    4  C12 UNL     1      25.445   2.566  21.225  1.00  0.00     0.040 C 
HETATM    5  C13 UNL     1      24.538   1.382  21.331  1.00  0.00     0.083 C 
HETATM    6  C14 UNL     1      23.361   1.478  20.448  1.00  0.00     0.157 C 
HETATM    7  O5  UNL     1      22.920   0.435  19.980  1.00  0.00    -0.295 OA
HETATM    8  C15 UNL     1      22.707   2.743  20.109  1.00  0.00     0.215 C 
ENDROOT
BRANCH   1   9
HETATM    9  C8  UNL     1      23.120   5.174  19.752  1.00  0.00    -0.015 C 
HETATM   10  C7  UNL     1      23.707   6.044  18.953  1.00  0.00    -0.022 C 
BRANCH  10  11
HETATM   11  C6  UNL     1      23.144   7.370  18.669  1.00  0.00     0.045 C 
HETATM   12  C5  UNL     1      23.201   7.700  17.187  1.00  0.00     0.149 C 
HETATM   13  C4  UNL     1      22.188   8.739  17.022  1.00  0.00     0.018 C 
HETATM   14  C3  UNL     1      21.297   8.636  17.991  1.00  0.00     0.017 C 
HETATM   15  C18 UNL     1      21.655   7.488  18.912  1.00  0.00     0.056 C 
BRANCH  12  16
HETATM   16  O3  UNL     1      24.484   8.124  16.846  1.00  0.00    -0.391 OA
ATOM     17  H3  UNL     1      24.694   8.988  17.179  1.00  0.00     0.210 HD
ENDBRANCH  12  16
BRANCH  14  18
HETATM   18  C2  UNL     1      20.133   9.494  18.171  1.00  0.00     0.288 C 
HETATM   19  O2  UNL     1      19.381   9.815  17.221  1.00  0.00    -0.260 OA
BRANCH  18  20
HETATM   20  O1  UNL     1      19.846   9.969  19.432  1.00  0.00    -0.323 OA
HETATM   21  C1  UNL     1      19.801   9.145  20.583  1.00  0.00     0.213 C 
ENDBRANCH  18  20
ENDBRANCH  14  18
ENDBRANCH  10  11
ENDBRANCH   1   9
BRANCH   3  22
HETATM   22  O4  UNL     1      24.096   4.202  22.370  1.00  0.00    -0.394 OA
ATOM     23  H4  UNL     1      24.440   3.728  23.119  1.00  0.00     0.210 HD
ENDBRANCH   3  22
BRANCH   8  24
HETATM   24  O6  UNL     1      21.676   3.025  21.006  1.00  0.00    -0.307 OA
BRANCH  24  25
HETATM   25  C16 UNL     1      21.316   2.124  21.998  1.00  0.00     0.255 C 
HETATM   26  C17 UNL     1      20.262   1.095  21.816  1.00  0.00     0.126 C 
HETATM   27  O7  UNL     1      21.942   2.219  23.091  1.00  0.00    -0.266 OA
ENDBRANCH  24  25
ENDBRANCH   8  24
TORSDOF 8
ENDMDL
MODEL 4
REMARK VINA RESULT: -7.223744726      1.962      3.578
REMARK  8 active torsions:
REMARK  status: ('A' for Active; 'I' for Inactive)
REMARK    1  A    between atoms: O1_2  and  C2_3 
REMARK    2  A    between atoms: C2_3  and  C3_5 
REMARK    3  A    between atoms: C5_7  and  O3_8 
REMARK    4  A    between atoms: C6_10  and  C7_11 
REMARK    5  A    between atoms: C8_12  and  C9_13 
REMARK    6  A    between atoms: C11_15  and  O4_16 
REMARK    7  A    between atoms: C15_22  and  O6_23 
REMARK    8  A    between atoms: O6_23  and  C16_24 
ROOT
HETATM    1  C9  UNL     1      24.351   3.130  19.989  1.00  0.00     0.033 C 
HETATM    2  C10 UNL     1      25.437   2.689  20.960  1.00  0.00     0.025 C 
HETATM    3  C11 UNL     1      23.663   1.898  19.504  1.00  0.00     0.133 C 
HETATM    4  C12 UNL     1      24.706   0.981  18.896  1.00  0.00     0.040 C 
HETATM    5  C13 UNL     1      25.473   1.637  17.792  1.00  0.00     0.083 C 
HETATM    6  C14 UNL     1      25.849   3.028  18.101  1.00  0.00     0.157 C 
HETATM    7  O5  UNL     1      26.909   3.441  17.646  1.00  0.00    -0.295 OA
HETATM    8  C15 UNL     1      25.027   3.926  18.914  1.00  0.00     0.215 C 
ENDROOT
BRANCH   1   9
HETATM    9  C8  UNL     1      23.411   3.987  20.810  1.00  0.00    -0.015 C 
HETATM   10  C7  UNL     1      23.868   4.723  21.805  1.00  0.00    -0.022 C 
BRANCH  10  11
HETATM   11  C6  UNL     1      23.000   5.571  22.631  1.00  0.00     0.045 C 
HETATM   12  C5  UNL     1      21.992   6.335  21.788  1.00  0.00     0.149 C 
HETATM   13  C4  UNL     1      20.939   6.684  22.737  1.00  0.00     0.018 C 
HETATM   14  C3  UNL     1      20.958   5.831  23.744  1.00  0.00     0.017 C 
HETATM   15  C18 UNL     1      22.063   4.814  23.547  1.00  0.00     0.056 C 
BRANCH  12  16
HETATM   16  O3  UNL     1      22.604   7.446  21.212  1.00  0.00    -0.391 OA
ATOM     17  H3  UNL     1      23.210   7.886  21.796  1.00  0.00     0.210 HD
ENDBRANCH  12  16
BRANCH  14  18
HETATM   18  C2  UNL     1      20.062   5.849  24.892  1.00  0.00     0.288 C 
HETATM   19  O2  UNL     1      19.173   4.980  25.064  1.00  0.00    -0.260 OA
BRANCH  18  20
HETATM   20  O1  UNL     1      20.194   6.854  25.824  1.00  0.00    -0.323 OA
HETATM   21  C1  UNL     1      19.386   8.018  25.834  1.00  0.00     0.213 C 
ENDBRANCH  18  20
ENDBRANCH  14  18
ENDBRANCH  10  11
ENDBRANCH   1   9
BRANCH   3  22
HETATM   22  O4  UNL     1      22.602   2.130  18.653  1.00  0.00    -0.394 OA
ATOM     23  H4  UNL     1      22.326   1.373  18.150  1.00  0.00     0.210 HD
ENDBRANCH   3  22
BRANCH   8  24
HETATM   24  O6  UNL     1      24.153   4.662  18.113  1.00  0.00    -0.307 OA
BRANCH  24  25
HETATM   25  C16 UNL     1      24.288   6.037  17.975  1.00  0.00     0.255 C 
HETATM   26  C17 UNL     1      25.280   6.666  17.067  1.00  0.00     0.126 C 
HETATM   27  O7  UNL     1      23.509   6.746  18.671  1.00  0.00    -0.266 OA
ENDBRANCH  24  25
ENDBRANCH   8  24
TORSDOF 8
ENDMDL
MODEL 5
REMARK VINA RESULT: -7.149078794      2.038      3.782
REMARK  8 active torsions:
REMARK  status: ('A' for Active; 'I' for Inactive)
REMARK    1  A    between atoms: O1_2  and  C2_3 
REMARK    2  A    between atoms: C2_3  and  C3_5 
REMARK    3  A    between atoms: C5_7  and  O3_8 
REMARK    4  A    between atoms: C6_10  and  C7_11 
REMARK    5  A    between atoms: C8_12  and  C9_13 
REMARK    6  A    between atoms: C11_15  and  O4_16 
REMARK    7  A    between atoms: C15_22  and  O6_23 
REMARK    8  A    between atoms: O6_23  and  C16_24 
ROOT
HETATM    1  C9  UNL     1      23.844   2.869  19.600  1.00  0.00     0.033 C 
HETATM    2  C10 UNL     1      24.589   2.350  20.822  1.00  0.00     0.025 C 
HETATM    3  C11 UNL     1      23.391   1.681  18.819  1.00  0.00     0.133 C 
HETATM    4  C12 UNL     1      24.606   0.837  18.493  1.00  0.00     0.040 C 
HETATM    5  C13 UNL     1      25.653   1.601  17.747  1.00  0.00     0.083 C 
HETATM    6  C14 UNL     1      25.860   2.961  18.277  1.00  0.00     0.157 C 
HETATM    7  O5  UNL     1      26.991   3.425  18.216  1.00  0.00    -0.295 OA
HETATM    8  C15 UNL     1      24.790   3.769  18.865  1.00  0.00     0.215 C 
ENDROOT
BRANCH   1   9
HETATM    9  C8  UNL     1      22.662   3.636  20.154  1.00  0.00    -0.015 C 
HETATM   10  C7  UNL     1      22.742   4.244  21.322  1.00  0.00    -0.022 C 
BRANCH  10  11
HETATM   11  C6  UNL     1      21.627   5.000  21.904  1.00  0.00     0.045 C 
HETATM   12  C5  UNL     1      21.115   4.355  23.181  1.00  0.00     0.149 C 
HETATM   13  C4  UNL     1      20.423   5.442  23.867  1.00  0.00     0.018 C 
HETATM   14  C3  UNL     1      20.910   6.598  23.456  1.00  0.00     0.017 C 
HETATM   15  C18 UNL     1      21.999   6.370  22.428  1.00  0.00     0.056 C 
BRANCH  12  16
HETATM   16  O3  UNL     1      20.282   3.283  22.867  1.00  0.00    -0.391 OA
ATOM     17  H3  UNL     1      20.294   3.056  21.946  1.00  0.00     0.210 HD
ENDBRANCH  12  16
BRANCH  14  18
HETATM   18  C2  UNL     1      20.477   7.914  23.908  1.00  0.00     0.288 C 
HETATM   19  O2  UNL     1      21.154   8.950  23.707  1.00  0.00    -0.260 OA
BRANCH  18  20
HETATM   20  O1  UNL     1      19.279   8.026  24.578  1.00  0.00    -0.323 OA
HETATM   21  C1  UNL     1      19.163   8.574  25.879  1.00  0.00     0.213 C 
ENDBRANCH  18  20
ENDBRANCH  14  18
ENDBRANCH  10  11
ENDBRANCH   1   9
BRANCH   3  22
HETATM   22  O4  UNL     1      22.640   1.982  17.701  1.00  0.00    -0.394 OA
ATOM     23  H4  UNL     1      22.155   1.248  17.342  1.00  0.00     0.210 HD
ENDBRANCH   3  22
BRANCH   8  24
HETATM   24  O6  UNL     1      24.181   4.569  17.897  1.00  0.00    -0.307 OA
BRANCH  24  25
HETATM   25  C16 UNL     1      24.374   5.943  17.872  1.00  0.00     0.255 C 
HETATM   26  C17 UNL     1      23.512   6.896  18.615  1.00  0.00     0.126 C 
HETATM   27  O7  UNL     1      25.340   6.358  17.171  1.00  0.00    -0.266 OA
ENDBRANCH  24  25
ENDBRANCH   8  24
TORSDOF 8
ENDMDL
