MODEL 1
REMARK VINA RESULT: -7.100098561      0.000      0.000
REMARK  10 active torsions:
REMARK  status: ('A' for Active; 'I' for Inactive)
REMARK    1  A    between atoms: O1_2  and  C2_3 
REMARK    2  A    between atoms: C2_3  and  C3_5 
REMARK    3  A    between atoms: C3_5  and  O3_6 
REMARK    4  A    between atoms: C3_5  and  C4_8 
REMARK    5  A    between atoms: C3_5  and  O6_26 
REMARK    6  A    between atoms: C4_8  and  C5_9 
REMARK    7  A    between atoms: C5_9  and  N1_11 
REMARK    8  A    between atoms: C7_12  and  O4_13 
REMARK    9  A    between atoms: C9_16  and  N2_17 
REMARK   10  A    between atoms: C15_23  and  O5_24 
ROOT
HETATM    1  N1  UNL     1      23.117   5.695  21.022  1.00  0.00    -0.302 N 
HETATM    2  C7  UNL     1      22.412   6.656  21.652  1.00  0.00     0.146 A 
HETATM    3  C8  UNL     1      22.273   7.729  20.781  1.00  0.00     0.089 A 
HETATM    4  C9  UNL     1      22.917   7.405  19.591  1.00  0.00     0.086 A 
HETATM    5  C15 UNL     1      23.415   6.136  19.806  1.00  0.00     0.172 A 
ENDROOT
BRANCH   1   6
HETATM    6  C5  UNL     1      23.461   4.411  21.635  1.00  0.00     0.096 C 
HETATM    7  C6  UNL     1      24.935   4.230  21.661  1.00  0.00     0.033 C 
BRANCH   6   8
HETATM    8  C4  UNL     1      22.732   3.282  21.040  1.00  0.00     0.105 C 
BRANCH   8   9
HETATM    9  C3  UNL     1      21.936   2.375  21.880  1.00  0.00     0.254 C 
BRANCH   9  10
HETATM   10  C2  UNL     1      21.181   2.897  23.009  1.00  0.00     0.321 C 
HETATM   11  O2  UNL     1      20.432   3.897  22.847  1.00  0.00    -0.259 OA
BRANCH  10  12
HETATM   12  O1  UNL     1      21.215   2.373  24.295  1.00  0.00    -0.322 OA
HETATM   13  C1  UNL     1      20.074   1.701  24.783  1.00  0.00     0.213 C 
ENDBRANCH  10  12
ENDBRANCH   9  10
BRANCH   9  14
HETATM   14  O3  UNL     1      20.939   1.767  21.038  1.00  0.00    -0.358 OA
ATOM     15  H3  UNL     1      20.266   1.478  21.643  1.00  0.00     0.213 HD
ENDBRANCH   9  14
BRANCH   9  16
HETATM   16  O6  UNL     1      22.728   1.282  22.230  1.00  0.00    -0.352 OA
HETATM   17  C16 UNL     1      23.576   0.816  21.280  1.00  0.00     0.206 C 
ENDBRANCH   9  16
ENDBRANCH   8   9
ENDBRANCH   6   8
ENDBRANCH   1   6
BRANCH   2  18
HETATM   18  O4  UNL     1      21.908   6.605  22.927  1.00  0.00    -0.346 OA
ATOM     19  H4  UNL     1      21.321   7.231  23.333  1.00  0.00     0.219 HD
ENDBRANCH   2  18
BRANCH   5  20
HETATM   20  O5  UNL     1      24.134   5.428  18.863  1.00  0.00    -0.344 OA
ATOM     21  H5  UNL     1      23.777   5.090  18.050  1.00  0.00     0.219 HD
ENDBRANCH   5  20
BRANCH   4  22
HETATM   22  N2  UNL     1      23.007   8.235  18.440  1.00  0.00    -0.377 N 
HETATM   23  C10 UNL     1      24.154   8.348  17.601  1.00  0.00     0.123 C 
HETATM   24  C11 UNL     1      23.789   7.933  16.214  1.00  0.00     0.020 C 
HETATM   25  C12 UNL     1      22.634   8.710  15.694  1.00  0.00     0.003 C 
HETATM   26  C13 UNL     1      21.983   9.617  16.688  1.00  0.00     0.020 C 
HETATM   27  C14 UNL     1      21.857   9.044  18.063  1.00  0.00     0.123 C 
ENDBRANCH   4  22
TORSDOF 10
ENDMDL
MODEL 2
REMARK VINA RESULT: -7.059384322      3.000      4.725
REMARK  10 active torsions:
REMARK  status: ('A' for Active; 'I' for Inactive)
REMARK    1  A    between atoms: O1_2  and  C2_3 
REMARK    2  A    between atoms: C2_3  and  C3_5 
REMARK    3  A    between atoms: C3_5  and  O3_6 
REMARK    4  A    between atoms: C3_5  and  C4_8 
REMARK    5  A    between atoms: C3_5  and  O6_26 
REMARK    6  A    between atoms: C4_8  and  C5_9 
REMARK    7  A    between atoms: C5_9  and  N1_11 
REMARK    8  A    between atoms: C7_12  and  O4_13 
REMARK    9  A    between atoms: C9_16  and  N2_17 
REMARK   10  A    between atoms: C15_23  and  O5_24 
ROOT
HETATM    1  N1  UNL     1      24.081   4.430  20.263  1.00  0.00    -0.302 N 
HETATM    2  C7  UNL     1      23.735   5.181  21.328  1.00  0.00     0.146 A 
HETATM    3  C8  UNL     1      23.447   6.462  20.875  1.00  0.00     0.089 A 
HETATM    4  C9  UNL     1      23.627   6.483  19.495  1.00  0.00     0.086 A 
HETATM    5  C15 UNL     1      24.018   5.197  19.182  1.00  0.00     0.172 A 
ENDROOT
BRANCH   1   6
HETATM    6  C5  UNL     1      24.453   3.017  20.357  1.00  0.00     0.096 C 
HETATM    7  C6  UNL     1      23.936   2.431  21.621  1.00  0.00     0.033 C 
BRANCH   6   8
HETATM    8  C4  UNL     1      25.888   2.789  20.137  1.00  0.00     0.105 C 
BRANCH   8   9
HETATM    9  C3  UNL     1      26.360   2.073  18.942  1.00  0.00     0.254 C 
BRANCH   9  10
HETATM   10  C2  UNL     1      27.520   2.557  18.209  1.00  0.00     0.321 C 
HETATM   11  O2  UNL     1      28.444   3.149  18.828  1.00  0.00    -0.259 OA
BRANCH  10  12
HETATM   12  O1  UNL     1      27.705   2.421  16.839  1.00  0.00    -0.322 OA
HETATM   13  C1  UNL     1      28.817   1.686  16.376  1.00  0.00     0.213 C 
ENDBRANCH  10  12
ENDBRANCH   9  10
BRANCH   9  14
HETATM   14  O3  UNL     1      26.729   0.743  19.351  1.00  0.00    -0.358 OA
ATOM     15  H3  UNL     1      26.777   0.795  20.298  1.00  0.00     0.213 HD
ENDBRANCH   9  14
BRANCH   9  16
HETATM   16  O6  UNL     1      25.268   1.830  18.109  1.00  0.00    -0.352 OA
HETATM   17  C16 UNL     1      24.943   0.531  17.897  1.00  0.00     0.206 C 
ENDBRANCH   9  16
ENDBRANCH   8   9
ENDBRANCH   6   8
ENDBRANCH   1   6
BRANCH   2  18
HETATM   18  O4  UNL     1      23.669   4.774  22.636  1.00  0.00    -0.346 OA
ATOM     19  H4  UNL     1      22.923   4.386  23.076  1.00  0.00     0.219 HD
ENDBRANCH   2  18
BRANCH   5  20
HETATM   20  O5  UNL     1      24.304   4.778  17.898  1.00  0.00    -0.344 OA
ATOM     21  H5  UNL     1      23.963   5.179  17.107  1.00  0.00     0.219 HD
ENDBRANCH   5  20
BRANCH   4  22
HETATM   22  N2  UNL     1      23.435   7.608  18.647  1.00  0.00    -0.377 N 
HETATM   23  C10 UNL     1      24.376   8.075  17.684  1.00  0.00     0.123 C 
HETATM   24  C11 UNL     1      23.752   8.030  16.328  1.00  0.00     0.020 C 
HETATM   25  C12 UNL     1      22.476   8.792  16.285  1.00  0.00     0.003 C 
HETATM   26  C13 UNL     1      22.002   9.307  17.605  1.00  0.00     0.020 C 
HETATM   27  C14 UNL     1      22.193   8.360  18.746  1.00  0.00     0.123 C 
ENDBRANCH   4  22
TORSDOF 10
ENDMDL
MODEL 3
REMARK VINA RESULT: -6.862036410      1.010      1.292
REMARK  10 active torsions:
REMARK  status: ('A' for Active; 'I' for Inactive)
REMARK    1  A    between atoms: O1_2  and  C2_3 
REMARK    2  A    between atoms: C2_3  and  C3_5 
REMARK    3  A    between atoms: C3_5  and  O3_6 
REMARK    4  A    between atoms: C3_5  and  C4_8 
REMARK    5  A    between atoms: C3_5  and  O6_26 
REMARK    6  A    between atoms: C4_8  and  C5_9 
REMARK    7  A    between atoms: C5_9  and  N1_11 
REMARK    8  A    between atoms: C7_12  and  O4_13 
REMARK    9  A    between atoms: C9_16  and  N2_17 
REMARK   10  A    between atoms: C15_23  and  O5_24 
ROOT
HETATM    1  N1  UNL     1      23.618   5.280  20.727  1.00  0.00    -0.302 N 
HETATM    2  C7  UNL     1      23.016   6.172  21.538  1.00  0.00     0.146 A 
HETATM    3  C8  UNL     1      22.771   7.325  20.804  1.00  0.00     0.089 A 
HETATM    4  C9  UNL     1      23.242   7.121  19.510  1.00  0.00     0.086 A 
HETATM    5  C15 UNL     1      23.751   5.839  19.530  1.00  0.00     0.172 A 
ENDROOT
BRANCH   1   6
HETATM    6  C5  UNL     1      24.028   3.942  21.159  1.00  0.00     0.096 C 
HETATM    7  C6  UNL     1      25.219   3.496  20.391  1.00  0.00     0.033 C 
BRANCH   6   8
HETATM    8  C4  UNL     1      22.919   2.977  21.155  1.00  0.00     0.105 C 
BRANCH   8   9
HETATM    9  C3  UNL     1      22.270   2.574  22.411  1.00  0.00     0.254 C 
BRANCH   9  10
HETATM   10  C2  UNL     1      20.832   2.719  22.572  1.00  0.00     0.321 C 
HETATM   11  O2  UNL     1      20.359   3.816  22.971  1.00  0.00    -0.259 OA
BRANCH  10  12
HETATM   12  O1  UNL     1      19.901   1.720  22.316  1.00  0.00    -0.322 OA
HETATM   13  C1  UNL     1      19.122   1.232  23.387  1.00  0.00     0.213 C 
ENDBRANCH  10  12
ENDBRANCH   9  10
BRANCH   9  14
HETATM   14  O3  UNL     1      22.506   1.164  22.588  1.00  0.00    -0.358 OA
ATOM     15  H3  UNL     1      22.656   1.068  23.520  1.00  0.00     0.213 HD
ENDBRANCH   9  14
BRANCH   9  16
HETATM   16  O6  UNL     1      22.983   3.124  23.477  1.00  0.00    -0.352 OA
HETATM   17  C16 UNL     1      23.167   2.330  24.560  1.00  0.00     0.206 C 
ENDBRANCH   9  16
ENDBRANCH   8   9
ENDBRANCH   6   8
ENDBRANCH   1   6
BRANCH   2  18
HETATM   18  O4  UNL     1      22.691   5.996  22.859  1.00  0.00    -0.346 OA
ATOM     19  H4  UNL     1      21.863   5.687  23.206  1.00  0.00     0.219 HD
ENDBRANCH   2  18
BRANCH   5  20
HETATM   20  O5  UNL     1      24.326   5.228  18.433  1.00  0.00    -0.344 OA
ATOM     21  H5  UNL     1      23.851   4.728  17.778  1.00  0.00     0.219 HD
ENDBRANCH   5  20
BRANCH   4  22
HETATM   22  N2  UNL     1      23.183   8.060  18.444  1.00  0.00    -0.377 N 
HETATM   23  C10 UNL     1      24.237   8.313  17.518  1.00  0.00     0.123 C 
HETATM   24  C11 UNL     1      23.757   8.012  16.136  1.00  0.00     0.020 C 
HETATM   25  C12 UNL     1      22.523   8.772  15.805  1.00  0.00     0.003 C 
HETATM   26  C13 UNL     1      21.933   9.545  16.940  1.00  0.00     0.020 C 
HETATM   27  C14 UNL     1      21.967   8.838  18.258  1.00  0.00     0.123 C 
ENDBRANCH   4  22
TORSDOF 10
ENDMDL
MODEL 4
REMARK VINA RESULT: -6.806661088      1.030      1.258
REMARK  10 active torsions:
REMARK  status: ('A' for Active; 'I' for Inactive)
REMARK    1  A    between atoms: O1_2  and  C2_3 
REMARK    2  A    between atoms: C2_3  and  C3_5 
REMARK    3  A    between atoms: C3_5  and  O3_6 
REMARK    4  A    between atoms: C3_5  and  C4_8 
REMARK    5  A    between atoms: C3_5  and  O6_26 
REMARK    6  A    between atoms: C4_8  and  C5_9 
REMARK    7  A    between atoms: C5_9  and  N1_11 
REMARK    8  A    between atoms: C7_12  and  O4_13 
REMARK    9  A    between atoms: C9_16  and  N2_17 
REMARK   10  A    between atoms: C15_23  and  O5_24 
ROOT
HETATM    1  N1  UNL     1      23.253   5.531  20.865  1.00  0.00    -0.302 N 
HETATM    2  C7  UNL     1      22.615   6.479  21.580  1.00  0.00     0.146 A 
HETATM    3  C8  UNL     1      22.460   7.597  20.771  1.00  0.00     0.089 A 
HETATM    4  C9  UNL     1      23.025   7.313  19.530  1.00  0.00     0.086 A 
HETATM    5  C15 UNL     1      23.495   6.022  19.657  1.00  0.00     0.172 A 
ENDROOT
BRANCH   1   6
HETATM    6  C5  UNL     1      23.591   4.208  21.396  1.00  0.00     0.096 C 
HETATM    7  C6  UNL     1      25.061   4.085  21.574  1.00  0.00     0.033 C 
BRANCH   6   8
HETATM    8  C4  UNL     1      22.989   3.113  20.622  1.00  0.00     0.105 C 
BRANCH   8   9
HETATM    9  C3  UNL     1      22.541   1.882  21.288  1.00  0.00     0.254 C 
BRANCH   9  10
HETATM   10  C2  UNL     1      22.532   1.795  22.740  1.00  0.00     0.321 C 
HETATM   11  O2  UNL     1      21.498   2.127  23.377  1.00  0.00    -0.259 OA
BRANCH  10  12
HETATM   12  O1  UNL     1      23.603   1.367  23.515  1.00  0.00    -0.322 OA
HETATM   13  C1  UNL     1      23.912   2.077  24.694  1.00  0.00     0.213 C 
ENDBRANCH  10  12
ENDBRANCH   9  10
BRANCH   9  14
HETATM   14  O3  UNL     1      21.168   1.661  20.912  1.00  0.00    -0.358 OA
ATOM     15  H3  UNL     1      21.179   1.685  19.963  1.00  0.00     0.213 HD
ENDBRANCH   9  14
BRANCH   9  16
HETATM   16  O6  UNL     1      23.184   0.795  20.694  1.00  0.00    -0.352 OA
HETATM   17  C16 UNL     1      23.697   0.995  19.456  1.00  0.00     0.206 C 
ENDBRANCH   9  16
ENDBRANCH   8   9
ENDBRANCH   6   8
ENDBRANCH   1   6
BRANCH   2  18
HETATM   18  O4  UNL     1      22.183   6.380  22.878  1.00  0.00    -0.346 OA
ATOM     19  H4  UNL     1      21.424   6.804  23.260  1.00  0.00     0.219 HD
ENDBRANCH   2  18
BRANCH   5  20
HETATM   20  O5  UNL     1      24.137   5.341  18.640  1.00  0.00    -0.344 OA
ATOM     21  H5  UNL     1      24.990   5.568  18.289  1.00  0.00     0.219 HD
ENDBRANCH   5  20
BRANCH   4  22
HETATM   22  N2  UNL     1      23.075   8.196  18.416  1.00  0.00    -0.377 N 
HETATM   23  C10 UNL     1      24.193   8.349  17.546  1.00  0.00     0.123 C 
HETATM   24  C11 UNL     1      23.781   7.998  16.154  1.00  0.00     0.020 C 
HETATM   25  C12 UNL     1      22.608   8.796  15.710  1.00  0.00     0.003 C 
HETATM   26  C13 UNL     1      21.992   9.655  16.766  1.00  0.00     0.020 C 
HETATM   27  C14 UNL     1      21.913   9.019  18.117  1.00  0.00     0.123 C 
ENDBRANCH   4  22
TORSDOF 10
ENDMDL
MODEL 5
REMARK VINA RESULT: -6.765546885      0.810      1.485
REMARK  10 active torsions:
REMARK  status: ('A' for Active; 'I' for Inactive)
REMARK    1  A    between atoms: O1_2  and  C2_3 
REMARK    2  A    between atoms: C2_3  and  C3_5 
REMARK    3  A    between atoms: C3_5  and  O3_6 
REMARK    4  A    between atoms: C3_5  and  C4_8 
REMARK    5  A    between atoms: C3_5  and  O6_26 
REMARK    6  A    between atoms: C4_8  and  C5_9 
REMARK    7  A    between atoms: C5_9  and  N1_11 
REMARK    8  A    between atoms: C7_12  and  O4_13 
REMARK    9  A    between atoms: C9_16  and  N2_17 
REMARK   10  A    between atoms: C15_23  and  O5_24 
ROOT
HETATM    1  N1  UNL     1      23.378   5.328  20.851  1.00  0.00    -0.302 N 
HETATM    2  C7  UNL     1      22.845   6.288  21.634  1.00  0.00     0.146 A 
HETATM    3  C8  UNL     1      22.688   7.434  20.865  1.00  0.00     0.089 A 
HETATM    4  C9  UNL     1      23.143   7.155  19.579  1.00  0.00     0.086 A 
HETATM    5  C15 UNL     1      23.553   5.839  19.639  1.00  0.00     0.172 A 
ENDROOT
BRANCH   1   6
HETATM    6  C5  UNL     1      23.685   3.977  21.324  1.00  0.00     0.096 C 
HETATM    7  C6  UNL     1      25.059   3.588  20.914  1.00  0.00     0.033 C 
BRANCH   6   8
HETATM    8  C4  UNL     1      22.653   2.997  20.958  1.00  0.00     0.105 C 
BRANCH   8   9
HETATM    9  C3  UNL     1      21.779   2.409  21.984  1.00  0.00     0.254 C 
BRANCH   9  10
HETATM   10  C2  UNL     1      22.355   1.740  23.141  1.00  0.00     0.321 C 
HETATM   11  O2  UNL     1      23.161   0.788  22.970  1.00  0.00    -0.259 OA
BRANCH  10  12
HETATM   12  O1  UNL     1      22.083   2.068  24.463  1.00  0.00    -0.322 OA
HETATM   13  C1  UNL     1      21.357   1.152  25.253  1.00  0.00     0.213 C 
ENDBRANCH  10  12
ENDBRANCH   9  10
BRANCH   9  14
HETATM   14  O3  UNL     1      20.992   3.475  22.547  1.00  0.00    -0.358 OA
ATOM     15  H3  UNL     1      21.499   4.258  22.370  1.00  0.00     0.213 HD
ENDBRANCH   9  14
BRANCH   9  16
HETATM   16  O6  UNL     1      20.808   1.633  21.350  1.00  0.00    -0.352 OA
HETATM   17  C16 UNL     1      19.604   1.543  21.966  1.00  0.00     0.206 C 
ENDBRANCH   9  16
ENDBRANCH   8   9
ENDBRANCH   6   8
ENDBRANCH   1   6
BRANCH   2  18
HETATM   18  O4  UNL     1      22.507   6.176  22.959  1.00  0.00    -0.346 OA
ATOM     19  H4  UNL     1      22.527   6.865  23.612  1.00  0.00     0.219 HD
ENDBRANCH   2  18
BRANCH   5  20
HETATM   20  O5  UNL     1      24.081   5.155  18.561  1.00  0.00    -0.344 OA
ATOM     21  H5  UNL     1      24.804   5.459  18.026  1.00  0.00     0.219 HD
ENDBRANCH   5  20
BRANCH   4  22
HETATM   22  N2  UNL     1      23.155   8.064  18.485  1.00  0.00    -0.377 N 
HETATM   23  C10 UNL     1      24.245   8.243  17.584  1.00  0.00     0.123 C 
HETATM   24  C11 UNL     1      23.791   7.923  16.197  1.00  0.00     0.020 C 
HETATM   25  C12 UNL     1      22.602   8.725  15.809  1.00  0.00     0.003 C 
HETATM   26  C13 UNL     1      22.016   9.557  16.904  1.00  0.00     0.020 C 
HETATM   27  C14 UNL     1      21.981   8.889  18.241  1.00  0.00     0.123 C 
ENDBRANCH   4  22
TORSDOF 10
ENDMDL
