MODEL 1
REMARK VINA RESULT: -7.243390794      0.000      0.000
REMARK  11 active torsions:
REMARK  status: ('A' for Active; 'I' for Inactive)
REMARK    1  A    between atoms: C3_3  and  C4_4 
REMARK    2  A    between atoms: C4_4  and  C5_5 
REMARK    3  A    between atoms: C4_4  and  C8_14 
REMARK    4  A    between atoms: C6_6  and  C7_7 
REMARK    5  A    between atoms: C7_7  and  O1_8 
REMARK    6  A    between atoms: N1_10  and  O2_12 
REMARK    7  A    between atoms: C9_17  and  C10_18 
REMARK    8  A    between atoms: C10_18  and  O4_20 
REMARK    9  A    between atoms: C13_23  and  O5_24 
REMARK   10  A    between atoms: C14_26  and  O6_27 
REMARK   11  A    between atoms: O6_27  and  C15_28 
ROOT
HETATM    1  C8  UNL     1      22.522   6.839  20.576  1.00  0.00     0.058 A 
HETATM    2  N2  UNL     1      22.438   7.518  19.420  1.00  0.00    -0.351 N 
ATOM      3  H2  UNL     1      23.022   7.217  18.640  1.00  0.00     0.166 HD
HETATM    4  C9  UNL     1      21.629   8.567  19.239  1.00  0.00     0.111 A 
HETATM    5  C12 UNL     1      20.823   9.004  20.273  1.00  0.00     0.075 A 
HETATM    6  C13 UNL     1      20.869   8.353  21.462  1.00  0.00     0.104 A 
HETATM    7  C14 UNL     1      21.731   7.254  21.621  1.00  0.00     0.135 A 
ENDROOT
BRANCH   1   8
HETATM    8  C4  UNL     1      23.469   5.658  20.713  1.00  0.00     0.083 C 
BRANCH   8   9
HETATM    9  C3  UNL     1      24.243   5.777  21.966  1.00  0.00    -0.016 C 
HETATM   10  C2  UNL     1      24.632   4.711  22.629  1.00  0.00    -0.034 C 
HETATM   11  C1  UNL     1      24.349   3.314  22.210  1.00  0.00     0.036 C 
ENDBRANCH   8   9
BRANCH   8  12
HETATM   12  C5  UNL     1      24.268   5.491  19.499  1.00  0.00    -0.008 C 
HETATM   13  C6  UNL     1      24.246   4.505  18.665  1.00  0.00     0.054 C 
BRANCH  13  14
HETATM   14  C7  UNL     1      23.452   3.312  18.683  1.00  0.00     0.159 C 
HETATM   15  N1  UNL     1      23.751   2.281  18.014  1.00  0.00    -0.248 N 
ATOM     16  H1  UNL     1      24.598   2.329  17.449  1.00  0.00     0.196 HD
BRANCH  14  17
HETATM   17  O1  UNL     1      22.274   3.238  19.466  1.00  0.00    -0.345 OA
ATOM     18  H1  UNL     1      21.741   2.452  19.468  1.00  0.00     0.219 HD
ENDBRANCH  14  17
BRANCH  15  19
HETATM   19  O2  UNL     1      23.057   1.119  17.976  1.00  0.00    -0.288 OA
ATOM     20  H2  UNL     1      23.350   0.298  17.596  1.00  0.00     0.244 HD
ENDBRANCH  15  19
ENDBRANCH  13  14
ENDBRANCH   8  12
ENDBRANCH   1   8
BRANCH   7  21
HETATM   21  O6  UNL     1      21.785   6.585  22.827  1.00  0.00    -0.274 OA
BRANCH  21  22
HETATM   22  C15 UNL     1      20.876   5.669  23.294  1.00  0.00     0.260 C 
HETATM   23  C16 UNL     1      20.909   4.221  22.960  1.00  0.00     0.126 C 
HETATM   24  O7  UNL     1      19.958   6.076  24.051  1.00  0.00    -0.265 OA
ENDBRANCH  21  22
ENDBRANCH   7  21
BRANCH   4  25
HETATM   25  C10 UNL     1      21.549   9.294  17.976  1.00  0.00     0.309 C 
HETATM   26  O3  UNL     1      20.443   9.771  17.613  1.00  0.00    -0.258 OA
BRANCH  25  27
HETATM   27  O4  UNL     1      22.646   9.476  17.164  1.00  0.00    -0.321 OA
HETATM   28  C11 UNL     1      22.820   8.721  15.977  1.00  0.00     0.213 C 
ENDBRANCH  25  27
ENDBRANCH   4  25
BRANCH   6  29
HETATM   29  O5  UNL     1      20.100   8.708  22.575  1.00  0.00    -0.358 OA
ATOM     30  H5  UNL     1      20.468   8.994  23.404  1.00  0.00     0.217 HD
ENDBRANCH   6  29
TORSDOF 11
ENDMDL
MODEL 2
REMARK VINA RESULT: -6.958451229      3.103      4.549
REMARK  11 active torsions:
REMARK  status: ('A' for Active; 'I' for Inactive)
REMARK    1  A    between atoms: C3_3  and  C4_4 
REMARK    2  A    between atoms: C4_4  and  C5_5 
REMARK    3  A    between atoms: C4_4  and  C8_14 
REMARK    4  A    between atoms: C6_6  and  C7_7 
REMARK    5  A    between atoms: C7_7  and  O1_8 
REMARK    6  A    between atoms: N1_10  and  O2_12 
REMARK    7  A    between atoms: C9_17  and  C10_18 
REMARK    8  A    between atoms: C10_18  and  O4_20 
REMARK    9  A    between atoms: C13_23  and  O5_24 
REMARK   10  A    between atoms: C14_26  and  O6_27 
REMARK   11  A    between atoms: O6_27  and  C15_28 
ROOT
HETATM    1  C8  UNL     1      21.441   4.508  22.676  1.00  0.00     0.058 A 
HETATM    2  N2  UNL     1      22.246   4.686  21.616  1.00  0.00    -0.351 N 
ATOM      3  H2  UNL     1      22.619   3.860  21.149  1.00  0.00     0.166 HD
HETATM    4  C9  UNL     1      22.585   5.890  21.141  1.00  0.00     0.111 A 
HETATM    5  C12 UNL     1      22.099   7.033  21.747  1.00  0.00     0.075 A 
HETATM    6  C13 UNL     1      21.281   6.909  22.822  1.00  0.00     0.104 A 
HETATM    7  C14 UNL     1      20.944   5.630  23.297  1.00  0.00     0.135 A 
ENDROOT
BRANCH   1   8
HETATM    8  C4  UNL     1      21.101   3.110  23.165  1.00  0.00     0.083 C 
BRANCH   8   9
HETATM    9  C3  UNL     1      22.060   2.697  24.210  1.00  0.00    -0.016 C 
HETATM   10  C2  UNL     1      21.652   2.363  25.415  1.00  0.00    -0.034 C 
HETATM   11  C1  UNL     1      20.231   2.362  25.846  1.00  0.00     0.036 C 
ENDBRANCH   8   9
BRANCH   8  12
HETATM   12  C5  UNL     1      20.969   2.186  22.039  1.00  0.00    -0.008 C 
HETATM   13  C6  UNL     1      19.957   1.441  21.739  1.00  0.00     0.054 C 
BRANCH  13  14
HETATM   14  C7  UNL     1      18.696   1.304  22.406  1.00  0.00     0.159 C 
HETATM   15  N1  UNL     1      17.623   1.795  21.948  1.00  0.00    -0.248 N 
ATOM     16  H1  UNL     1      17.689   2.303  21.067  1.00  0.00     0.196 HD
BRANCH  14  17
HETATM   17  O1  UNL     1      18.596   0.599  23.631  1.00  0.00    -0.345 OA
ATOM     18  H1  UNL     1      17.972  -0.109  23.734  1.00  0.00     0.219 HD
ENDBRANCH  14  17
BRANCH  15  19
HETATM   19  O2  UNL     1      16.396   1.711  22.514  1.00  0.00    -0.288 OA
ATOM     20  H2  UNL     1      16.030   2.305  23.158  1.00  0.00     0.244 HD
ENDBRANCH  15  19
ENDBRANCH  13  14
ENDBRANCH   8  12
ENDBRANCH   1   8
BRANCH   7  21
HETATM   21  O6  UNL     1      20.113   5.494  24.390  1.00  0.00    -0.274 OA
BRANCH  21  22
HETATM   22  C15 UNL     1      20.284   6.072  25.623  1.00  0.00     0.260 C 
HETATM   23  C16 UNL     1      21.477   5.857  26.483  1.00  0.00     0.126 C 
HETATM   24  O7  UNL     1      19.378   6.831  26.055  1.00  0.00    -0.265 OA
ENDBRANCH  21  22
ENDBRANCH   7  21
BRANCH   4  25
HETATM   25  C10 UNL     1      23.461   6.065  19.987  1.00  0.00     0.309 C 
HETATM   26  O3  UNL     1      24.242   5.132  19.665  1.00  0.00    -0.258 OA
BRANCH  25  27
HETATM   27  O4  UNL     1      23.464   7.219  19.236  1.00  0.00    -0.321 OA
HETATM   28  C11 UNL     1      24.201   7.313  18.029  1.00  0.00     0.213 C 
ENDBRANCH  25  27
ENDBRANCH   4  25
BRANCH   6  29
HETATM   29  O5  UNL     1      20.733   7.995  23.513  1.00  0.00    -0.358 OA
ATOM     30  H5  UNL     1      20.093   8.591  23.140  1.00  0.00     0.217 HD
ENDBRANCH   6  29
TORSDOF 11
ENDMDL
MODEL 3
REMARK VINA RESULT: -6.934661186      3.518      5.163
REMARK  11 active torsions:
REMARK  status: ('A' for Active; 'I' for Inactive)
REMARK    1  A    between atoms: C3_3  and  C4_4 
REMARK    2  A    between atoms: C4_4  and  C5_5 
REMARK    3  A    between atoms: C4_4  and  C8_14 
REMARK    4  A    between atoms: C6_6  and  C7_7 
REMARK    5  A    between atoms: C7_7  and  O1_8 
REMARK    6  A    between atoms: N1_10  and  O2_12 
REMARK    7  A    between atoms: C9_17  and  C10_18 
REMARK    8  A    between atoms: C10_18  and  O4_20 
REMARK    9  A    between atoms: C13_23  and  O5_24 
REMARK   10  A    between atoms: C14_26  and  O6_27 
REMARK   11  A    between atoms: O6_27  and  C15_28 
ROOT
HETATM    1  C8  UNL     1      21.169   3.501  23.146  1.00  0.00     0.058 A 
HETATM    2  N2  UNL     1      21.976   4.173  22.308  1.00  0.00    -0.351 N 
ATOM      3  H2  UNL     1      22.546   3.637  21.654  1.00  0.00     0.166 HD
HETATM    4  C9  UNL     1      22.070   5.507  22.286  1.00  0.00     0.111 A 
HETATM    5  C12 UNL     1      21.313   6.267  23.156  1.00  0.00     0.075 A 
HETATM    6  C13 UNL     1      20.481   5.638  24.024  1.00  0.00     0.104 A 
HETATM    7  C14 UNL     1      20.405   4.235  24.023  1.00  0.00     0.135 A 
ENDROOT
BRANCH   1   8
HETATM    8  C4  UNL     1      21.116   1.983  23.120  1.00  0.00     0.083 C 
BRANCH   8   9
HETATM    9  C3  UNL     1      22.404   1.427  23.582  1.00  0.00    -0.016 C 
HETATM   10  C2  UNL     1      22.448   0.408  24.412  1.00  0.00    -0.034 C 
HETATM   11  C1  UNL     1      21.249  -0.276  24.960  1.00  0.00     0.036 C 
ENDBRANCH   8   9
BRANCH   8  12
HETATM   12  C5  UNL     1      20.661   1.503  21.815  1.00  0.00    -0.008 C 
HETATM   13  C6  UNL     1      19.449   1.273  21.433  1.00  0.00     0.054 C 
BRANCH  13  14
HETATM   14  C7  UNL     1      18.221   1.417  22.158  1.00  0.00     0.159 C 
HETATM   15  N1  UNL     1      17.113   1.640  21.591  1.00  0.00    -0.248 N 
ATOM     16  H1  UNL     1      17.124   1.716  20.574  1.00  0.00     0.196 HD
BRANCH  14  17
HETATM   17  O1  UNL     1      18.198   1.313  23.571  1.00  0.00    -0.345 OA
ATOM     18  H1  UNL     1      17.418   1.543  24.062  1.00  0.00     0.219 HD
ENDBRANCH  14  17
BRANCH  15  19
HETATM   19  O2  UNL     1      15.913   1.789  22.201  1.00  0.00    -0.288 OA
ATOM     20  H2  UNL     1      15.106   1.341  21.975  1.00  0.00     0.244 HD
ENDBRANCH  15  19
ENDBRANCH  13  14
ENDBRANCH   8  12
ENDBRANCH   1   8
BRANCH   7  21
HETATM   21  O6  UNL     1      19.562   3.586  24.902  1.00  0.00    -0.274 OA
BRANCH  21  22
HETATM   22  C15 UNL     1      19.691   3.534  26.268  1.00  0.00     0.260 C 
HETATM   23  C16 UNL     1      20.790   2.825  26.972  1.00  0.00     0.126 C 
HETATM   24  O7  UNL     1      18.827   4.121  26.968  1.00  0.00    -0.265 OA
ENDBRANCH  21  22
ENDBRANCH   7  21
BRANCH   4  25
HETATM   25  C10 UNL     1      22.952   6.220  21.367  1.00  0.00     0.309 C 
HETATM   26  O3  UNL     1      23.910   5.603  20.835  1.00  0.00    -0.258 OA
BRANCH  25  27
HETATM   27  O4  UNL     1      22.771   7.551  21.062  1.00  0.00    -0.321 OA
HETATM   28  C11 UNL     1      22.414   7.966  19.755  1.00  0.00     0.213 C 
ENDBRANCH  25  27
ENDBRANCH   4  25
BRANCH   6  29
HETATM   29  O5  UNL     1      19.671   6.305  24.948  1.00  0.00    -0.358 OA
ATOM     30  H5  UNL     1      18.866   5.945  25.303  1.00  0.00     0.217 HD
ENDBRANCH   6  29
TORSDOF 11
ENDMDL
MODEL 4
REMARK VINA RESULT: -6.900533222      3.030      4.704
REMARK  11 active torsions:
REMARK  status: ('A' for Active; 'I' for Inactive)
REMARK    1  A    between atoms: C3_3  and  C4_4 
REMARK    2  A    between atoms: C4_4  and  C5_5 
REMARK    3  A    between atoms: C4_4  and  C8_14 
REMARK    4  A    between atoms: C6_6  and  C7_7 
REMARK    5  A    between atoms: C7_7  and  O1_8 
REMARK    6  A    between atoms: N1_10  and  O2_12 
REMARK    7  A    between atoms: C9_17  and  C10_18 
REMARK    8  A    between atoms: C10_18  and  O4_20 
REMARK    9  A    between atoms: C13_23  and  O5_24 
REMARK   10  A    between atoms: C14_26  and  O6_27 
REMARK   11  A    between atoms: O6_27  and  C15_28 
ROOT
HETATM    1  C8  UNL     1      21.519   4.543  22.501  1.00  0.00     0.058 A 
HETATM    2  N2  UNL     1      22.413   4.568  21.499  1.00  0.00    -0.351 N 
ATOM      3  H2  UNL     1      22.757   3.678  21.137  1.00  0.00     0.166 HD
HETATM    4  C9  UNL     1      22.876   5.696  20.951  1.00  0.00     0.111 A 
HETATM    5  C12 UNL     1      22.434   6.921  21.415  1.00  0.00     0.075 A 
HETATM    6  C13 UNL     1      21.530   6.953  22.426  1.00  0.00     0.104 A 
HETATM    7  C14 UNL     1      21.063   5.749  22.980  1.00  0.00     0.135 A 
ENDROOT
BRANCH   1   8
HETATM    8  C4  UNL     1      21.039   3.223  23.080  1.00  0.00     0.083 C 
BRANCH   8   9
HETATM    9  C3  UNL     1      21.870   2.853  24.243  1.00  0.00    -0.016 C 
HETATM   10  C2  UNL     1      21.340   2.696  25.436  1.00  0.00    -0.034 C 
HETATM   11  C1  UNL     1      19.896   2.866  25.739  1.00  0.00     0.036 C 
ENDBRANCH   8   9
BRANCH   8  12
HETATM   12  C5  UNL     1      20.941   2.205  22.034  1.00  0.00    -0.008 C 
HETATM   13  C6  UNL     1      19.950   1.413  21.789  1.00  0.00     0.054 C 
BRANCH  13  14
HETATM   14  C7  UNL     1      18.686   1.301  22.454  1.00  0.00     0.159 C 
HETATM   15  N1  UNL     1      17.617   1.781  21.978  1.00  0.00    -0.248 N 
ATOM     16  H1  UNL     1      17.688   2.264  21.083  1.00  0.00     0.196 HD
BRANCH  14  17
HETATM   17  O1  UNL     1      18.579   0.632  23.699  1.00  0.00    -0.345 OA
ATOM     18  H1  UNL     1      18.085  -0.176  23.775  1.00  0.00     0.219 HD
ENDBRANCH  14  17
BRANCH  15  19
HETATM   19  O2  UNL     1      16.387   1.719  22.541  1.00  0.00    -0.288 OA
ATOM     20  H2  UNL     1      15.858   2.456  22.825  1.00  0.00     0.244 HD
ENDBRANCH  15  19
ENDBRANCH  13  14
ENDBRANCH   8  12
ENDBRANCH   1   8
BRANCH   7  21
HETATM   21  O6  UNL     1      20.144   5.772  24.010  1.00  0.00    -0.274 OA
BRANCH  21  22
HETATM   22  C15 UNL     1      20.245   6.484  25.178  1.00  0.00     0.260 C 
HETATM   23  C16 UNL     1      21.350   6.321  26.158  1.00  0.00     0.126 C 
HETATM   24  O7  UNL     1      19.348   7.326  25.440  1.00  0.00    -0.265 OA
ENDBRANCH  21  22
ENDBRANCH   7  21
BRANCH   4  25
HETATM   25  C10 UNL     1      23.848   5.704  19.862  1.00  0.00     0.309 C 
HETATM   26  O3  UNL     1      23.897   6.699  19.093  1.00  0.00    -0.258 OA
BRANCH  25  27
HETATM   27  O4  UNL     1      24.716   4.658  19.646  1.00  0.00    -0.321 OA
HETATM   28  C11 UNL     1      24.398   3.609  18.747  1.00  0.00     0.213 C 
ENDBRANCH  25  27
ENDBRANCH   4  25
BRANCH   6  29
HETATM   29  O5  UNL     1      21.015   8.132  22.973  1.00  0.00    -0.358 OA
ATOM     30  H5  UNL     1      20.282   8.160  23.577  1.00  0.00     0.217 HD
ENDBRANCH   6  29
TORSDOF 11
ENDMDL
MODEL 5
REMARK VINA RESULT: -6.899959094      2.766      5.668
REMARK  11 active torsions:
REMARK  status: ('A' for Active; 'I' for Inactive)
REMARK    1  A    between atoms: C3_3  and  C4_4 
REMARK    2  A    between atoms: C4_4  and  C5_5 
REMARK    3  A    between atoms: C4_4  and  C8_14 
REMARK    4  A    between atoms: C6_6  and  C7_7 
REMARK    5  A    between atoms: C7_7  and  O1_8 
REMARK    6  A    between atoms: N1_10  and  O2_12 
REMARK    7  A    between atoms: C9_17  and  C10_18 
REMARK    8  A    between atoms: C10_18  and  O4_20 
REMARK    9  A    between atoms: C13_23  and  O5_24 
REMARK   10  A    between atoms: C14_26  and  O6_27 
REMARK   11  A    between atoms: O6_27  and  C15_28 
ROOT
HETATM    1  C8  UNL     1      22.256   7.074  22.340  1.00  0.00     0.058 A 
HETATM    2  N2  UNL     1      21.981   7.813  21.253  1.00  0.00    -0.351 N 
ATOM      3  H2  UNL     1      21.378   8.628  21.363  1.00  0.00     0.166 HD
HETATM    4  C9  UNL     1      22.456   7.537  20.033  1.00  0.00     0.111 A 
HETATM    5  C12 UNL     1      23.275   6.440  19.844  1.00  0.00     0.075 A 
HETATM    6  C13 UNL     1      23.585   5.660  20.910  1.00  0.00     0.104 A 
HETATM    7  C14 UNL     1      23.070   5.977  22.178  1.00  0.00     0.135 A 
ENDROOT
BRANCH   1   8
HETATM    8  C4  UNL     1      21.678   7.444  23.695  1.00  0.00     0.083 C 
BRANCH   8   9
HETATM    9  C3  UNL     1      20.292   6.943  23.805  1.00  0.00    -0.016 C 
HETATM   10  C2  UNL     1      19.954   6.074  24.731  1.00  0.00    -0.034 C 
HETATM   11  C1  UNL     1      20.892   5.518  25.739  1.00  0.00     0.036 C 
ENDBRANCH   8   9
BRANCH   8  12
HETATM   12  C5  UNL     1      21.846   8.874  23.957  1.00  0.00    -0.008 C 
HETATM   13  C6  UNL     1      21.225   9.599  24.826  1.00  0.00     0.054 C 
BRANCH  13  14
HETATM   14  C7  UNL     1      20.211   9.227  25.768  1.00  0.00     0.159 C 
HETATM   15  N1  UNL     1      18.980   9.446  25.572  1.00  0.00    -0.248 N 
ATOM     16  H1  UNL     1      18.729   9.908  24.699  1.00  0.00     0.196 HD
BRANCH  14  17
HETATM   17  O1  UNL     1      20.552   8.583  26.983  1.00  0.00    -0.345 OA
ATOM     18  H1  UNL     1      20.650   7.639  27.022  1.00  0.00     0.219 HD
ENDBRANCH  14  17
BRANCH  15  19
HETATM   19  O2  UNL     1      17.964   9.127  26.408  1.00  0.00    -0.288 OA
ATOM     20  H2  UNL     1      17.085   9.489  26.392  1.00  0.00     0.244 HD
ENDBRANCH  15  19
ENDBRANCH  13  14
ENDBRANCH   8  12
ENDBRANCH   1   8
BRANCH   7  21
HETATM   21  O6  UNL     1      23.378   5.189  23.268  1.00  0.00    -0.274 OA
BRANCH  21  22
HETATM   22  C15 UNL     1      23.003   3.883  23.463  1.00  0.00     0.260 C 
HETATM   23  C16 UNL     1      21.729   3.302  22.968  1.00  0.00     0.126 C 
HETATM   24  O7  UNL     1      23.783   3.130  24.101  1.00  0.00    -0.265 OA
ENDBRANCH  21  22
ENDBRANCH   7  21
BRANCH   4  25
HETATM   25  C10 UNL     1      22.147   8.351  18.862  1.00  0.00     0.309 C 
HETATM   26  O3  UNL     1      21.130   9.092  18.884  1.00  0.00    -0.258 OA
BRANCH  25  27
HETATM   27  O4  UNL     1      22.932   8.337  17.731  1.00  0.00    -0.321 OA
HETATM   28  C11 UNL     1      22.557   9.049  16.564  1.00  0.00     0.213 C 
ENDBRANCH  25  27
ENDBRANCH   4  25
BRANCH   6  29
HETATM   29  O5  UNL     1      24.403   4.528  20.835  1.00  0.00    -0.358 OA
ATOM     30  H5  UNL     1      24.404   3.832  21.482  1.00  0.00     0.217 HD
ENDBRANCH   6  29
TORSDOF 11
ENDMDL
