MODEL 1
REMARK VINA RESULT: -6.773212341      0.000      0.000
REMARK  9 active torsions:
REMARK  status: ('A' for Active; 'I' for Inactive)
REMARK    1  A    between atoms: C2_2  and  C3_3 
REMARK    2  A    between atoms: C2_2  and  C4_7 
REMARK    3  A    between atoms: C5_8  and  O1_9 
REMARK    4  A    between atoms: C7_11  and  O2_12 
REMARK    5  A    between atoms: C9_16  and  C10_17 
REMARK    6  A    between atoms: C10_17  and  O4_18 
REMARK    7  A    between atoms: C10_17  and  O5_20 
REMARK    8  A    between atoms: O5_20  and  C11_21 
REMARK    9  A    between atoms: C16_27  and  O7_28 
ROOT
HETATM    1  C4  UNL     1      21.336   6.625  24.045  1.00  0.00     0.045 A 
HETATM    2  C5  UNL     1      20.660   7.731  23.629  1.00  0.00     0.118 A 
HETATM    3  C7  UNL     1      20.916   8.232  22.369  1.00  0.00     0.135 A 
HETATM    4  C8  UNL     1      21.838   7.621  21.558  1.00  0.00     0.128 A 
HETATM    5  O3  UNL     1      22.072   8.096  20.386  1.00  0.00    -0.306 OA
HETATM    6  C9  UNL     1      22.928   7.596  19.539  1.00  0.00     0.112 A 
HETATM    7  C13 UNL     1      23.639   6.481  19.908  1.00  0.00     0.093 A 
HETATM    8  C14 UNL     1      23.462   5.882  21.160  1.00  0.00     0.190 A 
HETATM    9  O6  UNL     1      24.110   4.875  21.491  1.00  0.00    -0.287 OA
HETATM   10  C15 UNL     1      22.528   6.488  21.991  1.00  0.00     0.085 A 
HETATM   11  C16 UNL     1      22.282   5.974  23.248  1.00  0.00     0.099 A 
ENDROOT
BRANCH   1  12
HETATM   12  C2  UNL     1      21.094   6.060  25.365  1.00  0.00    -0.015 C 
HETATM   13  C1  UNL     1      21.925   6.224  26.361  1.00  0.00     0.026 C 
BRANCH  12  14
HETATM   14  C3  UNL     1      19.893   5.277  25.550  1.00  0.00     0.092 C 
HETATM   15  N1  UNL     1      18.891   5.743  26.172  1.00  0.00    -0.407 N 
ATOM     16  H12 UNL     1      18.949   6.691  26.542  1.00  0.00     0.155 HD
ATOM     17  H11 UNL     1      18.043   5.191  26.302  1.00  0.00     0.155 HD
ENDBRANCH  12  14
ENDBRANCH   1  12
BRANCH   2  18
HETATM   18  O1  UNL     1      19.739   8.348  24.436  1.00  0.00    -0.352 OA
HETATM   19  C6  UNL     1      20.128   9.323  25.365  1.00  0.00     0.210 C 
ENDBRANCH   2  18
BRANCH  11  20
HETATM   20  O7  UNL     1      22.929   4.854  23.741  1.00  0.00    -0.354 OA
HETATM   21  C17 UNL     1      22.279   3.594  23.590  1.00  0.00     0.210 C 
ENDBRANCH  11  20
BRANCH   3  22
HETATM   22  O2  UNL     1      20.210   9.360  21.973  1.00  0.00    -0.356 OA
ATOM     23  H2  UNL     1      19.778   9.332  21.127  1.00  0.00     0.218 HD
ENDBRANCH   3  22
BRANCH   6  24
HETATM   24  C10 UNL     1      23.144   8.200  18.202  1.00  0.00     0.315 C 
BRANCH  24  25
HETATM   25  O4  UNL     1      23.973   7.412  17.405  1.00  0.00    -0.365 OA
ATOM     26  H4  UNL     1      23.680   7.391  16.501  1.00  0.00     0.213 HD
ENDBRANCH  24  25
BRANCH  24  27
HETATM   27  O5  UNL     1      21.942   8.368  17.529  1.00  0.00    -0.355 OA
BRANCH  27  28
HETATM   28  C11 UNL     1      21.576   9.713  17.504  1.00  0.00     0.167 C 
HETATM   29  C12 UNL     1      20.164   9.900  18.014  1.00  0.00     0.033 C 
ENDBRANCH  27  28
ENDBRANCH  24  27
ENDBRANCH   6  24
TORSDOF 9
ENDMDL
MODEL 2
REMARK VINA RESULT: -6.730736088      2.934      5.186
REMARK  9 active torsions:
REMARK  status: ('A' for Active; 'I' for Inactive)
REMARK    1  A    between atoms: C2_2  and  C3_3 
REMARK    2  A    between atoms: C2_2  and  C4_7 
REMARK    3  A    between atoms: C5_8  and  O1_9 
REMARK    4  A    between atoms: C7_11  and  O2_12 
REMARK    5  A    between atoms: C9_16  and  C10_17 
REMARK    6  A    between atoms: C10_17  and  O4_18 
REMARK    7  A    between atoms: C10_17  and  O5_20 
REMARK    8  A    between atoms: O5_20  and  C11_21 
REMARK    9  A    between atoms: C16_27  and  O7_28 
ROOT
HETATM    1  C4  UNL     1      23.776   3.234  21.235  1.00  0.00     0.045 A 
HETATM    2  C5  UNL     1      24.539   2.880  20.165  1.00  0.00     0.118 A 
HETATM    3  C7  UNL     1      24.742   3.804  19.160  1.00  0.00     0.135 A 
HETATM    4  C8  UNL     1      24.180   5.052  19.245  1.00  0.00     0.128 A 
HETATM    5  O3  UNL     1      24.373   5.905  18.302  1.00  0.00    -0.306 OA
HETATM    6  C9  UNL     1      23.884   7.114  18.283  1.00  0.00     0.112 A 
HETATM    7  C13 UNL     1      23.104   7.522  19.337  1.00  0.00     0.093 A 
HETATM    8  C14 UNL     1      22.831   6.673  20.416  1.00  0.00     0.190 A 
HETATM    9  O6  UNL     1      22.123   7.045  21.366  1.00  0.00    -0.287 OA
HETATM   10  C15 UNL     1      23.398   5.407  20.344  1.00  0.00     0.085 A 
HETATM   11  C16 UNL     1      23.186   4.495  21.359  1.00  0.00     0.099 A 
ENDROOT
BRANCH   1  12
HETATM   12  C2  UNL     1      23.539   2.293  22.321  1.00  0.00    -0.015 C 
HETATM   13  C1  UNL     1      22.398   1.673  22.475  1.00  0.00     0.026 C 
BRANCH  12  14
HETATM   14  C3  UNL     1      24.614   2.067  23.261  1.00  0.00     0.092 C 
HETATM   15  N1  UNL     1      25.416   1.094  23.124  1.00  0.00    -0.407 N 
ATOM     16  H12 UNL     1      25.287   0.468  22.330  1.00  0.00     0.155 HD
ATOM     17  H11 UNL     1      26.175   0.935  23.787  1.00  0.00     0.155 HD
ENDBRANCH  12  14
ENDBRANCH   1  12
BRANCH   2  18
HETATM   18  O1  UNL     1      25.103   1.634  20.072  1.00  0.00    -0.352 OA
HETATM   19  C6  UNL     1      24.423   0.577  19.451  1.00  0.00     0.210 C 
ENDBRANCH   2  18
BRANCH  11  20
HETATM   20  O7  UNL     1      22.423   4.780  22.478  1.00  0.00    -0.354 OA
HETATM   21  C17 UNL     1      23.099   5.268  23.634  1.00  0.00     0.210 C 
ENDBRANCH  11  20
BRANCH   3  22
HETATM   22  O2  UNL     1      25.527   3.415  18.082  1.00  0.00    -0.356 OA
ATOM     23  H2  UNL     1      26.467   3.381  18.214  1.00  0.00     0.218 HD
ENDBRANCH   3  22
BRANCH   6  24
HETATM   24  C10 UNL     1      24.150   8.043  17.159  1.00  0.00     0.315 C 
BRANCH  24  25
HETATM   25  O4  UNL     1      23.814   7.481  15.929  1.00  0.00    -0.365 OA
ATOM     26  H4  UNL     1      24.526   7.546  15.303  1.00  0.00     0.213 HD
ENDBRANCH  24  25
BRANCH  24  27
HETATM   27  O5  UNL     1      23.427   9.219  17.301  1.00  0.00    -0.355 OA
BRANCH  27  28
HETATM   28  C11 UNL     1      22.264   9.178  16.532  1.00  0.00     0.167 C 
HETATM   29  C12 UNL     1      21.097   9.783  17.279  1.00  0.00     0.033 C 
ENDBRANCH  27  28
ENDBRANCH  24  27
ENDBRANCH   6  24
TORSDOF 9
ENDMDL
MODEL 3
REMARK VINA RESULT: -6.529982698      8.715     11.009
REMARK  9 active torsions:
REMARK  status: ('A' for Active; 'I' for Inactive)
REMARK    1  A    between atoms: C2_2  and  C3_3 
REMARK    2  A    between atoms: C2_2  and  C4_7 
REMARK    3  A    between atoms: C5_8  and  O1_9 
REMARK    4  A    between atoms: C7_11  and  O2_12 
REMARK    5  A    between atoms: C9_16  and  C10_17 
REMARK    6  A    between atoms: C10_17  and  O4_18 
REMARK    7  A    between atoms: C10_17  and  O5_20 
REMARK    8  A    between atoms: O5_20  and  C11_21 
REMARK    9  A    between atoms: C16_27  and  O7_28 
ROOT
HETATM    1  C4  UNL     1      26.637  -0.247  17.025  1.00  0.00     0.045 A 
HETATM    2  C5  UNL     1      27.159   0.906  17.526  1.00  0.00     0.118 A 
HETATM    3  C7  UNL     1      27.723   1.814  16.654  1.00  0.00     0.135 A 
HETATM    4  C8  UNL     1      27.755   1.551  15.308  1.00  0.00     0.128 A 
HETATM    5  O3  UNL     1      28.285   2.402  14.503  1.00  0.00    -0.306 OA
HETATM    6  C9  UNL     1      28.370   2.249  13.211  1.00  0.00     0.112 A 
HETATM    7  C13 UNL     1      27.861   1.102  12.652  1.00  0.00     0.093 A 
HETATM    8  C14 UNL     1      27.261   0.111  13.437  1.00  0.00     0.190 A 
HETATM    9  O6  UNL     1      26.805  -0.926  12.928  1.00  0.00    -0.287 OA
HETATM   10  C15 UNL     1      27.219   0.367  14.802  1.00  0.00     0.085 A 
HETATM   11  C16 UNL     1      26.649  -0.552  15.661  1.00  0.00     0.099 A 
ENDROOT
BRANCH   1  12
HETATM   12  C2  UNL     1      26.027  -1.231  17.908  1.00  0.00    -0.015 C 
HETATM   13  C1  UNL     1      26.698  -2.237  18.407  1.00  0.00     0.026 C 
BRANCH  12  14
HETATM   14  C3  UNL     1      24.623  -1.080  18.215  1.00  0.00     0.092 C 
HETATM   15  N1  UNL     1      24.238  -0.545  19.299  1.00  0.00    -0.407 N 
ATOM     16  H12 UNL     1      24.947  -0.220  19.956  1.00  0.00     0.155 HD
ATOM     17  H11 UNL     1      23.247  -0.437  19.515  1.00  0.00     0.155 HD
ENDBRANCH  12  14
ENDBRANCH   1  12
BRANCH   2  18
HETATM   18  O1  UNL     1      27.132   1.174  18.870  1.00  0.00    -0.352 OA
HETATM   19  C6  UNL     1      26.302   2.176  19.392  1.00  0.00     0.210 C 
ENDBRANCH   2  18
BRANCH  11  20
HETATM   20  O7  UNL     1      26.098  -1.745  15.227  1.00  0.00    -0.354 OA
HETATM   21  C17 UNL     1      26.963  -2.873  15.118  1.00  0.00     0.210 C 
ENDBRANCH  11  20
BRANCH   3  22
HETATM   22  O2  UNL     1      28.246   2.982  17.195  1.00  0.00    -0.356 OA
ATOM     23  H2  UNL     1      29.175   2.995  17.393  1.00  0.00     0.218 HD
ENDBRANCH   3  22
BRANCH   6  24
HETATM   24  C10 UNL     1      28.996   3.276  12.345  1.00  0.00     0.315 C 
BRANCH  24  25
HETATM   25  O4  UNL     1      28.086   4.264  11.970  1.00  0.00    -0.365 OA
ATOM     26  H4  UNL     1      28.111   4.432  11.035  1.00  0.00     0.213 HD
ENDBRANCH  24  25
BRANCH  24  27
HETATM   27  O5  UNL     1      30.055   3.898  12.991  1.00  0.00    -0.355 OA
BRANCH  27  28
HETATM   28  C11 UNL     1      30.899   4.517  12.070  1.00  0.00     0.167 C 
HETATM   29  C12 UNL     1      31.706   3.495  11.301  1.00  0.00     0.033 C 
ENDBRANCH  27  28
ENDBRANCH  24  27
ENDBRANCH   6  24
TORSDOF 9
ENDMDL
MODEL 4
REMARK VINA RESULT: -6.475045888      1.345      3.407
REMARK  9 active torsions:
REMARK  status: ('A' for Active; 'I' for Inactive)
REMARK    1  A    between atoms: C2_2  and  C3_3 
REMARK    2  A    between atoms: C2_2  and  C4_7 
REMARK    3  A    between atoms: C5_8  and  O1_9 
REMARK    4  A    between atoms: C7_11  and  O2_12 
REMARK    5  A    between atoms: C9_16  and  C10_17 
REMARK    6  A    between atoms: C10_17  and  O4_18 
REMARK    7  A    between atoms: C10_17  and  O5_20 
REMARK    8  A    between atoms: O5_20  and  C11_21 
REMARK    9  A    between atoms: C16_27  and  O7_28 
ROOT
HETATM    1  C4  UNL     1      21.901   5.799  24.190  1.00  0.00     0.045 A 
HETATM    2  C5  UNL     1      22.821   4.878  23.795  1.00  0.00     0.118 A 
HETATM    3  C7  UNL     1      23.394   5.004  22.546  1.00  0.00     0.135 A 
HETATM    4  C8  UNL     1      23.034   6.040  21.723  1.00  0.00     0.128 A 
HETATM    5  O3  UNL     1      23.571   6.148  20.559  1.00  0.00    -0.306 OA
HETATM    6  C9  UNL     1      23.299   7.090  19.700  1.00  0.00     0.112 A 
HETATM    7  C13 UNL     1      22.374   8.045  20.046  1.00  0.00     0.093 A 
HETATM    8  C14 UNL     1      21.731   8.023  21.288  1.00  0.00     0.190 A 
HETATM    9  O6  UNL     1      20.893   8.887  21.596  1.00  0.00    -0.287 OA
HETATM   10  C15 UNL     1      22.089   6.980  22.134  1.00  0.00     0.085 A 
HETATM   11  C16 UNL     1      21.507   6.870  23.381  1.00  0.00     0.099 A 
ENDROOT
BRANCH   1  12
HETATM   12  C2  UNL     1      21.274   5.708  25.502  1.00  0.00    -0.015 C 
HETATM   13  C1  UNL     1      21.896   6.048  26.601  1.00  0.00     0.026 C 
BRANCH  12  14
HETATM   14  C3  UNL     1      19.921   5.203  25.566  1.00  0.00     0.092 C 
HETATM   15  N1  UNL     1      18.964   5.929  25.971  1.00  0.00    -0.407 N 
ATOM     16  H12 UNL     1      19.170   6.887  26.253  1.00  0.00     0.155 HD
ATOM     17  H11 UNL     1      18.010   5.573  26.016  1.00  0.00     0.155 HD
ENDBRANCH  12  14
ENDBRANCH   1  12
BRANCH   2  18
HETATM   18  O1  UNL     1      23.184   3.838  24.612  1.00  0.00    -0.352 OA
HETATM   19  C6  UNL     1      22.529   2.601  24.542  1.00  0.00     0.210 C 
ENDBRANCH   2  18
BRANCH  11  20
HETATM   20  O7  UNL     1      20.565   7.767  23.853  1.00  0.00    -0.354 OA
HETATM   21  C17 UNL     1      21.028   8.863  24.637  1.00  0.00     0.210 C 
ENDBRANCH  11  20
BRANCH   3  22
HETATM   22  O2  UNL     1      24.331   4.050  22.172  1.00  0.00    -0.356 OA
ATOM     23  H2  UNL     1      24.822   4.207  21.374  1.00  0.00     0.218 HD
ENDBRANCH   3  22
BRANCH   6  24
HETATM   24  C10 UNL     1      23.960   7.150  18.375  1.00  0.00     0.315 C 
BRANCH  24  25
HETATM   25  O4  UNL     1      24.240   5.878  17.876  1.00  0.00    -0.365 OA
ATOM     26  H4  UNL     1      24.389   5.891  16.938  1.00  0.00     0.213 HD
ENDBRANCH  24  25
BRANCH  24  27
HETATM   27  O5  UNL     1      23.162   7.804  17.447  1.00  0.00    -0.355 OA
BRANCH  27  28
HETATM   28  C11 UNL     1      23.940   8.353  16.428  1.00  0.00     0.167 C 
HETATM   29  C12 UNL     1      23.226   8.275  15.098  1.00  0.00     0.033 C 
ENDBRANCH  27  28
ENDBRANCH  24  27
ENDBRANCH   6  24
TORSDOF 9
ENDMDL
MODEL 5
REMARK VINA RESULT: -6.466723467      1.495      1.819
REMARK  9 active torsions:
REMARK  status: ('A' for Active; 'I' for Inactive)
REMARK    1  A    between atoms: C2_2  and  C3_3 
REMARK    2  A    between atoms: C2_2  and  C4_7 
REMARK    3  A    between atoms: C5_8  and  O1_9 
REMARK    4  A    between atoms: C7_11  and  O2_12 
REMARK    5  A    between atoms: C9_16  and  C10_17 
REMARK    6  A    between atoms: C10_17  and  O4_18 
REMARK    7  A    between atoms: C10_17  and  O5_20 
REMARK    8  A    between atoms: O5_20  and  C11_21 
REMARK    9  A    between atoms: C16_27  and  O7_28 
ROOT
HETATM    1  C4  UNL     1      21.192   6.908  25.508  1.00  0.00     0.045 A 
HETATM    2  C5  UNL     1      20.790   8.151  25.127  1.00  0.00     0.118 A 
HETATM    3  C7  UNL     1      21.037   8.561  23.833  1.00  0.00     0.135 A 
HETATM    4  C8  UNL     1      21.679   7.726  22.955  1.00  0.00     0.128 A 
HETATM    5  O3  UNL     1      21.908   8.119  21.751  1.00  0.00    -0.306 OA
HETATM    6  C9  UNL     1      22.511   7.408  20.840  1.00  0.00     0.112 A 
HETATM    7  C13 UNL     1      22.941   6.146  21.172  1.00  0.00     0.093 A 
HETATM    8  C14 UNL     1      22.743   5.620  22.453  1.00  0.00     0.190 A 
HETATM    9  O6  UNL     1      23.136   4.480  22.750  1.00  0.00    -0.287 OA
HETATM   10  C15 UNL     1      22.090   6.454  23.352  1.00  0.00     0.085 A 
HETATM   11  C16 UNL     1      21.849   6.027  24.643  1.00  0.00     0.099 A 
ENDROOT
BRANCH   1  12
HETATM   12  C2  UNL     1      20.948   6.431  26.863  1.00  0.00    -0.015 C 
HETATM   13  C1  UNL     1      19.810   5.898  27.224  1.00  0.00     0.026 C 
BRANCH  12  14
HETATM   14  C3  UNL     1      22.013   6.580  27.829  1.00  0.00     0.092 C 
HETATM   15  N1  UNL     1      22.770   5.609  28.132  1.00  0.00    -0.407 N 
ATOM     16  H12 UNL     1      22.611   4.711  27.675  1.00  0.00     0.155 HD
ATOM     17  H11 UNL     1      23.521   5.714  28.813  1.00  0.00     0.155 HD
ENDBRANCH  12  14
ENDBRANCH   1  12
BRANCH   2  18
HETATM   18  O1  UNL     1      20.150   8.991  26.001  1.00  0.00    -0.352 OA
HETATM   19  C6  UNL     1      18.754   9.118  25.991  1.00  0.00     0.210 C 
ENDBRANCH   2  18
BRANCH  11  20
HETATM   20  O7  UNL     1      22.228   4.778  25.104  1.00  0.00    -0.354 OA
HETATM   21  C17 UNL     1      21.272   3.724  25.021  1.00  0.00     0.210 C 
ENDBRANCH  11  20
BRANCH   3  22
HETATM   22  O2  UNL     1      20.613   9.834  23.474  1.00  0.00    -0.356 OA
ATOM     23  H2  UNL     1      21.265  10.525  23.460  1.00  0.00     0.218 HD
ENDBRANCH   3  22
BRANCH   6  24
HETATM   24  C10 UNL     1      22.739   7.928  19.471  1.00  0.00     0.315 C 
BRANCH  24  25
HETATM   25  O4  UNL     1      23.659   7.152  18.767  1.00  0.00    -0.365 OA
ATOM     26  H4  UNL     1      24.375   7.676  18.425  1.00  0.00     0.213 HD
ENDBRANCH  24  25
BRANCH  24  27
HETATM   27  O5  UNL     1      21.558   7.952  18.742  1.00  0.00    -0.355 OA
BRANCH  27  28
HETATM   28  C11 UNL     1      21.332   9.222  18.212  1.00  0.00     0.167 C 
HETATM   29  C12 UNL     1      20.152   9.888  18.883  1.00  0.00     0.033 C 
ENDBRANCH  27  28
ENDBRANCH  24  27
ENDBRANCH   6  24
TORSDOF 9
ENDMDL
