MODEL 1
REMARK VINA RESULT: -7.667174991      0.000      0.000
REMARK  8 active torsions:
REMARK  status: ('A' for Active; 'I' for Inactive)
REMARK       I    between atoms: C1_2  and  N1_3 
REMARK    1  A    between atoms: C1_2  and  C7_16 
REMARK    2  A    between atoms: N1_3  and  N2_5 
REMARK    3  A    between atoms: C2_7  and  C3_8 
REMARK    4  A    between atoms: C6_11  and  N3_12 
REMARK    5  A    between atoms: C7_16  and  C8_17 
REMARK    6  A    between atoms: C7_16  and  C9_24 
REMARK    7  A    between atoms: C8_17  and  O5_18 
REMARK    8  A    between atoms: N4_20  and  O6_22 
ROOT
HETATM    1  O1  UNL     1      24.221   5.692  22.896  1.00  0.00    -0.271 OA
HETATM    2  C1  UNL     1      22.992   5.794  22.575  1.00  0.00     0.248 C 
HETATM    3  N1  UNL     1      22.670   5.879  21.182  1.00  0.00    -0.270 N 
ATOM      4  H1  UNL     1      21.695   5.959  20.896  1.00  0.00     0.190 HD
ENDROOT
BRANCH   2   5
HETATM    5  C7  UNL     1      21.962   5.818  23.653  1.00  0.00     0.160 C 
BRANCH   5   6
HETATM    6  C8  UNL     1      21.291   4.513  23.793  1.00  0.00     0.149 C 
HETATM    7  N4  UNL     1      21.385   3.800  24.887  1.00  0.00    -0.250 N 
ATOM      8  H4  UNL     1      21.945   4.177  25.652  1.00  0.00     0.196 HD
BRANCH   6   9
HETATM    9  O5  UNL     1      20.517   3.943  22.797  1.00  0.00    -0.347 OA
ATOM     10  H5  UNL     1      19.853   4.420  22.312  1.00  0.00     0.219 HD
ENDBRANCH   6   9
BRANCH   7  11
HETATM   11  O6  UNL     1      20.796   2.601  25.076  1.00  0.00    -0.288 OA
ATOM     12  H6  UNL     1      20.465   2.286  25.909  1.00  0.00     0.244 HD
ENDBRANCH   7  11
ENDBRANCH   5   6
BRANCH   5  13
HETATM   13  C9  UNL     1      21.058   6.972  23.371  1.00  0.00     0.006 C 
HETATM   14  C10 UNL     1      19.848   7.083  24.233  1.00  0.00     0.006 C 
HETATM   15  C11 UNL     1      20.181   7.289  25.689  1.00  0.00     0.000 C 
HETATM   16  C12 UNL     1      21.144   8.449  25.814  1.00  0.00     0.000 C 
HETATM   17  C13 UNL     1      21.322   9.192  24.524  1.00  0.00     0.000 C 
HETATM   18  C14 UNL     1      21.892   8.237  23.501  1.00  0.00     0.006 C 
ENDBRANCH   5  13
ENDBRANCH   2   5
BRANCH   3  19
HETATM   19  N2  UNL     1      23.643   5.855  20.243  1.00  0.00    -0.307 N 
HETATM   20  C2  UNL     1      23.899   6.458  19.188  1.00  0.00     0.144 C 
ATOM     21  H2  UNL     1      24.355   5.157  20.458  1.00  0.00     0.186 HD
BRANCH  20  22
HETATM   22  C3  UNL     1      23.162   7.513  18.524  1.00  0.00     0.095 A 
HETATM   23  C4  UNL     1      23.444   8.179  17.355  1.00  0.00     0.043 A 
HETATM   24  C5  UNL     1      22.432   9.091  17.159  1.00  0.00     0.065 A 
HETATM   25  C6  UNL     1      21.564   8.952  18.215  1.00  0.00     0.215 A 
HETATM   26  O4  UNL     1      22.026   8.020  18.991  1.00  0.00    -0.287 OA
BRANCH  25  27
HETATM   27  N3  UNL     1      20.356   9.728  18.399  1.00  0.00    -0.090 N 
HETATM   28  O2  UNL     1      19.661  10.070  17.430  1.00  0.00    -0.530 OA
HETATM   29  O3  UNL     1      19.949  10.105  19.653  1.00  0.00    -0.530 OA
ENDBRANCH  25  27
ENDBRANCH  20  22
ENDBRANCH   3  19
TORSDOF 8
ENDMDL
MODEL 2
REMARK VINA RESULT: -7.604630798      0.963      1.070
REMARK  8 active torsions:
REMARK  status: ('A' for Active; 'I' for Inactive)
REMARK       I    between atoms: C1_2  and  N1_3 
REMARK    1  A    between atoms: C1_2  and  C7_16 
REMARK    2  A    between atoms: N1_3  and  N2_5 
REMARK    3  A    between atoms: C2_7  and  C3_8 
REMARK    4  A    between atoms: C6_11  and  N3_12 
REMARK    5  A    between atoms: C7_16  and  C8_17 
REMARK    6  A    between atoms: C7_16  and  C9_24 
REMARK    7  A    between atoms: C8_17  and  O5_18 
REMARK    8  A    between atoms: N4_20  and  O6_22 
ROOT
HETATM    1  O1  UNL     1      21.802   4.634  21.766  1.00  0.00    -0.271 OA
HETATM    2  C1  UNL     1      22.368   5.612  22.355  1.00  0.00     0.248 C 
HETATM    3  N1  UNL     1      23.483   6.230  21.704  1.00  0.00    -0.270 N 
ATOM      4  H1  UNL     1      23.954   7.016  22.150  1.00  0.00     0.190 HD
ENDROOT
BRANCH   2   5
HETATM    5  C7  UNL     1      21.845   6.060  23.679  1.00  0.00     0.160 C 
BRANCH   5   6
HETATM    6  C8  UNL     1      21.599   4.920  24.580  1.00  0.00     0.149 C 
HETATM    7  N4  UNL     1      22.314   4.723  25.659  1.00  0.00    -0.250 N 
ATOM      8  H4  UNL     1      23.058   5.391  25.862  1.00  0.00     0.196 HD
BRANCH   6   9
HETATM    9  O5  UNL     1      20.608   3.978  24.365  1.00  0.00    -0.347 OA
ATOM     10  H5  UNL     1      20.766   3.041  24.371  1.00  0.00     0.219 HD
ENDBRANCH   6   9
BRANCH   7  11
HETATM   11  O6  UNL     1      22.138   3.700  26.522  1.00  0.00    -0.288 OA
ATOM     12  H6  UNL     1      22.808   3.362  27.104  1.00  0.00     0.244 HD
ENDBRANCH   7  11
ENDBRANCH   5   6
BRANCH   5  13
HETATM   13  C9  UNL     1      20.660   6.928  23.412  1.00  0.00     0.006 C 
HETATM   14  C10 UNL     1      19.854   7.320  24.601  1.00  0.00     0.006 C 
HETATM   15  C11 UNL     1      20.634   8.144  25.595  1.00  0.00     0.000 C 
HETATM   16  C12 UNL     1      21.281   9.303  24.870  1.00  0.00     0.000 C 
HETATM   17  C13 UNL     1      20.804   9.439  23.456  1.00  0.00     0.000 C 
HETATM   18  C14 UNL     1      21.169   8.177  22.709  1.00  0.00     0.006 C 
ENDBRANCH   5  13
ENDBRANCH   2   5
BRANCH   3  19
HETATM   19  N2  UNL     1      23.919   5.784  20.503  1.00  0.00    -0.307 N 
HETATM   20  C2  UNL     1      23.826   6.138  19.317  1.00  0.00     0.144 C 
ATOM     21  H2  UNL     1      24.471   4.931  20.598  1.00  0.00     0.186 HD
BRANCH  20  22
HETATM   22  C3  UNL     1      23.142   7.279  18.743  1.00  0.00     0.095 A 
HETATM   23  C4  UNL     1      23.500   8.075  17.682  1.00  0.00     0.043 A 
HETATM   24  C5  UNL     1      22.512   9.021  17.539  1.00  0.00     0.065 A 
HETATM   25  C6  UNL     1      21.580   8.772  18.518  1.00  0.00     0.215 A 
HETATM   26  O4  UNL     1      21.985   7.746  19.201  1.00  0.00    -0.287 OA
BRANCH  25  27
HETATM   27  N3  UNL     1      20.371   9.542  18.723  1.00  0.00    -0.090 N 
HETATM   28  O2  UNL     1      19.644   9.858  17.769  1.00  0.00    -0.530 OA
HETATM   29  O3  UNL     1      20.000   9.942  19.981  1.00  0.00    -0.530 OA
ENDBRANCH  25  27
ENDBRANCH  20  22
ENDBRANCH   3  19
TORSDOF 8
ENDMDL
MODEL 3
REMARK VINA RESULT: -7.349559688      3.408      5.435
REMARK  8 active torsions:
REMARK  status: ('A' for Active; 'I' for Inactive)
REMARK       I    between atoms: C1_2  and  N1_3 
REMARK    1  A    between atoms: C1_2  and  C7_16 
REMARK    2  A    between atoms: N1_3  and  N2_5 
REMARK    3  A    between atoms: C2_7  and  C3_8 
REMARK    4  A    between atoms: C6_11  and  N3_12 
REMARK    5  A    between atoms: C7_16  and  C8_17 
REMARK    6  A    between atoms: C7_16  and  C9_24 
REMARK    7  A    between atoms: C8_17  and  O5_18 
REMARK    8  A    between atoms: N4_20  and  O6_22 
ROOT
HETATM    1  O1  UNL     1      24.388   5.336  21.930  1.00  0.00    -0.271 OA
HETATM    2  C1  UNL     1      23.801   4.871  20.899  1.00  0.00     0.248 C 
HETATM    3  N1  UNL     1      22.745   5.649  20.325  1.00  0.00    -0.270 N 
ATOM      4  H1  UNL     1      22.259   5.303  19.498  1.00  0.00     0.190 HD
ENDROOT
BRANCH   2   5
HETATM    5  C7  UNL     1      24.239   3.556  20.348  1.00  0.00     0.160 C 
BRANCH   5   6
HETATM    6  C8  UNL     1      24.901   3.708  19.039  1.00  0.00     0.149 C 
HETATM    7  N4  UNL     1      25.974   3.028  18.723  1.00  0.00    -0.250 N 
ATOM      8  H4  UNL     1      26.345   2.380  19.417  1.00  0.00     0.196 HD
BRANCH   6   9
HETATM    9  O5  UNL     1      24.449   4.568  18.052  1.00  0.00    -0.347 OA
ATOM     10  H5  UNL     1      24.869   4.657  17.204  1.00  0.00     0.219 HD
ENDBRANCH   6   9
BRANCH   7  11
HETATM   11  O6  UNL     1      26.623   3.123  17.544  1.00  0.00    -0.288 OA
ATOM     12  H6  UNL     1      27.066   2.403  17.111  1.00  0.00     0.244 HD
ENDBRANCH   7  11
ENDBRANCH   5   6
BRANCH   5  13
HETATM   13  C9  UNL     1      23.047   2.657  20.358  1.00  0.00     0.006 C 
HETATM   14  C10 UNL     1      23.310   1.217  20.085  1.00  0.00     0.006 C 
HETATM   15  C11 UNL     1      24.200   0.576  21.121  1.00  0.00     0.000 C 
HETATM   16  C12 UNL     1      23.636   0.858  22.496  1.00  0.00     0.000 C 
HETATM   17  C13 UNL     1      22.275   1.482  22.444  1.00  0.00     0.000 C 
HETATM   18  C14 UNL     1      22.387   2.804  21.720  1.00  0.00     0.006 C 
ENDBRANCH   5  13
ENDBRANCH   2   5
BRANCH   3  19
HETATM   19  N2  UNL     1      22.385   6.836  20.865  1.00  0.00    -0.307 N 
HETATM   20  C2  UNL     1      22.080   7.965  20.449  1.00  0.00     0.144 C 
ATOM     21  H2  UNL     1      22.355   6.790  21.884  1.00  0.00     0.186 HD
BRANCH  20  22
HETATM   22  C3  UNL     1      21.996   8.458  19.090  1.00  0.00     0.095 A 
HETATM   23  C4  UNL     1      21.135   9.378  18.542  1.00  0.00     0.043 A 
HETATM   24  C5  UNL     1      21.469   9.498  17.212  1.00  0.00     0.065 A 
HETATM   25  C6  UNL     1      22.525   8.646  16.991  1.00  0.00     0.215 A 
HETATM   26  O4  UNL     1      22.803   8.057  18.113  1.00  0.00    -0.287 OA
BRANCH  25  27
HETATM   27  N3  UNL     1      23.186   8.463  15.716  1.00  0.00    -0.090 N 
HETATM   28  O2  UNL     1      24.344   8.023  15.653  1.00  0.00    -0.530 OA
HETATM   29  O3  UNL     1      22.546   8.774  14.544  1.00  0.00    -0.530 OA
ENDBRANCH  25  27
ENDBRANCH  20  22
ENDBRANCH   3  19
TORSDOF 8
ENDMDL
MODEL 4
REMARK VINA RESULT: -7.337139528      2.102      2.995
REMARK  8 active torsions:
REMARK  status: ('A' for Active; 'I' for Inactive)
REMARK       I    between atoms: C1_2  and  N1_3 
REMARK    1  A    between atoms: C1_2  and  C7_16 
REMARK    2  A    between atoms: N1_3  and  N2_5 
REMARK    3  A    between atoms: C2_7  and  C3_8 
REMARK    4  A    between atoms: C6_11  and  N3_12 
REMARK    5  A    between atoms: C7_16  and  C8_17 
REMARK    6  A    between atoms: C7_16  and  C9_24 
REMARK    7  A    between atoms: C8_17  and  O5_18 
REMARK    8  A    between atoms: N4_20  and  O6_22 
ROOT
HETATM    1  O1  UNL     1      23.276   7.714  22.205  1.00  0.00    -0.271 OA
HETATM    2  C1  UNL     1      22.305   6.894  22.116  1.00  0.00     0.248 C 
HETATM    3  N1  UNL     1      22.341   5.928  21.060  1.00  0.00    -0.270 N 
ATOM      4  H1  UNL     1      21.579   5.257  20.965  1.00  0.00     0.190 HD
ENDROOT
BRANCH   2   5
HETATM    5  C7  UNL     1      21.192   6.980  23.105  1.00  0.00     0.160 C 
BRANCH   5   6
HETATM    6  C8  UNL     1      20.463   8.256  22.993  1.00  0.00     0.149 C 
HETATM    7  N4  UNL     1      20.802   9.174  22.122  1.00  0.00    -0.250 N 
ATOM      8  H4  UNL     1      21.597   8.978  21.514  1.00  0.00     0.196 HD
BRANCH   6   9
HETATM    9  O5  UNL     1      19.377   8.586  23.786  1.00  0.00    -0.347 OA
ATOM     10  H5  UNL     1      18.505   8.233  23.652  1.00  0.00     0.219 HD
ENDBRANCH   6   9
BRANCH   7  11
HETATM   11  O6  UNL     1      20.176  10.359  21.972  1.00  0.00    -0.288 OA
ATOM     12  H6  UNL     1      20.432  11.032  21.352  1.00  0.00     0.244 HD
ENDBRANCH   7  11
ENDBRANCH   5   6
BRANCH   5  13
HETATM   13  C9  UNL     1      21.776   6.696  24.449  1.00  0.00     0.006 C 
HETATM   14  C10 UNL     1      20.835   6.767  25.601  1.00  0.00     0.006 C 
HETATM   15  C11 UNL     1      19.724   5.751  25.517  1.00  0.00     0.000 C 
HETATM   16  C12 UNL     1      20.327   4.382  25.287  1.00  0.00     0.000 C 
HETATM   17  C13 UNL     1      21.819   4.378  25.427  1.00  0.00     0.000 C 
HETATM   18  C14 UNL     1      22.396   5.309  24.385  1.00  0.00     0.006 C 
ENDBRANCH   5  13
ENDBRANCH   2   5
BRANCH   3  19
HETATM   19  N2  UNL     1      23.374   5.893  20.187  1.00  0.00    -0.307 N 
HETATM   20  C2  UNL     1      23.712   6.501  19.159  1.00  0.00     0.144 C 
ATOM     21  H2  UNL     1      24.056   5.177  20.441  1.00  0.00     0.186 HD
BRANCH  20  22
HETATM   22  C3  UNL     1      23.043   7.578  18.459  1.00  0.00     0.095 A 
HETATM   23  C4  UNL     1      23.419   8.255  17.324  1.00  0.00     0.043 A 
HETATM   24  C5  UNL     1      22.439   9.187  17.070  1.00  0.00     0.065 A 
HETATM   25  C6  UNL     1      21.495   9.049  18.058  1.00  0.00     0.215 A 
HETATM   26  O4  UNL     1      21.885   8.099  18.851  1.00  0.00    -0.287 OA
BRANCH  25  27
HETATM   27  N3  UNL     1      20.290   9.843  18.166  1.00  0.00    -0.090 N 
HETATM   28  O2  UNL     1      19.495   9.934  17.217  1.00  0.00    -0.530 OA
HETATM   29  O3  UNL     1      19.995  10.517  19.324  1.00  0.00    -0.530 OA
ENDBRANCH  25  27
ENDBRANCH  20  22
ENDBRANCH   3  19
TORSDOF 8
ENDMDL
MODEL 5
REMARK VINA RESULT: -7.326023325      2.262      3.031
REMARK  8 active torsions:
REMARK  status: ('A' for Active; 'I' for Inactive)
REMARK       I    between atoms: C1_2  and  N1_3 
REMARK    1  A    between atoms: C1_2  and  C7_16 
REMARK    2  A    between atoms: N1_3  and  N2_5 
REMARK    3  A    between atoms: C2_7  and  C3_8 
REMARK    4  A    between atoms: C6_11  and  N3_12 
REMARK    5  A    between atoms: C7_16  and  C8_17 
REMARK    6  A    between atoms: C7_16  and  C9_24 
REMARK    7  A    between atoms: C8_17  and  O5_18 
REMARK    8  A    between atoms: N4_20  and  O6_22 
ROOT
HETATM    1  O1  UNL     1      23.449   7.622  21.760  1.00  0.00    -0.271 OA
HETATM    2  C1  UNL     1      22.687   6.614  21.597  1.00  0.00     0.248 C 
HETATM    3  N1  UNL     1      22.922   5.776  20.461  1.00  0.00    -0.270 N 
ATOM      4  H1  UNL     1      22.329   4.961  20.305  1.00  0.00     0.190 HD
ENDROOT
BRANCH   2   5
HETATM    5  C7  UNL     1      21.600   6.360  22.587  1.00  0.00     0.160 C 
BRANCH   5   6
HETATM    6  C8  UNL     1      20.802   7.573  22.841  1.00  0.00     0.149 C 
HETATM    7  N4  UNL     1      20.042   7.693  23.900  1.00  0.00    -0.250 N 
ATOM      8  H4  UNL     1      20.017   6.912  24.555  1.00  0.00     0.196 HD
BRANCH   6   9
HETATM    9  O5  UNL     1      20.790   8.669  21.995  1.00  0.00    -0.347 OA
ATOM     10  H5  UNL     1      21.281   8.708  21.182  1.00  0.00     0.219 HD
ENDBRANCH   6   9
BRANCH   7  11
HETATM   11  O6  UNL     1      19.290   8.776  24.188  1.00  0.00    -0.288 OA
ATOM     12  H6  UNL     1      18.343   8.775  24.252  1.00  0.00     0.244 HD
ENDBRANCH   7  11
ENDBRANCH   5   6
BRANCH   5  13
HETATM   13  C9  UNL     1      22.238   5.754  23.793  1.00  0.00     0.006 C 
HETATM   14  C10 UNL     1      21.380   4.842  24.599  1.00  0.00     0.006 C 
HETATM   15  C11 UNL     1      20.931   3.624  23.830  1.00  0.00     0.000 C 
HETATM   16  C12 UNL     1      22.142   2.959  23.214  1.00  0.00     0.000 C 
HETATM   17  C13 UNL     1      23.432   3.541  23.704  1.00  0.00     0.000 C 
HETATM   18  C14 UNL     1      23.471   5.002  23.317  1.00  0.00     0.006 C 
ENDBRANCH   5  13
ENDBRANCH   2   5
BRANCH   3  19
HETATM   19  N2  UNL     1      23.921   6.051  19.591  1.00  0.00    -0.307 N 
HETATM   20  C2  UNL     1      24.105   6.827  18.638  1.00  0.00     0.144 C 
ATOM     21  H2  UNL     1      24.739   5.467  19.762  1.00  0.00     0.186 HD
BRANCH  20  22
HETATM   22  C3  UNL     1      23.215   7.815  18.065  1.00  0.00     0.095 A 
HETATM   23  C4  UNL     1      23.303   8.488  16.871  1.00  0.00     0.043 A 
HETATM   24  C5  UNL     1      22.207   9.317  16.796  1.00  0.00     0.065 A 
HETATM   25  C6  UNL     1      21.484   9.123  17.947  1.00  0.00     0.215 A 
HETATM   26  O4  UNL     1      22.106   8.238  18.664  1.00  0.00    -0.287 OA
BRANCH  25  27
HETATM   27  N3  UNL     1      20.249   9.805  18.273  1.00  0.00    -0.090 N 
HETATM   28  O2  UNL     1      19.431  10.104  17.389  1.00  0.00    -0.530 OA
HETATM   29  O3  UNL     1      19.954  10.140  19.569  1.00  0.00    -0.530 OA
ENDBRANCH  25  27
ENDBRANCH  20  22
ENDBRANCH   3  19
TORSDOF 8
ENDMDL
