MODEL 1
REMARK VINA RESULT: -6.871491542      0.000      0.000
REMARK  8 active torsions:
REMARK  status: ('A' for Active; 'I' for Inactive)
REMARK    1  A    between atoms: C2_2  and  C3_3 
REMARK    2  A    between atoms: C4_5  and  S1_6 
REMARK    3  A    between atoms: C6_8  and  N1_9 
REMARK    4  A    between atoms: C7_12  and  C8_13 
REMARK    5  A    between atoms: C8_13  and  S2_14 
REMARK    6  A    between atoms: S2_14  and  C9_15 
REMARK    7  A    between atoms: C9_15  and  C10_16 
REMARK       I    between atoms: C10_16  and  N2_18 
REMARK       I    between atoms: N2_18  and  C11_20 
REMARK    8  A    between atoms: N4_22  and  O5_24 
ROOT
HETATM    1  C8  UNL     1      23.907   4.732  20.448  1.00  0.00     0.118 C 
ENDROOT
BRANCH   1   2
HETATM    2  C7  UNL     1      23.165   5.984  20.663  1.00  0.00     0.017 A 
HETATM    3  C3  UNL     1      23.207   7.092  19.800  1.00  0.00     0.063 A 
HETATM    4  O1  UNL     1      22.433   7.983  20.334  1.00  0.00    -0.305 OA
HETATM    5  C4  UNL     1      21.885   7.588  21.448  1.00  0.00     0.145 A 
HETATM    6  C6  UNL     1      22.328   6.292  21.708  1.00  0.00     0.152 A 
BRANCH   3   7
HETATM    7  C2  UNL     1      24.016   7.128  18.548  1.00  0.00     0.061 C 
HETATM    8  C1  UNL     1      23.453   8.034  17.501  1.00  0.00     0.012 C 
ENDBRANCH   3   7
BRANCH   5   9
HETATM    9  S1  UNL     1      20.752   8.524  22.495  1.00  0.00    -0.107 SA
HETATM   10  C5  UNL     1      21.545   8.743  24.130  1.00  0.00     0.097 C 
ENDBRANCH   5   9
BRANCH   6  11
HETATM   11  N1  UNL     1      21.909   5.548  22.839  1.00  0.00    -0.112 N 
HETATM   12  O2  UNL     1      22.720   5.324  23.761  1.00  0.00    -0.532 OA
HETATM   13  O3  UNL     1      20.644   5.064  22.957  1.00  0.00    -0.532 OA
ENDBRANCH   6  11
ENDBRANCH   1   2
BRANCH   1  14
HETATM   14  S2  UNL     1      22.886   3.400  19.870  1.00  0.00    -0.155 SA
BRANCH  14  15
HETATM   15  C9  UNL     1      22.946   1.944  20.924  1.00  0.00     0.177 C 
BRANCH  15  16
HETATM   16  C10 UNL     1      21.756   1.892  21.833  1.00  0.00     0.233 C 
HETATM   17  O4  UNL     1      21.948   2.046  23.065  1.00  0.00    -0.272 OA
HETATM   18  N2  UNL     1      20.457   1.679  21.342  1.00  0.00    -0.299 N 
HETATM   19  C11 UNL     1      19.320   1.625  22.181  1.00  0.00     0.214 C 
ATOM     20  H2  UNL     1      20.329   1.556  20.338  1.00  0.00     0.171 HD
HETATM   21  N3  UNL     1      19.455   1.790  23.584  1.00  0.00    -0.061 NA
HETATM   22  N4  UNL     1      18.143   1.427  21.689  1.00  0.00    -0.241 N 
ATOM     23  H4  UNL     1      18.046   1.308  20.681  1.00  0.00     0.197 HD
BRANCH  22  24
HETATM   24  O5  UNL     1      17.022   1.369  22.469  1.00  0.00    -0.287 OA
ATOM     25  H5  UNL     1      16.320   2.007  22.404  1.00  0.00     0.244 HD
ENDBRANCH  22  24
ENDBRANCH  15  16
ENDBRANCH  14  15
ENDBRANCH   1  14
TORSDOF 8
ENDMDL
MODEL 2
REMARK VINA RESULT: -6.851569364      3.121      4.531
REMARK  8 active torsions:
REMARK  status: ('A' for Active; 'I' for Inactive)
REMARK    1  A    between atoms: C2_2  and  C3_3 
REMARK    2  A    between atoms: C4_5  and  S1_6 
REMARK    3  A    between atoms: C6_8  and  N1_9 
REMARK    4  A    between atoms: C7_12  and  C8_13 
REMARK    5  A    between atoms: C8_13  and  S2_14 
REMARK    6  A    between atoms: S2_14  and  C9_15 
REMARK    7  A    between atoms: C9_15  and  C10_16 
REMARK       I    between atoms: C10_16  and  N2_18 
REMARK       I    between atoms: N2_18  and  C11_20 
REMARK    8  A    between atoms: N4_22  and  O5_24 
ROOT
HETATM    1  C8  UNL     1      23.805   5.809  22.442  1.00  0.00     0.118 C 
ENDROOT
BRANCH   1   2
HETATM    2  C7  UNL     1      22.978   6.760  21.683  1.00  0.00     0.017 A 
HETATM    3  C3  UNL     1      22.016   7.610  22.255  1.00  0.00     0.063 A 
HETATM    4  O1  UNL     1      21.508   8.279  21.268  1.00  0.00    -0.305 OA
HETATM    5  C4  UNL     1      22.026   7.968  20.114  1.00  0.00     0.145 A 
HETATM    6  C6  UNL     1      22.991   6.984  20.328  1.00  0.00     0.152 A 
BRANCH   3   7
HETATM    7  C2  UNL     1      21.719   7.650  23.715  1.00  0.00     0.061 C 
HETATM    8  C1  UNL     1      21.353   9.012  24.211  1.00  0.00     0.012 C 
ENDBRANCH   3   7
BRANCH   5   9
HETATM    9  S1  UNL     1      21.599   8.665  18.505  1.00  0.00    -0.107 SA
HETATM   10  C5  UNL     1      20.203   9.824  18.746  1.00  0.00     0.097 C 
ENDBRANCH   5   9
BRANCH   6  11
HETATM   11  N1  UNL     1      23.768   6.428  19.282  1.00  0.00    -0.112 N 
HETATM   12  O2  UNL     1      23.712   5.201  19.060  1.00  0.00    -0.532 OA
HETATM   13  O3  UNL     1      24.582   7.190  18.503  1.00  0.00    -0.532 OA
ENDBRANCH   6  11
ENDBRANCH   1   2
BRANCH   1  14
HETATM   14  S2  UNL     1      22.897   4.404  23.035  1.00  0.00    -0.155 SA
BRANCH  14  15
HETATM   15  C9  UNL     1      21.890   3.618  21.768  1.00  0.00     0.177 C 
BRANCH  15  16
HETATM   16  C10 UNL     1      22.653   2.528  21.080  1.00  0.00     0.233 C 
HETATM   17  O4  UNL     1      23.251   1.685  21.795  1.00  0.00    -0.272 OA
HETATM   18  N2  UNL     1      22.710   2.432  19.679  1.00  0.00    -0.299 N 
HETATM   19  C11 UNL     1      23.423   1.412  19.009  1.00  0.00     0.214 C 
ATOM     20  H2  UNL     1      22.215   3.129  19.122  1.00  0.00     0.171 HD
HETATM   21  N3  UNL     1      24.124   0.423  19.747  1.00  0.00    -0.061 NA
HETATM   22  N4  UNL     1      23.450   1.360  17.720  1.00  0.00    -0.241 N 
ATOM     23  H4  UNL     1      22.947   2.071  17.189  1.00  0.00     0.197 HD
BRANCH  22  24
HETATM   24  O5  UNL     1      24.130   0.390  17.038  1.00  0.00    -0.287 OA
ATOM     25  H5  UNL     1      24.671   0.581  16.280  1.00  0.00     0.244 HD
ENDBRANCH  22  24
ENDBRANCH  15  16
ENDBRANCH  14  15
ENDBRANCH   1  14
TORSDOF 8
ENDMDL
MODEL 3
REMARK VINA RESULT: -6.806799522      3.919      5.163
REMARK  8 active torsions:
REMARK  status: ('A' for Active; 'I' for Inactive)
REMARK    1  A    between atoms: C2_2  and  C3_3 
REMARK    2  A    between atoms: C4_5  and  S1_6 
REMARK    3  A    between atoms: C6_8  and  N1_9 
REMARK    4  A    between atoms: C7_12  and  C8_13 
REMARK    5  A    between atoms: C8_13  and  S2_14 
REMARK    6  A    between atoms: S2_14  and  C9_15 
REMARK    7  A    between atoms: C9_15  and  C10_16 
REMARK       I    between atoms: C10_16  and  N2_18 
REMARK       I    between atoms: N2_18  and  C11_20 
REMARK    8  A    between atoms: N4_22  and  O5_24 
ROOT
HETATM    1  C8  UNL     1      23.983   5.439  19.912  1.00  0.00     0.118 C 
ENDROOT
BRANCH   1   2
HETATM    2  C7  UNL     1      23.057   6.475  20.395  1.00  0.00     0.017 A 
HETATM    3  C3  UNL     1      22.711   7.632  19.675  1.00  0.00     0.063 A 
HETATM    4  O1  UNL     1      21.887   8.284  20.433  1.00  0.00    -0.305 OA
HETATM    5  C4  UNL     1      21.651   7.690  21.568  1.00  0.00     0.145 A 
HETATM    6  C6  UNL     1      22.387   6.506  21.594  1.00  0.00     0.152 A 
BRANCH   3   7
HETATM    7  C2  UNL     1      23.245   7.945  18.319  1.00  0.00     0.061 C 
HETATM    8  C1  UNL     1      22.339   8.815  17.509  1.00  0.00     0.012 C 
ENDBRANCH   3   7
BRANCH   5   9
HETATM    9  S1  UNL     1      20.569   8.265  22.893  1.00  0.00    -0.107 SA
HETATM   10  C5  UNL     1      21.624   8.794  24.292  1.00  0.00     0.097 C 
ENDBRANCH   5   9
BRANCH   6  11
HETATM   11  N1  UNL     1      22.347   5.599  22.682  1.00  0.00    -0.112 N 
HETATM   12  O2  UNL     1      23.234   5.653  23.559  1.00  0.00    -0.532 OA
HETATM   13  O3  UNL     1      21.370   4.663  22.807  1.00  0.00    -0.532 OA
ENDBRANCH   6  11
ENDBRANCH   1   2
BRANCH   1  14
HETATM   14  S2  UNL     1      23.219   3.849  19.718  1.00  0.00    -0.155 SA
BRANCH  14  15
HETATM   15  C9  UNL     1      24.276   2.482  20.218  1.00  0.00     0.177 C 
BRANCH  15  16
HETATM   16  C10 UNL     1      25.678   2.685  19.730  1.00  0.00     0.233 C 
HETATM   17  O4  UNL     1      26.522   3.146  20.539  1.00  0.00    -0.272 OA
HETATM   18  N2  UNL     1      26.059   2.375  18.414  1.00  0.00    -0.299 N 
HETATM   19  C11 UNL     1      27.375   2.559  17.932  1.00  0.00     0.214 C 
ATOM     20  H2  UNL     1      25.354   2.002  17.778  1.00  0.00     0.171 HD
HETATM   21  N3  UNL     1      28.385   3.076  18.786  1.00  0.00    -0.061 NA
HETATM   22  N4  UNL     1      27.683   2.261  16.715  1.00  0.00    -0.241 N 
ATOM     23  H4  UNL     1      26.957   1.890  16.102  1.00  0.00     0.197 HD
BRANCH  22  24
HETATM   24  O5  UNL     1      28.945   2.426  16.215  1.00  0.00    -0.287 OA
ATOM     25  H5  UNL     1      29.496   1.693  15.967  1.00  0.00     0.244 HD
ENDBRANCH  22  24
ENDBRANCH  15  16
ENDBRANCH  14  15
ENDBRANCH   1  14
TORSDOF 8
ENDMDL
MODEL 4
REMARK VINA RESULT: -6.797292512      3.905      4.755
REMARK  8 active torsions:
REMARK  status: ('A' for Active; 'I' for Inactive)
REMARK    1  A    between atoms: C2_2  and  C3_3 
REMARK    2  A    between atoms: C4_5  and  S1_6 
REMARK    3  A    between atoms: C6_8  and  N1_9 
REMARK    4  A    between atoms: C7_12  and  C8_13 
REMARK    5  A    between atoms: C8_13  and  S2_14 
REMARK    6  A    between atoms: S2_14  and  C9_15 
REMARK    7  A    between atoms: C9_15  and  C10_16 
REMARK       I    between atoms: C10_16  and  N2_18 
REMARK       I    between atoms: N2_18  and  C11_20 
REMARK    8  A    between atoms: N4_22  and  O5_24 
ROOT
HETATM    1  C8  UNL     1      24.597   4.908  18.787  1.00  0.00     0.118 C 
ENDROOT
BRANCH   1   2
HETATM    2  C7  UNL     1      23.864   5.963  19.504  1.00  0.00     0.017 A 
HETATM    3  C3  UNL     1      23.514   7.206  18.950  1.00  0.00     0.063 A 
HETATM    4  O1  UNL     1      22.891   7.846  19.888  1.00  0.00    -0.305 OA
HETATM    5  C4  UNL     1      22.789   7.167  20.995  1.00  0.00     0.145 A 
HETATM    6  C6  UNL     1      23.406   5.932  20.799  1.00  0.00     0.152 A 
BRANCH   3   7
HETATM    7  C2  UNL     1      23.845   7.605  17.552  1.00  0.00     0.061 C 
HETATM    8  C1  UNL     1      22.948   8.669  17.008  1.00  0.00     0.012 C 
ENDBRANCH   3   7
BRANCH   5   9
HETATM    9  S1  UNL     1      21.999   7.696  22.528  1.00  0.00    -0.107 SA
HETATM   10  C5  UNL     1      20.586   8.775  22.091  1.00  0.00     0.097 C 
ENDBRANCH   5   9
BRANCH   6  11
HETATM   11  N1  UNL     1      23.462   4.931  21.801  1.00  0.00    -0.112 N 
HETATM   12  O2  UNL     1      24.506   4.790  22.470  1.00  0.00    -0.532 OA
HETATM   13  O3  UNL     1      22.409   4.112  22.063  1.00  0.00    -0.532 OA
ENDBRANCH   6  11
ENDBRANCH   1   2
BRANCH   1  14
HETATM   14  S2  UNL     1      23.760   3.343  18.792  1.00  0.00    -0.155 SA
BRANCH  14  15
HETATM   15  C9  UNL     1      24.602   2.085  19.764  1.00  0.00     0.177 C 
BRANCH  15  16
HETATM   16  C10 UNL     1      24.948   0.898  18.919  1.00  0.00     0.233 C 
HETATM   17  O4  UNL     1      25.429  -0.113  19.491  1.00  0.00    -0.272 OA
HETATM   18  N2  UNL     1      24.747   0.893  17.529  1.00  0.00    -0.299 N 
HETATM   19  C11 UNL     1      25.066  -0.216  16.712  1.00  0.00     0.214 C 
ATOM     20  H2  UNL     1      24.355   1.725  17.090  1.00  0.00     0.171 HD
HETATM   21  N3  UNL     1      25.614  -1.394  17.284  1.00  0.00    -0.061 NA
HETATM   22  N4  UNL     1      24.866  -0.179  15.437  1.00  0.00    -0.241 N 
ATOM     23  H4  UNL     1      24.472   0.667  15.026  1.00  0.00     0.197 HD
BRANCH  22  24
HETATM   24  O5  UNL     1      25.163  -1.232  14.617  1.00  0.00    -0.287 OA
ATOM     25  H5  UNL     1      25.818  -1.176  13.931  1.00  0.00     0.244 HD
ENDBRANCH  22  24
ENDBRANCH  15  16
ENDBRANCH  14  15
ENDBRANCH   1  14
TORSDOF 8
ENDMDL
MODEL 5
REMARK VINA RESULT: -6.766165118      0.865      1.108
REMARK  8 active torsions:
REMARK  status: ('A' for Active; 'I' for Inactive)
REMARK    1  A    between atoms: C2_2  and  C3_3 
REMARK    2  A    between atoms: C4_5  and  S1_6 
REMARK    3  A    between atoms: C6_8  and  N1_9 
REMARK    4  A    between atoms: C7_12  and  C8_13 
REMARK    5  A    between atoms: C8_13  and  S2_14 
REMARK    6  A    between atoms: S2_14  and  C9_15 
REMARK    7  A    between atoms: C9_15  and  C10_16 
REMARK       I    between atoms: C10_16  and  N2_18 
REMARK       I    between atoms: N2_18  and  C11_20 
REMARK    8  A    between atoms: N4_22  and  O5_24 
ROOT
HETATM    1  C8  UNL     1      23.509   4.473  21.037  1.00  0.00     0.118 C 
ENDROOT
BRANCH   1   2
HETATM    2  C7  UNL     1      22.874   5.789  21.206  1.00  0.00     0.017 A 
HETATM    3  C3  UNL     1      23.015   6.862  20.309  1.00  0.00     0.063 A 
HETATM    4  O1  UNL     1      22.316   7.832  20.809  1.00  0.00    -0.305 OA
HETATM    5  C4  UNL     1      21.731   7.520  21.930  1.00  0.00     0.145 A 
HETATM    6  C6  UNL     1      22.060   6.200  22.234  1.00  0.00     0.152 A 
BRANCH   3   7
HETATM    7  C2  UNL     1      23.831   6.790  19.064  1.00  0.00     0.061 C 
HETATM    8  C1  UNL     1      23.443   7.805  18.038  1.00  0.00     0.012 C 
ENDBRANCH   3   7
BRANCH   5   9
HETATM    9  S1  UNL     1      20.674   8.581  22.938  1.00  0.00    -0.107 SA
HETATM   10  C5  UNL     1      21.592   9.003  24.465  1.00  0.00     0.097 C 
ENDBRANCH   5   9
BRANCH   6  11
HETATM   11  N1  UNL     1      21.573   5.530  23.384  1.00  0.00    -0.112 N 
HETATM   12  O2  UNL     1      20.459   4.967  23.341  1.00  0.00    -0.532 OA
HETATM   13  O3  UNL     1      22.282   5.476  24.543  1.00  0.00    -0.532 OA
ENDBRANCH   6  11
ENDBRANCH   1   2
BRANCH   1  14
HETATM   14  S2  UNL     1      22.365   3.195  20.579  1.00  0.00    -0.155 SA
BRANCH  14  15
HETATM   15  C9  UNL     1      22.259   1.865  21.785  1.00  0.00     0.177 C 
BRANCH  15  16
HETATM   16  C10 UNL     1      20.845   1.664  22.237  1.00  0.00     0.233 C 
HETATM   17  O4  UNL     1      20.640   1.465  23.461  1.00  0.00    -0.272 OA
HETATM   18  N2  UNL     1      19.767   1.693  21.337  1.00  0.00    -0.299 N 
HETATM   19  C11 UNL     1      18.425   1.506  21.741  1.00  0.00     0.214 C 
ATOM     20  H2  UNL     1      19.961   1.857  20.349  1.00  0.00     0.171 HD
HETATM   21  N3  UNL     1      18.113   1.276  23.106  1.00  0.00    -0.061 NA
HETATM   22  N4  UNL     1      17.463   1.540  20.881  1.00  0.00    -0.241 N 
ATOM     23  H4  UNL     1      17.688   1.706  19.900  1.00  0.00     0.197 HD
BRANCH  22  24
HETATM   24  O5  UNL     1      16.155   1.363  21.235  1.00  0.00    -0.287 OA
ATOM     25  H5  UNL     1      15.434   1.641  20.682  1.00  0.00     0.244 HD
ENDBRANCH  22  24
ENDBRANCH  15  16
ENDBRANCH  14  15
ENDBRANCH   1  14
TORSDOF 8
ENDMDL
