MODEL 1
REMARK VINA RESULT: -9.215843024      0.000      0.000
REMARK  11 active torsions:
REMARK  status: ('A' for Active; 'I' for Inactive)
REMARK    1  A    between atoms: C2_2  and  C3_3 
REMARK    2  A    between atoms: C3_3  and  C4_4 
REMARK    3  A    between atoms: C4_4  and  C5_5 
REMARK    4  A    between atoms: C9_9  and  C10_10 
REMARK       I    between atoms: C10_10  and  N1_12 
REMARK    5  A    between atoms: N1_12  and  C11_14 
REMARK    6  A    between atoms: C11_14  and  C12_15 
REMARK    7  A    between atoms: C11_14  and  C23_29 
REMARK       I    between atoms: C12_15  and  N2_17 
REMARK    8  A    between atoms: N3_20  and  C15_21 
REMARK       I    between atoms: N4_32  and  C26_33 
REMARK    9  A    between atoms: C26_33  and  C27_35 
REMARK   10  A    between atoms: C27_35  and  N5_36 
REMARK   11  A    between atoms: C27_35  and  C29_40 
ROOT
HETATM    1  C11 UNL     1     -18.163  19.210  -4.935  1.00  0.00     0.183 C 
ENDROOT
BRANCH   1   2
HETATM    2  N1  UNL     1     -17.743  18.716  -6.245  1.00  0.00    -0.347 N 
HETATM    3  C10 UNL     1     -16.810  17.744  -6.571  1.00  0.00     0.222 C 
HETATM    4  O1  UNL     1     -16.178  17.130  -5.694  1.00  0.00    -0.273 OA
ATOM      5  H1  UNL     1     -18.207  19.153  -7.040  1.00  0.00     0.163 HD
BRANCH   3   6
HETATM    6  C9  UNL     1     -16.533  17.402  -8.000  1.00  0.00     0.082 C 
HETATM    7  C5  UNL     1     -17.677  17.102  -8.863  1.00  0.00    -0.001 C 
HETATM    8  C6  UNL     1     -17.936  18.217  -9.806  1.00  0.00     0.005 C 
HETATM    9  C7  UNL     1     -16.903  19.280  -9.436  1.00  0.00     0.001 C 
HETATM   10  C8  UNL     1     -15.828  18.563  -8.685  1.00  0.00     0.014 C 
BRANCH   7  11
HETATM   11  C4  UNL     1     -18.870  16.450  -8.248  1.00  0.00     0.009 C 
BRANCH  11  12
HETATM   12  C3  UNL     1     -20.190  16.816  -8.867  1.00  0.00     0.027 C 
BRANCH  12  13
HETATM   13  C2  UNL     1     -21.172  17.475  -8.005  1.00  0.00    -0.037 C 
HETATM   14  C1  UNL     1     -22.279  16.860  -7.626  1.00  0.00     0.007 C 
ENDBRANCH  12  13
ENDBRANCH  11  12
ENDBRANCH   7  11
ENDBRANCH   3   6
ENDBRANCH   1   2
BRANCH   1  15
HETATM   15  C12 UNL     1     -18.189  20.686  -5.095  1.00  0.00     0.243 C 
HETATM   16  O2  UNL     1     -18.884  21.132  -6.085  1.00  0.00    -0.271 OA
HETATM   17  N2  UNL     1     -17.565  21.670  -4.326  1.00  0.00    -0.344 N 
HETATM   18  C13 UNL     1     -17.817  23.078  -4.684  1.00  0.00     0.146 C 
HETATM   19  C22 UNL     1     -16.676  21.333  -3.264  1.00  0.00     0.170 C 
HETATM   20  C14 UNL     1     -16.543  23.884  -4.544  1.00  0.00     0.142 C 
HETATM   21  N3  UNL     1     -15.406  23.072  -4.263  1.00  0.00    -0.386 N 
HETATM   22  C21 UNL     1     -15.469  22.242  -3.141  1.00  0.00     0.078 C 
BRANCH  21  23
HETATM   23  C15 UNL     1     -14.162  23.588  -4.675  1.00  0.00     0.083 C 
HETATM   24  C16 UNL     1     -13.642  24.546  -3.595  1.00  0.00     0.025 C 
HETATM   25  C17 UNL     1     -12.490  25.299  -4.260  1.00  0.00     0.002 C 
HETATM   26  C18 UNL     1     -11.376  24.295  -4.464  1.00  0.00     0.000 C 
HETATM   27  C19 UNL     1     -11.821  23.221  -5.429  1.00  0.00     0.002 C 
HETATM   28  C20 UNL     1     -13.122  22.568  -4.949  1.00  0.00     0.025 C 
ENDBRANCH  21  23
ENDBRANCH   1  15
BRANCH   1  29
HETATM   29  C23 UNL     1     -19.523  18.668  -4.724  1.00  0.00     0.048 C 
HETATM   30  C24 UNL     1     -19.594  17.360  -3.924  1.00  0.00     0.022 C 
HETATM   31  C25 UNL     1     -21.041  17.013  -4.285  1.00  0.00     0.132 C 
HETATM   32  C31 UNL     1     -19.798  18.127  -2.684  1.00  0.00    -0.021 C 
HETATM   33  N4  UNL     1     -21.633  18.305  -4.040  1.00  0.00    -0.344 N 
HETATM   34  C26 UNL     1     -22.923  18.837  -4.152  1.00  0.00     0.262 C 
HETATM   35  C30 UNL     1     -20.421  19.105  -3.621  1.00  0.00     0.102 C 
HETATM   36  O3  UNL     1     -23.102  20.066  -3.859  1.00  0.00    -0.270 OA
HETATM   37  C32 UNL     1     -20.841  17.582  -1.709  1.00  0.00     0.017 C 
HETATM   38  C33 UNL     1     -18.600  18.547  -1.889  1.00  0.00     0.017 C 
BRANCH  34  39
HETATM   39  C27 UNL     1     -24.135  18.118  -4.593  1.00  0.00     0.376 C 
BRANCH  39  40
HETATM   40  N5  UNL     1     -24.836  18.929  -5.623  1.00  0.00    -0.056 N 
HETATM   41  C28 UNL     1     -25.579  17.980  -6.429  1.00  0.00     0.268 C 
ATOM     42  H52 UNL     1     -25.413  19.675  -5.233  1.00  0.00     0.278 HD
ATOM     43  H51 UNL     1     -24.214  19.529  -6.165  1.00  0.00     0.278 HD
ENDBRANCH  39  40
BRANCH  39  44
HETATM   44  C29 UNL     1     -25.121  17.873  -3.504  1.00  0.00     0.214 C 
HETATM   45  O4  UNL     1     -25.156  16.739  -2.905  1.00  0.00    -0.646 OA
HETATM   46  O5  UNL     1     -26.029  18.794  -3.073  1.00  0.00    -0.646 OA
ENDBRANCH  39  44
ENDBRANCH  34  39
ENDBRANCH   1  29
TORSDOF 11
ENDMDL
MODEL 2
REMARK VINA RESULT: -8.842097020      2.120      7.466
REMARK  11 active torsions:
REMARK  status: ('A' for Active; 'I' for Inactive)
REMARK    1  A    between atoms: C2_2  and  C3_3 
REMARK    2  A    between atoms: C3_3  and  C4_4 
REMARK    3  A    between atoms: C4_4  and  C5_5 
REMARK    4  A    between atoms: C9_9  and  C10_10 
REMARK       I    between atoms: C10_10  and  N1_12 
REMARK    5  A    between atoms: N1_12  and  C11_14 
REMARK    6  A    between atoms: C11_14  and  C12_15 
REMARK    7  A    between atoms: C11_14  and  C23_29 
REMARK       I    between atoms: C12_15  and  N2_17 
REMARK    8  A    between atoms: N3_20  and  C15_21 
REMARK       I    between atoms: N4_32  and  C26_33 
REMARK    9  A    between atoms: C26_33  and  C27_35 
REMARK   10  A    between atoms: C27_35  and  N5_36 
REMARK   11  A    between atoms: C27_35  and  C29_40 
ROOT
HETATM    1  C11 UNL     1     -21.476  17.202  -4.793  1.00  0.00     0.183 C 
ENDROOT
BRANCH   1   2
HETATM    2  N1  UNL     1     -22.659  17.818  -5.390  1.00  0.00    -0.347 N 
HETATM    3  C10 UNL     1     -24.003  17.569  -5.160  1.00  0.00     0.222 C 
HETATM    4  O1  UNL     1     -24.374  16.715  -4.336  1.00  0.00    -0.273 OA
ATOM      5  H1  UNL     1     -22.466  18.542  -6.082  1.00  0.00     0.163 HD
BRANCH   3   6
HETATM    6  C9  UNL     1     -25.057  18.326  -5.902  1.00  0.00     0.082 C 
HETATM    7  C5  UNL     1     -25.789  17.620  -6.957  1.00  0.00    -0.001 C 
HETATM    8  C6  UNL     1     -27.171  17.305  -6.521  1.00  0.00     0.005 C 
HETATM    9  C7  UNL     1     -27.245  17.812  -5.081  1.00  0.00     0.001 C 
HETATM   10  C8  UNL     1     -26.133  18.801  -4.938  1.00  0.00     0.014 C 
BRANCH   7  11
HETATM   11  C4  UNL     1     -25.069  16.565  -7.727  1.00  0.00     0.009 C 
BRANCH  11  12
HETATM   12  C3  UNL     1     -25.755  15.229  -7.779  1.00  0.00     0.027 C 
BRANCH  12  13
HETATM   13  C2  UNL     1     -25.255  14.185  -6.883  1.00  0.00    -0.037 C 
HETATM   14  C1  UNL     1     -25.887  13.877  -5.764  1.00  0.00     0.007 C 
ENDBRANCH  12  13
ENDBRANCH  11  12
ENDBRANCH   7  11
ENDBRANCH   3   6
ENDBRANCH   1   2
BRANCH   1  15
HETATM   15  C12 UNL     1     -20.985  16.270  -5.839  1.00  0.00     0.243 C 
HETATM   16  O2  UNL     1     -20.623  15.103  -5.428  1.00  0.00    -0.271 OA
HETATM   17  N2  UNL     1     -20.852  16.475  -7.214  1.00  0.00    -0.344 N 
HETATM   18  C13 UNL     1     -20.388  15.339  -8.031  1.00  0.00     0.146 C 
HETATM   19  C22 UNL     1     -21.108  17.745  -7.806  1.00  0.00     0.170 C 
HETATM   20  C14 UNL     1     -19.433  15.827  -9.100  1.00  0.00     0.142 C 
HETATM   21  N3  UNL     1     -19.103  17.205  -8.956  1.00  0.00    -0.386 N 
HETATM   22  C21 UNL     1     -20.158  18.121  -8.926  1.00  0.00     0.078 C 
BRANCH  21  23
HETATM   23  C15 UNL     1     -17.857  17.600  -9.482  1.00  0.00     0.083 C 
HETATM   24  C16 UNL     1     -18.065  18.112 -10.913  1.00  0.00     0.025 C 
HETATM   25  C17 UNL     1     -16.659  18.193 -11.509  1.00  0.00     0.002 C 
HETATM   26  C18 UNL     1     -15.948  19.318 -10.789  1.00  0.00     0.000 C 
HETATM   27  C19 UNL     1     -15.792  18.976  -9.326  1.00  0.00     0.002 C 
HETATM   28  C20 UNL     1     -17.151  18.643  -8.700  1.00  0.00     0.025 C 
ENDBRANCH  21  23
ENDBRANCH   1  15
BRANCH   1  29
HETATM   29  C23 UNL     1     -20.522  18.311  -4.569  1.00  0.00     0.048 C 
HETATM   30  C24 UNL     1     -20.766  19.146  -3.306  1.00  0.00     0.022 C 
HETATM   31  C25 UNL     1     -19.853  20.314  -3.688  1.00  0.00     0.132 C 
HETATM   32  C31 UNL     1     -19.824  18.295  -2.559  1.00  0.00    -0.021 C 
HETATM   33  N4  UNL     1     -18.704  19.551  -4.111  1.00  0.00    -0.344 N 
HETATM   34  C26 UNL     1     -17.443  19.870  -4.627  1.00  0.00     0.262 C 
HETATM   35  C30 UNL     1     -19.202  18.139  -3.905  1.00  0.00     0.102 C 
HETATM   36  O3  UNL     1     -16.646  18.917  -4.918  1.00  0.00    -0.270 OA
HETATM   37  C32 UNL     1     -18.867  19.012  -1.608  1.00  0.00     0.017 C 
HETATM   38  C33 UNL     1     -20.348  17.081  -1.856  1.00  0.00     0.017 C 
BRANCH  34  39
HETATM   39  C27 UNL     1     -16.917  21.225  -4.887  1.00  0.00     0.376 C 
BRANCH  39  40
HETATM   40  N5  UNL     1     -16.906  21.996  -3.616  1.00  0.00    -0.056 N 
HETATM   41  C28 UNL     1     -15.591  21.784  -3.042  1.00  0.00     0.268 C 
ATOM     42  H52 UNL     1     -17.147  22.980  -3.732  1.00  0.00     0.278 HD
ATOM     43  H51 UNL     1     -17.671  21.757  -2.985  1.00  0.00     0.278 HD
ENDBRANCH  39  40
BRANCH  39  44
HETATM   44  C29 UNL     1     -17.734  22.015  -5.852  1.00  0.00     0.214 C 
HETATM   45  O4  UNL     1     -18.086  23.215  -5.570  1.00  0.00    -0.646 OA
HETATM   46  O5  UNL     1     -18.156  21.545  -7.059  1.00  0.00    -0.646 OA
ENDBRANCH  39  44
ENDBRANCH  34  39
ENDBRANCH   1  29
TORSDOF 11
ENDMDL
MODEL 3
REMARK VINA RESULT: -8.780170592      3.974     10.760
REMARK  11 active torsions:
REMARK  status: ('A' for Active; 'I' for Inactive)
REMARK    1  A    between atoms: C2_2  and  C3_3 
REMARK    2  A    between atoms: C3_3  and  C4_4 
REMARK    3  A    between atoms: C4_4  and  C5_5 
REMARK    4  A    between atoms: C9_9  and  C10_10 
REMARK       I    between atoms: C10_10  and  N1_12 
REMARK    5  A    between atoms: N1_12  and  C11_14 
REMARK    6  A    between atoms: C11_14  and  C12_15 
REMARK    7  A    between atoms: C11_14  and  C23_29 
REMARK       I    between atoms: C12_15  and  N2_17 
REMARK    8  A    between atoms: N3_20  and  C15_21 
REMARK       I    between atoms: N4_32  and  C26_33 
REMARK    9  A    between atoms: C26_33  and  C27_35 
REMARK   10  A    between atoms: C27_35  and  N5_36 
REMARK   11  A    between atoms: C27_35  and  C29_40 
ROOT
HETATM    1  C11 UNL     1     -14.677  21.125  -6.485  1.00  0.00     0.183 C 
ENDROOT
BRANCH   1   2
HETATM    2  N1  UNL     1     -14.986  21.787  -5.219  1.00  0.00    -0.347 N 
HETATM    3  C10 UNL     1     -14.588  21.472  -3.930  1.00  0.00     0.222 C 
HETATM    4  O1  UNL     1     -13.849  20.499  -3.698  1.00  0.00    -0.273 OA
ATOM      5  H1  UNL     1     -15.587  22.608  -5.297  1.00  0.00     0.163 HD
BRANCH   3   6
HETATM    6  C9  UNL     1     -15.039  22.298  -2.769  1.00  0.00     0.082 C 
HETATM    7  C5  UNL     1     -14.410  23.607  -2.578  1.00  0.00    -0.001 C 
HETATM    8  C6  UNL     1     -15.341  24.700  -2.948  1.00  0.00     0.005 C 
HETATM    9  C7  UNL     1     -16.595  23.984  -3.447  1.00  0.00     0.001 C 
HETATM   10  C8  UNL     1     -16.525  22.599  -2.890  1.00  0.00     0.014 C 
BRANCH   7  11
HETATM   11  C4  UNL     1     -12.985  23.769  -2.989  1.00  0.00     0.009 C 
BRANCH  11  12
HETATM   12  C3  UNL     1     -12.230  24.854  -2.273  1.00  0.00     0.027 C 
BRANCH  12  13
HETATM   13  C2  UNL     1     -11.033  25.380  -2.929  1.00  0.00    -0.037 C 
HETATM   14  C1  UNL     1     -10.875  25.303  -4.239  1.00  0.00     0.007 C 
ENDBRANCH  12  13
ENDBRANCH  11  12
ENDBRANCH   7  11
ENDBRANCH   3   6
ENDBRANCH   1   2
BRANCH   1  15
HETATM   15  C12 UNL     1     -15.983  21.054  -7.186  1.00  0.00     0.243 C 
HETATM   16  O2  UNL     1     -16.806  22.017  -6.944  1.00  0.00    -0.271 OA
HETATM   17  N2  UNL     1     -16.459  20.087  -8.075  1.00  0.00    -0.344 N 
HETATM   18  C13 UNL     1     -17.788  20.305  -8.673  1.00  0.00     0.146 C 
HETATM   19  C22 UNL     1     -15.712  18.908  -8.361  1.00  0.00     0.170 C 
HETATM   20  C14 UNL     1     -18.540  18.994  -8.754  1.00  0.00     0.142 C 
HETATM   21  N3  UNL     1     -17.858  17.927  -8.102  1.00  0.00    -0.386 N 
HETATM   22  C21 UNL     1     -16.551  17.653  -8.510  1.00  0.00     0.078 C 
BRANCH  21  23
HETATM   23  C15 UNL     1     -18.667  16.880  -7.620  1.00  0.00     0.083 C 
HETATM   24  C16 UNL     1     -19.652  17.450  -6.590  1.00  0.00     0.025 C 
HETATM   25  C17 UNL     1     -20.240  16.225  -5.889  1.00  0.00     0.002 C 
HETATM   26  C18 UNL     1     -21.105  15.515  -6.908  1.00  0.00     0.000 C 
HETATM   27  C19 UNL     1     -20.249  15.009  -8.046  1.00  0.00     0.002 C 
HETATM   28  C20 UNL     1     -19.433  16.152  -8.660  1.00  0.00     0.025 C 
ENDBRANCH  21  23
ENDBRANCH   1  15
BRANCH   1  29
HETATM   29  C23 UNL     1     -13.739  22.028  -7.187  1.00  0.00     0.048 C 
HETATM   30  C24 UNL     1     -12.264  21.881  -6.793  1.00  0.00     0.022 C 
HETATM   31  C25 UNL     1     -11.780  23.186  -7.432  1.00  0.00     0.132 C 
HETATM   32  C31 UNL     1     -12.058  20.939  -7.907  1.00  0.00    -0.021 C 
HETATM   33  N4  UNL     1     -12.438  23.049  -8.709  1.00  0.00    -0.344 N 
HETATM   34  C26 UNL     1     -12.521  23.833  -9.865  1.00  0.00     0.262 C 
HETATM   35  C30 UNL     1     -13.158  21.734  -8.525  1.00  0.00     0.102 C 
HETATM   36  O3  UNL     1     -13.224  23.407 -10.840  1.00  0.00    -0.270 OA
HETATM   37  C32 UNL     1     -10.767  21.102  -8.707  1.00  0.00     0.017 C 
HETATM   38  C33 UNL     1     -12.268  19.476  -7.663  1.00  0.00     0.017 C 
BRANCH  34  39
HETATM   39  C27 UNL     1     -11.873  25.142 -10.088  1.00  0.00     0.376 C 
BRANCH  39  40
HETATM   40  N5  UNL     1     -12.230  25.639 -11.443  1.00  0.00    -0.056 N 
HETATM   41  C28 UNL     1     -12.982  26.859 -11.226  1.00  0.00     0.268 C 
ATOM     42  H52 UNL     1     -11.427  25.757 -12.060  1.00  0.00     0.278 HD
ATOM     43  H51 UNL     1     -12.722  24.951 -12.014  1.00  0.00     0.278 HD
ENDBRANCH  39  40
BRANCH  39  44
HETATM   44  C29 UNL     1     -10.385  25.096 -10.033  1.00  0.00     0.214 C 
HETATM   45  O4  UNL     1      -9.743  24.183 -10.664  1.00  0.00    -0.646 OA
HETATM   46  O5  UNL     1      -9.618  25.982  -9.338  1.00  0.00    -0.646 OA
ENDBRANCH  39  44
ENDBRANCH  34  39
ENDBRANCH   1  29
TORSDOF 11
ENDMDL
MODEL 4
REMARK VINA RESULT: -8.724781524      2.116      4.171
REMARK  11 active torsions:
REMARK  status: ('A' for Active; 'I' for Inactive)
REMARK    1  A    between atoms: C2_2  and  C3_3 
REMARK    2  A    between atoms: C3_3  and  C4_4 
REMARK    3  A    between atoms: C4_4  and  C5_5 
REMARK    4  A    between atoms: C9_9  and  C10_10 
REMARK       I    between atoms: C10_10  and  N1_12 
REMARK    5  A    between atoms: N1_12  and  C11_14 
REMARK    6  A    between atoms: C11_14  and  C12_15 
REMARK    7  A    between atoms: C11_14  and  C23_29 
REMARK       I    between atoms: C12_15  and  N2_17 
REMARK    8  A    between atoms: N3_20  and  C15_21 
REMARK       I    between atoms: N4_32  and  C26_33 
REMARK    9  A    between atoms: C26_33  and  C27_35 
REMARK   10  A    between atoms: C27_35  and  N5_36 
REMARK   11  A    between atoms: C27_35  and  C29_40 
ROOT
HETATM    1  C11 UNL     1     -20.646  17.541  -5.624  1.00  0.00     0.183 C 
ENDROOT
BRANCH   1   2
HETATM    2  N1  UNL     1     -20.170  18.243  -6.814  1.00  0.00    -0.347 N 
HETATM    3  C10 UNL     1     -19.122  17.937  -7.667  1.00  0.00     0.222 C 
HETATM    4  O1  UNL     1     -18.413  16.931  -7.491  1.00  0.00    -0.273 OA
ATOM      5  H1  UNL     1     -20.690  19.087  -7.054  1.00  0.00     0.163 HD
BRANCH   3   6
HETATM    6  C9  UNL     1     -18.808  18.815  -8.835  1.00  0.00     0.082 C 
HETATM    7  C5  UNL     1     -17.486  19.446  -8.879  1.00  0.00    -0.001 C 
HETATM    8  C6  UNL     1     -16.625  18.799  -9.899  1.00  0.00     0.005 C 
HETATM    9  C7  UNL     1     -17.482  17.666 -10.462  1.00  0.00     0.001 C 
HETATM   10  C8  UNL     1     -18.895  18.015 -10.126  1.00  0.00     0.014 C 
BRANCH   7  11
HETATM   11  C4  UNL     1     -16.839  19.812  -7.586  1.00  0.00     0.009 C 
BRANCH  11  12
HETATM   12  C3  UNL     1     -15.369  19.512  -7.498  1.00  0.00     0.027 C 
BRANCH  12  13
HETATM   13  C2  UNL     1     -14.448  20.643  -7.609  1.00  0.00    -0.037 C 
HETATM   14  C1  UNL     1     -14.881  21.859  -7.895  1.00  0.00     0.007 C 
ENDBRANCH  12  13
ENDBRANCH  11  12
ENDBRANCH   7  11
ENDBRANCH   3   6
ENDBRANCH   1   2
BRANCH   1  15
HETATM   15  C12 UNL     1     -20.318  18.460  -4.505  1.00  0.00     0.243 C 
HETATM   16  O2  UNL     1     -21.294  19.178  -4.061  1.00  0.00    -0.271 OA
HETATM   17  N2  UNL     1     -19.097  18.667  -3.859  1.00  0.00    -0.344 N 
HETATM   18  C13 UNL     1     -19.076  19.609  -2.726  1.00  0.00     0.146 C 
HETATM   19  C22 UNL     1     -17.903  18.030  -4.303  1.00  0.00     0.170 C 
HETATM   20  C14 UNL     1     -17.806  20.433  -2.762  1.00  0.00     0.142 C 
HETATM   21  N3  UNL     1     -17.040  20.211  -3.942  1.00  0.00    -0.386 N 
HETATM   22  C21 UNL     1     -16.661  18.897  -4.227  1.00  0.00     0.078 C 
BRANCH  21  23
HETATM   23  C15 UNL     1     -16.211  21.275  -4.349  1.00  0.00     0.083 C 
HETATM   24  C16 UNL     1     -16.853  22.598  -3.911  1.00  0.00     0.025 C 
HETATM   25  C17 UNL     1     -16.085  23.678  -4.671  1.00  0.00     0.002 C 
HETATM   26  C18 UNL     1     -14.689  23.708  -4.088  1.00  0.00     0.000 C 
HETATM   27  C19 UNL     1     -13.991  22.395  -4.355  1.00  0.00     0.002 C 
HETATM   28  C20 UNL     1     -14.824  21.222  -3.826  1.00  0.00     0.025 C 
ENDBRANCH  21  23
ENDBRANCH   1  15
BRANCH   1  29
HETATM   29  C23 UNL     1     -22.109  17.409  -5.799  1.00  0.00     0.048 C 
HETATM   30  C24 UNL     1     -22.574  17.067  -7.220  1.00  0.00     0.022 C 
HETATM   31  C25 UNL     1     -24.052  17.406  -7.008  1.00  0.00     0.132 C 
HETATM   32  C31 UNL     1     -22.570  15.634  -6.879  1.00  0.00    -0.021 C 
HETATM   33  N4  UNL     1     -24.247  16.716  -5.757  1.00  0.00    -0.344 N 
HETATM   34  C26 UNL     1     -25.323  16.551  -4.877  1.00  0.00     0.262 C 
HETATM   35  C30 UNL     1     -22.863  16.159  -5.514  1.00  0.00     0.102 C 
HETATM   36  O3  UNL     1     -25.142  15.867  -3.816  1.00  0.00    -0.270 OA
HETATM   37  C32 UNL     1     -23.746  14.807  -7.397  1.00  0.00     0.017 C 
HETATM   38  C33 UNL     1     -21.318  14.843  -7.099  1.00  0.00     0.017 C 
BRANCH  34  39
HETATM   39  C27 UNL     1     -26.683  17.103  -5.040  1.00  0.00     0.376 C 
BRANCH  39  40
HETATM   40  N5  UNL     1     -27.448  16.895  -3.782  1.00  0.00    -0.056 N 
HETATM   41  C28 UNL     1     -28.063  18.174  -3.483  1.00  0.00     0.268 C 
ATOM     42  H52 UNL     1     -28.112  16.123  -3.830  1.00  0.00     0.278 HD
ATOM     43  H51 UNL     1     -26.884  16.523  -3.018  1.00  0.00     0.278 HD
ENDBRANCH  39  40
BRANCH  39  44
HETATM   44  C29 UNL     1     -27.471  16.455  -6.126  1.00  0.00     0.214 C 
HETATM   45  O4  UNL     1     -27.289  15.217  -6.407  1.00  0.00    -0.646 OA
HETATM   46  O5  UNL     1     -28.409  17.098  -6.878  1.00  0.00    -0.646 OA
ENDBRANCH  39  44
ENDBRANCH  34  39
ENDBRANCH   1  29
TORSDOF 11
ENDMDL
MODEL 5
REMARK VINA RESULT: -8.622955233      0.811      1.049
REMARK  11 active torsions:
REMARK  status: ('A' for Active; 'I' for Inactive)
REMARK    1  A    between atoms: C2_2  and  C3_3 
REMARK    2  A    between atoms: C3_3  and  C4_4 
REMARK    3  A    between atoms: C4_4  and  C5_5 
REMARK    4  A    between atoms: C9_9  and  C10_10 
REMARK       I    between atoms: C10_10  and  N1_12 
REMARK    5  A    between atoms: N1_12  and  C11_14 
REMARK    6  A    between atoms: C11_14  and  C12_15 
REMARK    7  A    between atoms: C11_14  and  C23_29 
REMARK       I    between atoms: C12_15  and  N2_17 
REMARK    8  A    between atoms: N3_20  and  C15_21 
REMARK       I    between atoms: N4_32  and  C26_33 
REMARK    9  A    between atoms: C26_33  and  C27_35 
REMARK   10  A    between atoms: C27_35  and  N5_36 
REMARK   11  A    between atoms: C27_35  and  C29_40 
ROOT
HETATM    1  C11 UNL     1     -18.483  18.929  -4.793  1.00  0.00     0.183 C 
ENDROOT
BRANCH   1   2
HETATM    2  N1  UNL     1     -18.118  18.407  -6.109  1.00  0.00    -0.347 N 
HETATM    3  C10 UNL     1     -17.025  17.646  -6.491  1.00  0.00     0.222 C 
HETATM    4  O1  UNL     1     -16.161  17.290  -5.671  1.00  0.00    -0.273 OA
ATOM      5  H1  UNL     1     -18.767  18.639  -6.860  1.00  0.00     0.163 HD
BRANCH   3   6
HETATM    6  C9  UNL     1     -16.849  17.226  -7.915  1.00  0.00     0.082 C 
HETATM    7  C5  UNL     1     -18.056  16.991  -8.711  1.00  0.00    -0.001 C 
HETATM    8  C6  UNL     1     -18.267  18.086  -9.688  1.00  0.00     0.005 C 
HETATM    9  C7  UNL     1     -17.132  19.071  -9.412  1.00  0.00     0.001 C 
HETATM   10  C8  UNL     1     -16.085  18.294  -8.682  1.00  0.00     0.014 C 
BRANCH   7  11
HETATM   11  C4  UNL     1     -19.267  16.468  -8.014  1.00  0.00     0.009 C 
BRANCH  11  12
HETATM   12  C3  UNL     1     -20.581  16.879  -8.617  1.00  0.00     0.027 C 
BRANCH  12  13
HETATM   13  C2  UNL     1     -21.684  17.149  -7.694  1.00  0.00    -0.037 C 
HETATM   14  C1  UNL     1     -22.558  16.211  -7.372  1.00  0.00     0.007 C 
ENDBRANCH  12  13
ENDBRANCH  11  12
ENDBRANCH   7  11
ENDBRANCH   3   6
ENDBRANCH   1   2
BRANCH   1  15
HETATM   15  C12 UNL     1     -18.397  20.403  -4.950  1.00  0.00     0.243 C 
HETATM   16  O2  UNL     1     -19.310  20.944  -5.683  1.00  0.00    -0.271 OA
HETATM   17  N2  UNL     1     -17.465  21.297  -4.420  1.00  0.00    -0.344 N 
HETATM   18  C13 UNL     1     -17.661  22.731  -4.695  1.00  0.00     0.146 C 
HETATM   19  C22 UNL     1     -16.336  20.842  -3.679  1.00  0.00     0.170 C 
HETATM   20  C14 UNL     1     -16.326  23.395  -4.961  1.00  0.00     0.142 C 
HETATM   21  N3  UNL     1     -15.253  22.461  -5.036  1.00  0.00    -0.386 N 
HETATM   22  C21 UNL     1     -15.058  21.614  -3.942  1.00  0.00     0.078 C 
BRANCH  21  23
HETATM   23  C15 UNL     1     -14.147  22.852  -5.815  1.00  0.00     0.083 C 
HETATM   24  C16 UNL     1     -12.865  22.629  -5.001  1.00  0.00     0.025 C 
HETATM   25  C17 UNL     1     -11.777  23.379  -5.769  1.00  0.00     0.002 C 
HETATM   26  C18 UNL     1     -11.558  22.622  -7.061  1.00  0.00     0.000 C 
HETATM   27  C19 UNL     1     -12.810  22.670  -7.904  1.00  0.00     0.002 C 
HETATM   28  C20 UNL     1     -14.016  22.148  -7.113  1.00  0.00     0.025 C 
ENDBRANCH  21  23
ENDBRANCH   1  15
BRANCH   1  29
HETATM   29  C23 UNL     1     -19.878  18.493  -4.566  1.00  0.00     0.048 C 
HETATM   30  C24 UNL     1     -20.049  17.305  -3.610  1.00  0.00     0.022 C 
HETATM   31  C25 UNL     1     -21.503  16.992  -3.978  1.00  0.00     0.132 C 
HETATM   32  C31 UNL     1     -20.246  18.235  -2.486  1.00  0.00    -0.021 C 
HETATM   33  N4  UNL     1     -22.026  18.336  -3.922  1.00  0.00    -0.344 N 
HETATM   34  C26 UNL     1     -23.278  18.918  -4.149  1.00  0.00     0.262 C 
HETATM   35  C30 UNL     1     -20.782  19.116  -3.562  1.00  0.00     0.102 C 
HETATM   36  O3  UNL     1     -23.394  20.181  -4.020  1.00  0.00    -0.270 OA
HETATM   37  C32 UNL     1     -21.347  17.877  -1.490  1.00  0.00     0.017 C 
HETATM   38  C33 UNL     1     -19.050  18.688  -1.706  1.00  0.00     0.017 C 
BRANCH  34  39
HETATM   39  C27 UNL     1     -24.516  18.214  -4.540  1.00  0.00     0.376 C 
BRANCH  39  40
HETATM   40  N5  UNL     1     -25.228  19.015  -5.569  1.00  0.00    -0.056 N 
HETATM   41  C28 UNL     1     -25.662  18.064  -6.574  1.00  0.00     0.268 C 
ATOM     42  H52 UNL     1     -25.985  19.586  -5.192  1.00  0.00     0.278 HD
ATOM     43  H51 UNL     1     -24.673  19.784  -5.945  1.00  0.00     0.278 HD
ENDBRANCH  39  40
BRANCH  39  44
HETATM   44  C29 UNL     1     -25.477  18.015  -3.419  1.00  0.00     0.214 C 
HETATM   45  O4  UNL     1     -25.274  17.096  -2.548  1.00  0.00    -0.646 OA
HETATM   46  O5  UNL     1     -26.602  18.762  -3.235  1.00  0.00    -0.646 OA
ENDBRANCH  39  44
ENDBRANCH  34  39
ENDBRANCH   1  29
TORSDOF 11
ENDMDL
