MODEL 1
REMARK VINA RESULT: -9.253495918      0.000      0.000
REMARK  12 active torsions:
REMARK  status: ('A' for Active; 'I' for Inactive)
REMARK    1  A    between atoms: O1_2  and  C2_3 
REMARK    2  A    between atoms: C4_5  and  C5_6 
REMARK    3  A    between atoms: C8_9  and  C9_10 
REMARK    4  A    between atoms: C9_10  and  C10_12 
REMARK    5  A    between atoms: C10_12  and  N1_13 
REMARK    6  A    between atoms: C10_12  and  C29_41 
REMARK       I    between atoms: N1_13  and  C11_15 
REMARK    7  A    between atoms: C11_15  and  C12_17 
REMARK    8  A    between atoms: C12_17  and  N2_18 
REMARK    9  A    between atoms: C12_17  and  C25_37 
REMARK       I    between atoms: N2_18  and  C13_20 
REMARK   10  A    between atoms: C13_20  and  C14_22 
REMARK       I    between atoms: N3_26  and  C18_27 
REMARK   11  A    between atoms: C18_27  and  C19_29 
REMARK   12  A    between atoms: C19_29  and  N4_30 
ROOT
HETATM    1  C12 UNL     1     -17.411  19.905  -7.285  1.00  0.00     0.184 C 
ENDROOT
BRANCH   1   2
HETATM    2  C11 UNL     1     -16.456  20.953  -7.015  1.00  0.00     0.245 C 
HETATM    3  N1  UNL     1     -15.133  20.804  -6.551  1.00  0.00    -0.325 N 
ATOM      4  H1  UNL     1     -14.810  19.852  -6.379  1.00  0.00     0.169 HD
HETATM    5  O3  UNL     1     -16.817  22.171  -7.210  1.00  0.00    -0.271 OA
BRANCH   3   6
HETATM    6  C10 UNL     1     -14.190  21.868  -6.295  1.00  0.00     0.066 C 
BRANCH   6   7
HETATM    7  C9  UNL     1     -13.857  22.055  -4.895  1.00  0.00     0.179 C 
HETATM    8  O2  UNL     1     -13.362  21.005  -4.364  1.00  0.00    -0.291 OA
BRANCH   7   9
HETATM    9  C8  UNL     1     -13.943  23.147  -3.954  1.00  0.00     0.095 C 
HETATM   10  C2  UNL     1     -15.246  23.724  -3.521  1.00  0.00     0.133 C 
HETATM   11  C3  UNL     1     -14.958  25.000  -4.356  1.00  0.00     0.038 C 
HETATM   12  C4  UNL     1     -13.556  24.488  -4.500  1.00  0.00     0.005 C 
BRANCH  10  13
HETATM   13  O1  UNL     1     -15.417  24.121  -2.225  1.00  0.00    -0.390 OA
HETATM   14  C1  UNL     1     -15.018  23.245  -1.258  1.00  0.00     0.202 C 
ENDBRANCH  10  13
BRANCH  12  15
HETATM   15  C5  UNL     1     -12.512  25.268  -3.762  1.00  0.00    -0.018 C 
HETATM   16  C6  UNL     1     -11.813  24.551  -2.678  1.00  0.00     0.010 C 
HETATM   17  C7  UNL     1     -11.456  25.703  -4.791  1.00  0.00     0.010 C 
ENDBRANCH  12  15
ENDBRANCH   7   9
ENDBRANCH   6   7
BRANCH   6  18
HETATM   18  C29 UNL     1     -13.153  22.013  -7.350  1.00  0.00    -0.005 C 
HETATM   19  C30 UNL     1     -12.709  20.588  -7.807  1.00  0.00     0.021 C 
HETATM   20  C31 UNL     1     -13.685  22.616  -8.635  1.00  0.00     0.021 C 
HETATM   21  C32 UNL     1     -11.870  22.657  -6.964  1.00  0.00     0.021 C 
ENDBRANCH   6  18
ENDBRANCH   3   6
ENDBRANCH   1   2
BRANCH   1  22
HETATM   22  N2  UNL     1     -17.698  19.170  -6.064  1.00  0.00    -0.345 N 
HETATM   23  C13 UNL     1     -18.650  19.677  -5.096  1.00  0.00     0.241 C 
HETATM   24  O4  UNL     1     -19.163  20.753  -5.391  1.00  0.00    -0.271 OA
ATOM     25  H2  UNL     1     -17.223  18.285  -5.887  1.00  0.00     0.163 HD
BRANCH  23  26
HETATM   26  C14 UNL     1     -18.862  18.860  -3.941  1.00  0.00     0.179 C 
HETATM   27  C15 UNL     1     -19.297  19.649  -2.699  1.00  0.00     0.037 C 
HETATM   28  C16 UNL     1     -19.433  18.475  -1.711  1.00  0.00     0.022 C 
HETATM   29  C17 UNL     1     -19.404  17.211  -2.543  1.00  0.00     0.127 C 
HETATM   30  N3  UNL     1     -19.791  17.796  -3.888  1.00  0.00    -0.337 N 
HETATM   31  C18 UNL     1     -20.836  17.201  -4.592  1.00  0.00     0.238 C 
HETATM   32  O5  UNL     1     -21.381  16.168  -4.039  1.00  0.00    -0.272 OA
BRANCH  31  33
HETATM   33  C19 UNL     1     -21.432  17.564  -5.883  1.00  0.00     0.228 C 
BRANCH  33  34
HETATM   34  N4  UNL     1     -21.136  16.557  -6.921  1.00  0.00    -0.343 N 
HETATM   35  C20 UNL     1     -19.772  16.173  -7.129  1.00  0.00     0.126 C 
HETATM   36  C21 UNL     1     -19.661  15.036  -8.131  1.00  0.00     0.020 C 
HETATM   37  C22 UNL     1     -20.458  15.346  -9.381  1.00  0.00     0.011 C 
HETATM   38  C23 UNL     1     -21.918  15.294  -8.991  1.00  0.00     0.103 C 
HETATM   39  C24 UNL     1     -22.170  15.969  -7.695  1.00  0.00     0.220 C 
HETATM   40  O6  UNL     1     -23.340  16.022  -7.268  1.00  0.00    -0.273 OA
ENDBRANCH  33  34
ENDBRANCH  31  33
ENDBRANCH  23  26
ENDBRANCH   1  22
BRANCH   1  41
HETATM   41  C25 UNL     1     -17.089  18.892  -8.320  1.00  0.00    -0.022 C 
HETATM   42  C26 UNL     1     -16.204  19.326  -9.434  1.00  0.00     0.017 C 
HETATM   43  C27 UNL     1     -16.565  17.590  -7.718  1.00  0.00     0.017 C 
HETATM   44  C28 UNL     1     -18.427  18.511  -8.983  1.00  0.00     0.017 C 
ENDBRANCH   1  41
TORSDOF 12
ENDMDL
MODEL 2
REMARK VINA RESULT: -9.251232710      1.415      1.915
REMARK  12 active torsions:
REMARK  status: ('A' for Active; 'I' for Inactive)
REMARK    1  A    between atoms: O1_2  and  C2_3 
REMARK    2  A    between atoms: C4_5  and  C5_6 
REMARK    3  A    between atoms: C8_9  and  C9_10 
REMARK    4  A    between atoms: C9_10  and  C10_12 
REMARK    5  A    between atoms: C10_12  and  N1_13 
REMARK    6  A    between atoms: C10_12  and  C29_41 
REMARK       I    between atoms: N1_13  and  C11_15 
REMARK    7  A    between atoms: C11_15  and  C12_17 
REMARK    8  A    between atoms: C12_17  and  N2_18 
REMARK    9  A    between atoms: C12_17  and  C25_37 
REMARK       I    between atoms: N2_18  and  C13_20 
REMARK   10  A    between atoms: C13_20  and  C14_22 
REMARK       I    between atoms: N3_26  and  C18_27 
REMARK   11  A    between atoms: C18_27  and  C19_29 
REMARK   12  A    between atoms: C19_29  and  N4_30 
ROOT
HETATM    1  C12 UNL     1     -17.402  19.699  -7.636  1.00  0.00     0.184 C 
ENDROOT
BRANCH   1   2
HETATM    2  C11 UNL     1     -16.477  20.749  -7.281  1.00  0.00     0.245 C 
HETATM    3  N1  UNL     1     -15.189  20.602  -6.728  1.00  0.00    -0.325 N 
ATOM      4  H1  UNL     1     -14.870  19.649  -6.550  1.00  0.00     0.169 HD
HETATM    5  O3  UNL     1     -16.835  21.968  -7.482  1.00  0.00    -0.271 OA
BRANCH   3   6
HETATM    6  C10 UNL     1     -14.275  21.668  -6.389  1.00  0.00     0.066 C 
BRANCH   6   7
HETATM    7  C9  UNL     1     -14.034  21.826  -4.967  1.00  0.00     0.179 C 
HETATM    8  O2  UNL     1     -13.573  20.765  -4.427  1.00  0.00    -0.291 OA
BRANCH   7   9
HETATM    9  C8  UNL     1     -14.182  22.898  -4.010  1.00  0.00     0.095 C 
HETATM   10  C2  UNL     1     -15.515  23.415  -3.596  1.00  0.00     0.133 C 
HETATM   11  C3  UNL     1     -15.261  24.716  -4.404  1.00  0.00     0.038 C 
HETATM   12  C4  UNL     1     -13.837  24.262  -4.527  1.00  0.00     0.005 C 
BRANCH  10  13
HETATM   13  O1  UNL     1     -15.727  23.784  -2.297  1.00  0.00    -0.390 OA
HETATM   14  C1  UNL     1     -15.056  23.078  -1.342  1.00  0.00     0.202 C 
ENDBRANCH  10  13
BRANCH  12  15
HETATM   15  C5  UNL     1     -12.840  25.069  -3.756  1.00  0.00    -0.018 C 
HETATM   16  C6  UNL     1     -12.047  24.333  -2.753  1.00  0.00     0.010 C 
HETATM   17  C7  UNL     1     -11.860  25.676  -4.774  1.00  0.00     0.010 C 
ENDBRANCH  12  15
ENDBRANCH   7   9
ENDBRANCH   6   7
BRANCH   6  18
HETATM   18  C29 UNL     1     -13.175  21.847  -7.372  1.00  0.00    -0.005 C 
HETATM   19  C30 UNL     1     -12.680  20.437  -7.823  1.00  0.00     0.021 C 
HETATM   20  C31 UNL     1     -13.633  22.464  -8.678  1.00  0.00     0.021 C 
HETATM   21  C32 UNL     1     -11.930  22.502  -6.894  1.00  0.00     0.021 C 
ENDBRANCH   6  18
ENDBRANCH   3   6
ENDBRANCH   1   2
BRANCH   1  22
HETATM   22  N2  UNL     1     -17.856  19.014  -6.437  1.00  0.00    -0.345 N 
HETATM   23  C13 UNL     1     -19.234  19.114  -5.998  1.00  0.00     0.241 C 
HETATM   24  O4  UNL     1     -19.951  19.817  -6.706  1.00  0.00    -0.271 OA
ATOM     25  H2  UNL     1     -17.196  18.454  -5.897  1.00  0.00     0.163 HD
BRANCH  23  26
HETATM   26  C14 UNL     1     -19.567  18.385  -4.813  1.00  0.00     0.179 C 
HETATM   27  C15 UNL     1     -19.923  19.279  -3.618  1.00  0.00     0.037 C 
HETATM   28  C16 UNL     1     -20.223  18.179  -2.583  1.00  0.00     0.022 C 
HETATM   29  C17 UNL     1     -20.337  16.884  -3.357  1.00  0.00     0.127 C 
HETATM   30  N3  UNL     1     -20.623  17.448  -4.735  1.00  0.00    -0.337 N 
HETATM   31  C18 UNL     1     -21.721  16.955  -5.437  1.00  0.00     0.238 C 
HETATM   32  O5  UNL     1     -22.402  16.025  -4.852  1.00  0.00    -0.272 OA
BRANCH  31  33
HETATM   33  C19 UNL     1     -22.244  17.328  -6.757  1.00  0.00     0.228 C 
BRANCH  33  34
HETATM   34  N4  UNL     1     -23.533  16.666  -7.037  1.00  0.00    -0.343 N 
HETATM   35  C20 UNL     1     -23.525  15.276  -7.383  1.00  0.00     0.126 C 
HETATM   36  C21 UNL     1     -24.936  14.725  -7.504  1.00  0.00     0.020 C 
HETATM   37  C22 UNL     1     -25.785  15.619  -8.384  1.00  0.00     0.011 C 
HETATM   38  C23 UNL     1     -26.003  16.905  -7.617  1.00  0.00     0.103 C 
HETATM   39  C24 UNL     1     -24.760  17.377  -6.962  1.00  0.00     0.220 C 
HETATM   40  O6  UNL     1     -24.794  18.443  -6.316  1.00  0.00    -0.273 OA
ENDBRANCH  33  34
ENDBRANCH  31  33
ENDBRANCH  23  26
ENDBRANCH   1  22
BRANCH   1  41
HETATM   41  C25 UNL     1     -16.960  18.643  -8.581  1.00  0.00    -0.022 C 
HETATM   42  C26 UNL     1     -16.097  17.565  -8.029  1.00  0.00     0.017 C 
HETATM   43  C27 UNL     1     -18.125  18.031  -9.355  1.00  0.00     0.017 C 
HETATM   44  C28 UNL     1     -16.103  19.350  -9.649  1.00  0.00     0.017 C 
ENDBRANCH   1  41
TORSDOF 12
ENDMDL
MODEL 3
REMARK VINA RESULT: -9.243231748      0.987      1.567
REMARK  12 active torsions:
REMARK  status: ('A' for Active; 'I' for Inactive)
REMARK    1  A    between atoms: O1_2  and  C2_3 
REMARK    2  A    between atoms: C4_5  and  C5_6 
REMARK    3  A    between atoms: C8_9  and  C9_10 
REMARK    4  A    between atoms: C9_10  and  C10_12 
REMARK    5  A    between atoms: C10_12  and  N1_13 
REMARK    6  A    between atoms: C10_12  and  C29_41 
REMARK       I    between atoms: N1_13  and  C11_15 
REMARK    7  A    between atoms: C11_15  and  C12_17 
REMARK    8  A    between atoms: C12_17  and  N2_18 
REMARK    9  A    between atoms: C12_17  and  C25_37 
REMARK       I    between atoms: N2_18  and  C13_20 
REMARK   10  A    between atoms: C13_20  and  C14_22 
REMARK       I    between atoms: N3_26  and  C18_27 
REMARK   11  A    between atoms: C18_27  and  C19_29 
REMARK   12  A    between atoms: C19_29  and  N4_30 
ROOT
HETATM    1  C12 UNL     1     -17.474  19.830  -7.349  1.00  0.00     0.184 C 
ENDROOT
BRANCH   1   2
HETATM    2  C11 UNL     1     -16.512  20.864  -7.048  1.00  0.00     0.245 C 
HETATM    3  N1  UNL     1     -15.197  20.693  -6.571  1.00  0.00    -0.325 N 
ATOM      4  H1  UNL     1     -14.885  19.735  -6.413  1.00  0.00     0.169 HD
HETATM    5  O3  UNL     1     -16.860  22.089  -7.226  1.00  0.00    -0.271 OA
BRANCH   3   6
HETATM    6  C10 UNL     1     -14.246  21.743  -6.285  1.00  0.00     0.066 C 
BRANCH   6   7
HETATM    7  C9  UNL     1     -13.957  21.926  -4.875  1.00  0.00     0.179 C 
HETATM    8  O2  UNL     1     -13.480  20.874  -4.332  1.00  0.00    -0.291 OA
BRANCH   7   9
HETATM    9  C8  UNL     1     -14.070  23.015  -3.933  1.00  0.00     0.095 C 
HETATM   10  C2  UNL     1     -15.387  23.558  -3.500  1.00  0.00     0.133 C 
HETATM   11  C3  UNL     1     -15.132  24.842  -4.335  1.00  0.00     0.038 C 
HETATM   12  C4  UNL     1     -13.717  24.366  -4.480  1.00  0.00     0.005 C 
BRANCH  10  13
HETATM   13  O1  UNL     1     -15.568  23.951  -2.204  1.00  0.00    -0.390 OA
HETATM   14  C1  UNL     1     -14.984  23.179  -1.243  1.00  0.00     0.202 C 
ENDBRANCH  10  13
BRANCH  12  15
HETATM   15  C5  UNL     1     -12.694  25.171  -3.742  1.00  0.00    -0.018 C 
HETATM   16  C6  UNL     1     -11.909  24.446  -2.725  1.00  0.00     0.010 C 
HETATM   17  C7  UNL     1     -11.710  25.723  -4.786  1.00  0.00     0.010 C 
ENDBRANCH  12  15
ENDBRANCH   7   9
ENDBRANCH   6   7
BRANCH   6  18
HETATM   18  C29 UNL     1     -13.174  21.872  -7.305  1.00  0.00    -0.005 C 
HETATM   19  C30 UNL     1     -12.687  20.441  -7.696  1.00  0.00     0.021 C 
HETATM   20  C31 UNL     1     -13.669  22.420  -8.629  1.00  0.00     0.021 C 
HETATM   21  C32 UNL     1     -11.919  22.554  -6.896  1.00  0.00     0.021 C 
ENDBRANCH   6  18
ENDBRANCH   3   6
ENDBRANCH   1   2
BRANCH   1  22
HETATM   22  N2  UNL     1     -17.805  19.095  -6.140  1.00  0.00    -0.345 N 
HETATM   23  C13 UNL     1     -18.767  19.617  -5.190  1.00  0.00     0.241 C 
HETATM   24  O4  UNL     1     -19.249  20.706  -5.490  1.00  0.00    -0.271 OA
ATOM     25  H2  UNL     1     -17.354  18.198  -5.957  1.00  0.00     0.163 HD
BRANCH  23  26
HETATM   26  C14 UNL     1     -19.022  18.798  -4.045  1.00  0.00     0.179 C 
HETATM   27  C15 UNL     1     -19.678  19.552  -2.881  1.00  0.00     0.037 C 
HETATM   28  C16 UNL     1     -19.802  18.384  -1.884  1.00  0.00     0.022 C 
HETATM   29  C17 UNL     1     -19.544  17.120  -2.675  1.00  0.00     0.127 C 
HETATM   30  N3  UNL     1     -19.833  17.640  -4.069  1.00  0.00    -0.337 N 
HETATM   31  C18 UNL     1     -20.722  16.926  -4.871  1.00  0.00     0.238 C 
HETATM   32  O5  UNL     1     -21.215  15.848  -4.356  1.00  0.00    -0.272 OA
BRANCH  31  33
HETATM   33  C19 UNL     1     -21.201  17.205  -6.230  1.00  0.00     0.228 C 
BRANCH  33  34
HETATM   34  N4  UNL     1     -22.596  16.757  -6.416  1.00  0.00    -0.343 N 
HETATM   35  C20 UNL     1     -23.627  17.404  -5.660  1.00  0.00     0.126 C 
HETATM   36  C21 UNL     1     -25.006  16.918  -6.072  1.00  0.00     0.020 C 
HETATM   37  C22 UNL     1     -25.054  15.404  -6.094  1.00  0.00     0.011 C 
HETATM   38  C23 UNL     1     -24.193  14.958  -7.254  1.00  0.00     0.103 C 
HETATM   39  C24 UNL     1     -22.922  15.718  -7.326  1.00  0.00     0.220 C 
HETATM   40  O6  UNL     1     -22.105  15.431  -8.223  1.00  0.00    -0.273 OA
ENDBRANCH  33  34
ENDBRANCH  31  33
ENDBRANCH  23  26
ENDBRANCH   1  22
BRANCH   1  41
HETATM   41  C25 UNL     1     -17.139  18.817  -8.379  1.00  0.00    -0.022 C 
HETATM   42  C26 UNL     1     -16.360  19.287  -9.557  1.00  0.00     0.017 C 
HETATM   43  C27 UNL     1     -16.479  17.576  -7.783  1.00  0.00     0.017 C 
HETATM   44  C28 UNL     1     -18.481  18.317  -8.948  1.00  0.00     0.017 C 
ENDBRANCH   1  41
TORSDOF 12
ENDMDL
MODEL 4
REMARK VINA RESULT: -9.233398908      1.841      9.043
REMARK  12 active torsions:
REMARK  status: ('A' for Active; 'I' for Inactive)
REMARK    1  A    between atoms: O1_2  and  C2_3 
REMARK    2  A    between atoms: C4_5  and  C5_6 
REMARK    3  A    between atoms: C8_9  and  C9_10 
REMARK    4  A    between atoms: C9_10  and  C10_12 
REMARK    5  A    between atoms: C10_12  and  N1_13 
REMARK    6  A    between atoms: C10_12  and  C29_41 
REMARK       I    between atoms: N1_13  and  C11_15 
REMARK    7  A    between atoms: C11_15  and  C12_17 
REMARK    8  A    between atoms: C12_17  and  N2_18 
REMARK    9  A    between atoms: C12_17  and  C25_37 
REMARK       I    between atoms: N2_18  and  C13_20 
REMARK   10  A    between atoms: C13_20  and  C14_22 
REMARK       I    between atoms: N3_26  and  C18_27 
REMARK   11  A    between atoms: C18_27  and  C19_29 
REMARK   12  A    between atoms: C19_29  and  N4_30 
ROOT
HETATM    1  C12 UNL     1     -16.779  18.828  -8.332  1.00  0.00     0.184 C 
ENDROOT
BRANCH   1   2
HETATM    2  C11 UNL     1     -17.650  19.317  -7.291  1.00  0.00     0.245 C 
HETATM    3  N1  UNL     1     -18.088  18.620  -6.147  1.00  0.00    -0.325 N 
ATOM      4  H1  UNL     1     -17.760  17.660  -6.039  1.00  0.00     0.169 HD
HETATM    5  O3  UNL     1     -18.094  20.520  -7.384  1.00  0.00    -0.271 OA
BRANCH   3   6
HETATM    6  C10 UNL     1     -18.955  19.132  -5.111  1.00  0.00     0.066 C 
BRANCH   6   7
HETATM    7  C9  UNL     1     -20.240  18.466  -5.016  1.00  0.00     0.179 C 
HETATM    8  O2  UNL     1     -21.042  19.060  -4.219  1.00  0.00    -0.291 OA
BRANCH   7   9
HETATM    9  C8  UNL     1     -20.839  17.295  -5.611  1.00  0.00     0.095 C 
HETATM   10  C2  UNL     1     -20.287  16.655  -6.837  1.00  0.00     0.133 C 
HETATM   11  C3  UNL     1     -21.490  17.190  -7.658  1.00  0.00     0.038 C 
HETATM   12  C4  UNL     1     -22.123  17.541  -6.344  1.00  0.00     0.005 C 
BRANCH  10  13
HETATM   13  O1  UNL     1     -20.292  15.294  -6.955  1.00  0.00    -0.390 OA
HETATM   14  C1  UNL     1     -20.265  14.788  -8.222  1.00  0.00     0.202 C 
ENDBRANCH  10  13
BRANCH  12  15
HETATM   15  C5  UNL     1     -23.312  16.714  -5.966  1.00  0.00    -0.018 C 
HETATM   16  C6  UNL     1     -24.087  17.187  -4.803  1.00  0.00     0.010 C 
HETATM   17  C7  UNL     1     -24.256  16.692  -7.179  1.00  0.00     0.010 C 
ENDBRANCH  12  15
ENDBRANCH   7   9
ENDBRANCH   6   7
BRANCH   6  18
HETATM   18  C29 UNL     1     -18.231  19.568  -3.888  1.00  0.00    -0.005 C 
HETATM   19  C30 UNL     1     -16.699  19.552  -4.187  1.00  0.00     0.021 C 
HETATM   20  C31 UNL     1     -18.477  21.021  -3.531  1.00  0.00     0.021 C 
HETATM   21  C32 UNL     1     -18.347  18.709  -2.682  1.00  0.00     0.021 C 
ENDBRANCH   6  18
ENDBRANCH   3   6
ENDBRANCH   1   2
BRANCH   1  22
HETATM   22  N2  UNL     1     -15.903  19.896  -8.786  1.00  0.00    -0.345 N 
HETATM   23  C13 UNL     1     -14.615  20.121  -8.161  1.00  0.00     0.241 C 
HETATM   24  O4  UNL     1     -14.350  19.356  -7.237  1.00  0.00    -0.271 OA
ATOM     25  H2  UNL     1     -16.199  20.496  -9.557  1.00  0.00     0.163 HD
BRANCH  23  26
HETATM   26  C14 UNL     1     -13.835  21.191  -8.702  1.00  0.00     0.179 C 
HETATM   27  C15 UNL     1     -14.667  22.252  -9.434  1.00  0.00     0.037 C 
HETATM   28  C16 UNL     1     -13.528  23.203  -9.845  1.00  0.00     0.022 C 
HETATM   29  C17 UNL     1     -12.312  22.780  -9.049  1.00  0.00     0.127 C 
HETATM   30  N3  UNL     1     -13.003  22.031  -7.926  1.00  0.00    -0.337 N 
HETATM   31  C18 UNL     1     -12.674  22.357  -6.612  1.00  0.00     0.238 C 
HETATM   32  O5  UNL     1     -11.774  23.272  -6.460  1.00  0.00    -0.272 OA
BRANCH  31  33
HETATM   33  C19 UNL     1     -13.195  21.824  -5.348  1.00  0.00     0.228 C 
BRANCH  33  34
HETATM   34  N4  UNL     1     -13.940  22.850  -4.592  1.00  0.00    -0.343 N 
HETATM   35  C20 UNL     1     -13.219  23.677  -3.671  1.00  0.00     0.126 C 
HETATM   36  C21 UNL     1     -14.106  24.762  -3.085  1.00  0.00     0.020 C 
HETATM   37  C22 UNL     1     -15.401  24.171  -2.567  1.00  0.00     0.011 C 
HETATM   38  C23 UNL     1     -16.191  23.724  -3.776  1.00  0.00     0.103 C 
HETATM   39  C24 UNL     1     -15.337  23.030  -4.770  1.00  0.00     0.220 C 
HETATM   40  O6  UNL     1     -15.869  22.585  -5.807  1.00  0.00    -0.273 OA
ENDBRANCH  33  34
ENDBRANCH  31  33
ENDBRANCH  23  26
ENDBRANCH   1  22
BRANCH   1  41
HETATM   41  C25 UNL     1     -17.380  18.232  -9.550  1.00  0.00    -0.022 C 
HETATM   42  C26 UNL     1     -18.839  18.444  -9.753  1.00  0.00     0.017 C 
HETATM   43  C27 UNL     1     -16.619  18.607 -10.820  1.00  0.00     0.017 C 
HETATM   44  C28 UNL     1     -17.202  16.707  -9.418  1.00  0.00     0.017 C 
ENDBRANCH   1  41
TORSDOF 12
ENDMDL
MODEL 5
REMARK VINA RESULT: -9.170062386      0.963      1.964
REMARK  12 active torsions:
REMARK  status: ('A' for Active; 'I' for Inactive)
REMARK    1  A    between atoms: O1_2  and  C2_3 
REMARK    2  A    between atoms: C4_5  and  C5_6 
REMARK    3  A    between atoms: C8_9  and  C9_10 
REMARK    4  A    between atoms: C9_10  and  C10_12 
REMARK    5  A    between atoms: C10_12  and  N1_13 
REMARK    6  A    between atoms: C10_12  and  C29_41 
REMARK       I    between atoms: N1_13  and  C11_15 
REMARK    7  A    between atoms: C11_15  and  C12_17 
REMARK    8  A    between atoms: C12_17  and  N2_18 
REMARK    9  A    between atoms: C12_17  and  C25_37 
REMARK       I    between atoms: N2_18  and  C13_20 
REMARK   10  A    between atoms: C13_20  and  C14_22 
REMARK       I    between atoms: N3_26  and  C18_27 
REMARK   11  A    between atoms: C18_27  and  C19_29 
REMARK   12  A    between atoms: C19_29  and  N4_30 
ROOT
HETATM    1  C12 UNL     1     -17.036  19.924  -7.508  1.00  0.00     0.184 C 
ENDROOT
BRANCH   1   2
HETATM    2  C11 UNL     1     -16.056  20.978  -7.402  1.00  0.00     0.245 C 
HETATM    3  N1  UNL     1     -14.775  20.899  -6.818  1.00  0.00    -0.325 N 
ATOM      4  H1  UNL     1     -14.507  20.000  -6.418  1.00  0.00     0.169 HD
HETATM    5  O3  UNL     1     -16.350  22.133  -7.887  1.00  0.00    -0.271 OA
BRANCH   3   6
HETATM    6  C10 UNL     1     -13.806  21.966  -6.731  1.00  0.00     0.066 C 
BRANCH   6   7
HETATM    7  C9  UNL     1     -13.503  22.397  -5.379  1.00  0.00     0.179 C 
HETATM    8  O2  UNL     1     -13.293  21.417  -4.588  1.00  0.00    -0.291 OA
BRANCH   7   9
HETATM    9  C8  UNL     1     -13.372  23.670  -4.709  1.00  0.00     0.095 C 
HETATM   10  C2  UNL     1     -12.110  24.460  -4.742  1.00  0.00     0.133 C 
HETATM   11  C3  UNL     1     -11.851  24.107  -3.253  1.00  0.00     0.038 C 
HETATM   12  C4  UNL     1     -13.260  23.593  -3.217  1.00  0.00     0.005 C 
BRANCH  10  13
HETATM   13  O1  UNL     1     -12.163  25.822  -4.830  1.00  0.00    -0.390 OA
HETATM   14  C1  UNL     1     -10.989  26.465  -5.093  1.00  0.00     0.202 C 
ENDBRANCH  10  13
BRANCH  12  15
HETATM   15  C5  UNL     1     -14.216  24.406  -2.402  1.00  0.00    -0.018 C 
HETATM   16  C6  UNL     1     -15.345  25.008  -3.138  1.00  0.00     0.010 C 
HETATM   17  C7  UNL     1     -14.801  23.478  -1.325  1.00  0.00     0.010 C 
ENDBRANCH  12  15
ENDBRANCH   7   9
ENDBRANCH   6   7
BRANCH   6  18
HETATM   18  C29 UNL     1     -12.738  21.889  -7.763  1.00  0.00    -0.005 C 
HETATM   19  C30 UNL     1     -12.502  20.388  -8.119  1.00  0.00     0.021 C 
HETATM   20  C31 UNL     1     -13.151  22.479  -9.097  1.00  0.00     0.021 C 
HETATM   21  C32 UNL     1     -11.383  22.362  -7.382  1.00  0.00     0.021 C 
ENDBRANCH   6  18
ENDBRANCH   3   6
ENDBRANCH   1   2
BRANCH   1  22
HETATM   22  N2  UNL     1     -17.246  19.312  -6.206  1.00  0.00    -0.345 N 
HETATM   23  C13 UNL     1     -18.379  19.684  -5.382  1.00  0.00     0.241 C 
HETATM   24  O4  UNL     1     -19.111  20.542  -5.868  1.00  0.00    -0.271 OA
ATOM     25  H2  UNL     1     -16.587  18.611  -5.868  1.00  0.00     0.163 HD
BRANCH  23  26
HETATM   26  C14 UNL     1     -18.490  19.004  -4.128  1.00  0.00     0.179 C 
HETATM   27  C15 UNL     1     -18.704  19.943  -2.934  1.00  0.00     0.037 C 
HETATM   28  C16 UNL     1     -18.786  18.886  -1.816  1.00  0.00     0.022 C 
HETATM   29  C17 UNL     1     -18.951  17.549  -2.505  1.00  0.00     0.127 C 
HETATM   30  N3  UNL     1     -19.474  18.027  -3.846  1.00  0.00    -0.337 N 
HETATM   31  C18 UNL     1     -20.640  17.452  -4.346  1.00  0.00     0.238 C 
HETATM   32  O5  UNL     1     -21.175  16.526  -3.621  1.00  0.00    -0.272 OA
BRANCH  31  33
HETATM   33  C19 UNL     1     -21.376  17.733  -5.584  1.00  0.00     0.228 C 
BRANCH  33  34
HETATM   34  N4  UNL     1     -21.111  16.713  -6.617  1.00  0.00    -0.343 N 
HETATM   35  C20 UNL     1     -19.750  16.454  -6.987  1.00  0.00     0.126 C 
HETATM   36  C21 UNL     1     -19.650  15.289  -7.957  1.00  0.00     0.020 C 
HETATM   37  C22 UNL     1     -20.624  15.463  -9.103  1.00  0.00     0.011 C 
HETATM   38  C23 UNL     1     -22.012  15.287  -8.527  1.00  0.00     0.103 C 
HETATM   39  C24 UNL     1     -22.167  15.993  -7.232  1.00  0.00     0.220 C 
HETATM   40  O6  UNL     1     -23.274  15.951  -6.660  1.00  0.00    -0.273 OA
ENDBRANCH  33  34
ENDBRANCH  31  33
ENDBRANCH  23  26
ENDBRANCH   1  22
BRANCH   1  41
HETATM   41  C25 UNL     1     -16.794  18.813  -8.460  1.00  0.00    -0.022 C 
HETATM   42  C26 UNL     1     -16.127  17.597  -7.920  1.00  0.00     0.017 C 
HETATM   43  C27 UNL     1     -18.053  18.416  -9.226  1.00  0.00     0.017 C 
HETATM   44  C28 UNL     1     -15.835  19.364  -9.534  1.00  0.00     0.017 C 
ENDBRANCH   1  41
TORSDOF 12
ENDMDL
