MODEL 1
REMARK VINA RESULT: -9.885456988      0.000      0.000
REMARK  14 active torsions:
REMARK  status: ('A' for Active; 'I' for Inactive)
REMARK    1  A    between atoms: C2_2  and  C4_4 
REMARK    2  A    between atoms: C4_4  and  N1_5 
REMARK    3  A    between atoms: C4_4  and  C10_16 
REMARK       I    between atoms: N1_5  and  C5_7 
REMARK    4  A    between atoms: C5_7  and  C6_9 
REMARK    5  A    between atoms: C10_16  and  O2_17 
REMARK    6  A    between atoms: C10_16  and  N3_19 
REMARK    7  A    between atoms: N3_19  and  C11_21 
REMARK    8  A    between atoms: C11_21  and  C12_22 
REMARK    9  A    between atoms: C11_21  and  C28_41 
REMARK   10  A    between atoms: C12_22  and  C13_23 
REMARK       I    between atoms: N4_32  and  C22_33 
REMARK   11  A    between atoms: C22_33  and  C23_35 
REMARK   12  A    between atoms: C23_35  and  N5_36 
REMARK   13  A    between atoms: C28_41  and  O4_42 
REMARK   14  A    between atoms: C28_41  and  N6_44 
ROOT
HETATM    1  C11 UNL     1     -17.223  20.376  -4.793  1.00  0.00     0.160 C 
ENDROOT
BRANCH   1   2
HETATM    2  N3  UNL     1     -16.950  20.589  -6.255  1.00  0.00    -0.361 N 
ATOM      3  H3  UNL     1     -17.066  21.524  -6.646  1.00  0.00     0.162 HD
BRANCH   2   4
HETATM    4  C10 UNL     1     -16.543  19.554  -7.096  1.00  0.00     0.135 C 
BRANCH   4   5
HETATM    5  C4  UNL     1     -17.165  19.007  -8.302  1.00  0.00     0.162 C 
BRANCH   5   6
HETATM    6  C2  UNL     1     -16.332  18.827  -9.510  1.00  0.00     0.008 C 
HETATM    7  C1  UNL     1     -15.734  20.082 -10.057  1.00  0.00     0.012 C 
HETATM    8  C3  UNL     1     -17.132  18.171 -10.650  1.00  0.00     0.012 C 
ENDBRANCH   5   6
BRANCH   5   9
HETATM    9  N1  UNL     1     -17.766  17.724  -7.882  1.00  0.00    -0.347 N 
HETATM   10  C5  UNL     1     -19.148  17.624  -7.602  1.00  0.00     0.249 C 
HETATM   11  O1  UNL     1     -19.892  18.628  -7.699  1.00  0.00    -0.271 OA
ATOM     12  H1  UNL     1     -17.175  16.898  -7.794  1.00  0.00     0.163 HD
BRANCH  10  13
HETATM   13  C6  UNL     1     -19.745  16.322  -7.187  1.00  0.00     0.277 C 
HETATM   14  C7  UNL     1     -19.576  15.308  -8.299  1.00  0.00     0.044 C 
HETATM   15  C8  UNL     1     -20.898  15.335  -9.030  1.00  0.00     0.030 C 
HETATM   16  C9  UNL     1     -21.862  15.795  -7.987  1.00  0.00     0.233 C 
HETATM   17  N2  UNL     1     -21.142  16.395  -6.901  1.00  0.00    -0.062 N 
ATOM     18  H22 UNL     1     -21.378  15.982  -5.999  1.00  0.00     0.278 HD
ATOM     19  H21 UNL     1     -21.451  17.347  -6.704  1.00  0.00     0.278 HD
ENDBRANCH  10  13
ENDBRANCH   5   9
ENDBRANCH   4   5
BRANCH   4  20
HETATM   20  O2  UNL     1     -15.421  18.992  -6.737  1.00  0.00    -0.348 OA
ATOM     21  H2  UNL     1     -14.999  19.370  -5.973  1.00  0.00     0.219 HD
ENDBRANCH   4  20
ENDBRANCH   2   4
ENDBRANCH   1   2
BRANCH   1  22
HETATM   22  C12 UNL     1     -16.891  21.587  -4.029  1.00  0.00     0.059 C 
BRANCH  22  23
HETATM   23  C13 UNL     1     -15.433  21.601  -3.525  1.00  0.00     0.089 C 
HETATM   24  C14 UNL     1     -15.234  21.888  -2.129  1.00  0.00     0.030 C 
HETATM   25  C15 UNL     1     -14.736  23.233  -1.687  1.00  0.00    -0.013 C 
HETATM   26  C16 UNL     1     -15.735  24.331  -1.890  1.00  0.00     0.005 C 
HETATM   27  C20 UNL     1     -13.347  23.551  -2.106  1.00  0.00     0.005 C 
HETATM   28  C17 UNL     1     -15.576  25.145  -3.103  1.00  0.00     0.006 C 
HETATM   29  C18 UNL     1     -14.448  24.758  -4.023  1.00  0.00     0.004 C 
HETATM   30  C19 UNL     1     -13.225  24.539  -3.212  1.00  0.00     0.006 C 
HETATM   31  C21 UNL     1     -14.807  23.693  -4.994  1.00  0.00     0.130 C 
HETATM   32  N4  UNL     1     -14.709  22.345  -4.522  1.00  0.00    -0.345 N 
HETATM   33  C22 UNL     1     -13.678  21.633  -5.199  1.00  0.00     0.248 C 
HETATM   34  O3  UNL     1     -13.489  20.427  -4.805  1.00  0.00    -0.271 OA
BRANCH  33  35
HETATM   35  C23 UNL     1     -12.858  22.179  -6.281  1.00  0.00     0.374 C 
BRANCH  35  36
HETATM   36  N5  UNL     1     -13.229  21.556  -7.539  1.00  0.00     0.097 N 
HETATM   37  C24 UNL     1     -13.139  22.549  -8.585  1.00  0.00     0.273 C 
HETATM   38  C25 UNL     1     -11.671  22.749  -8.857  1.00  0.00     0.032 C 
HETATM   39  C26 UNL     1     -11.137  21.364  -8.687  1.00  0.00     0.032 C 
HETATM   40  C27 UNL     1     -12.168  20.613  -7.857  1.00  0.00     0.273 C 
ENDBRANCH  35  36
ENDBRANCH  33  35
ENDBRANCH  22  23
ENDBRANCH   1  22
BRANCH   1  41
HETATM   41  C28 UNL     1     -18.642  20.007  -4.756  1.00  0.00     0.137 C 
BRANCH  41  42
HETATM   42  O4  UNL     1     -19.366  20.635  -5.651  1.00  0.00    -0.348 OA
ATOM     43  H4  UNL     1     -20.246  20.835  -5.352  1.00  0.00     0.219 HD
ENDBRANCH  41  42
BRANCH  41  44
HETATM   44  N6  UNL     1     -19.374  19.124  -3.964  1.00  0.00    -0.364 N 
HETATM   45  C29 UNL     1     -18.640  18.505  -2.829  1.00  0.00     0.124 C 
HETATM   46  C30 UNL     1     -19.573  18.592  -1.643  1.00  0.00     0.020 C 
HETATM   47  C31 UNL     1     -20.760  17.643  -1.853  1.00  0.00     0.003 C 
HETATM   48  C32 UNL     1     -20.896  17.367  -3.307  1.00  0.00     0.020 C 
HETATM   49  C33 UNL     1     -20.738  18.695  -4.073  1.00  0.00     0.124 C 
ENDBRANCH  41  44
ENDBRANCH   1  41
TORSDOF 14
ENDMDL
MODEL 2
REMARK VINA RESULT: -9.864344652      1.667      8.410
REMARK  14 active torsions:
REMARK  status: ('A' for Active; 'I' for Inactive)
REMARK    1  A    between atoms: C2_2  and  C4_4 
REMARK    2  A    between atoms: C4_4  and  N1_5 
REMARK    3  A    between atoms: C4_4  and  C10_16 
REMARK       I    between atoms: N1_5  and  C5_7 
REMARK    4  A    between atoms: C5_7  and  C6_9 
REMARK    5  A    between atoms: C10_16  and  O2_17 
REMARK    6  A    between atoms: C10_16  and  N3_19 
REMARK    7  A    between atoms: N3_19  and  C11_21 
REMARK    8  A    between atoms: C11_21  and  C12_22 
REMARK    9  A    between atoms: C11_21  and  C28_41 
REMARK   10  A    between atoms: C12_22  and  C13_23 
REMARK       I    between atoms: N4_32  and  C22_33 
REMARK   11  A    between atoms: C22_33  and  C23_35 
REMARK   12  A    between atoms: C23_35  and  N5_36 
REMARK   13  A    between atoms: C28_41  and  O4_42 
REMARK   14  A    between atoms: C28_41  and  N6_44 
ROOT
HETATM    1  C11 UNL     1     -15.900  21.298  -6.947  1.00  0.00     0.160 C 
ENDROOT
BRANCH   1   2
HETATM    2  N3  UNL     1     -14.883  20.424  -6.270  1.00  0.00    -0.361 N 
ATOM      3  H3  UNL     1     -15.107  19.441  -6.112  1.00  0.00     0.162 HD
BRANCH   2   4
HETATM    4  C10 UNL     1     -13.645  20.909  -5.850  1.00  0.00     0.135 C 
BRANCH   4   5
HETATM    5  C4  UNL     1     -12.597  21.610  -6.592  1.00  0.00     0.162 C 
BRANCH   5   6
HETATM    6  C2  UNL     1     -12.616  21.554  -8.069  1.00  0.00     0.008 C 
HETATM    7  C1  UNL     1     -11.273  21.438  -8.713  1.00  0.00     0.012 C 
HETATM    8  C3  UNL     1     -13.301  22.795  -8.669  1.00  0.00     0.012 C 
ENDBRANCH   5   6
BRANCH   5   9
HETATM    9  N1  UNL     1     -12.654  23.008  -6.118  1.00  0.00    -0.347 N 
HETATM   10  C5  UNL     1     -11.511  23.644  -5.584  1.00  0.00     0.249 C 
HETATM   11  O1  UNL     1     -10.423  23.029  -5.496  1.00  0.00    -0.271 OA
ATOM     12  H1  UNL     1     -13.533  23.523  -6.179  1.00  0.00     0.163 HD
BRANCH  10  13
HETATM   13  C6  UNL     1     -11.580  25.059  -5.117  1.00  0.00     0.277 C 
HETATM   14  C7  UNL     1     -10.555  25.285  -4.026  1.00  0.00     0.044 C 
HETATM   15  C8  UNL     1     -11.340  25.141  -2.743  1.00  0.00     0.030 C 
HETATM   16  C9  UNL     1     -12.733  25.496  -3.147  1.00  0.00     0.233 C 
HETATM   17  N2  UNL     1     -12.850  25.424  -4.575  1.00  0.00    -0.062 N 
ATOM     18  H22 UNL     1     -13.215  26.284  -4.982  1.00  0.00     0.278 HD
ATOM     19  H21 UNL     1     -13.597  24.798  -4.876  1.00  0.00     0.278 HD
ENDBRANCH  10  13
ENDBRANCH   5   9
ENDBRANCH   4   5
BRANCH   4  20
HETATM   20  O2  UNL     1     -13.396  20.696  -4.586  1.00  0.00    -0.348 OA
ATOM     21  H2  UNL     1     -14.062  20.998  -3.980  1.00  0.00     0.219 HD
ENDBRANCH   4  20
ENDBRANCH   2   4
ENDBRANCH   1   2
BRANCH   1  22
HETATM   22  C12 UNL     1     -16.690  20.514  -7.907  1.00  0.00     0.059 C 
BRANCH  22  23
HETATM   23  C13 UNL     1     -16.616  18.995  -7.650  1.00  0.00     0.089 C 
HETATM   24  C14 UNL     1     -16.192  18.171  -8.752  1.00  0.00     0.030 C 
HETATM   25  C15 UNL     1     -17.186  17.356  -9.526  1.00  0.00    -0.013 C 
HETATM   26  C16 UNL     1     -18.118  18.186 -10.354  1.00  0.00     0.005 C 
HETATM   27  C20 UNL     1     -17.824  16.258  -8.756  1.00  0.00     0.005 C 
HETATM   28  C17 UNL     1     -19.439  18.462  -9.773  1.00  0.00     0.006 C 
HETATM   29  C18 UNL     1     -19.691  17.910  -8.395  1.00  0.00     0.004 C 
HETATM   30  C19 UNL     1     -19.237  16.497  -8.358  1.00  0.00     0.006 C 
HETATM   31  C21 UNL     1     -19.218  18.794  -7.300  1.00  0.00     0.130 C 
HETATM   32  N4  UNL     1     -17.834  18.683  -6.948  1.00  0.00    -0.345 N 
HETATM   33  C22 UNL     1     -17.675  18.155  -5.636  1.00  0.00     0.248 C 
HETATM   34  O3  UNL     1     -16.463  17.977  -5.255  1.00  0.00    -0.271 OA
BRANCH  33  35
HETATM   35  C23 UNL     1     -18.775  17.822  -4.730  1.00  0.00     0.374 C 
BRANCH  35  36
HETATM   36  N5  UNL     1     -19.020  18.932  -3.829  1.00  0.00     0.097 N 
HETATM   37  C24 UNL     1     -20.444  19.177  -3.783  1.00  0.00     0.273 C 
HETATM   38  C25 UNL     1     -21.039  18.073  -2.947  1.00  0.00     0.032 C 
HETATM   39  C26 UNL     1     -19.982  17.871  -1.910  1.00  0.00     0.032 C 
HETATM   40  C27 UNL     1     -18.702  18.453  -2.492  1.00  0.00     0.273 C 
ENDBRANCH  35  36
ENDBRANCH  33  35
ENDBRANCH  22  23
ENDBRANCH   1  22
BRANCH   1  41
HETATM   41  C28 UNL     1     -16.678  21.853  -5.835  1.00  0.00     0.137 C 
BRANCH  41  42
HETATM   42  O4  UNL     1     -17.973  21.815  -6.035  1.00  0.00    -0.348 OA
ATOM     43  H4  UNL     1     -18.254  22.332  -6.782  1.00  0.00     0.219 HD
ENDBRANCH  41  42
BRANCH  41  44
HETATM   44  N6  UNL     1     -16.318  22.409  -4.608  1.00  0.00    -0.364 N 
HETATM   45  C29 UNL     1     -16.610  21.582  -3.407  1.00  0.00     0.124 C 
HETATM   46  C30 UNL     1     -15.370  21.660  -2.546  1.00  0.00     0.020 C 
HETATM   47  C31 UNL     1     -15.232  23.076  -1.972  1.00  0.00     0.003 C 
HETATM   48  C32 UNL     1     -16.002  24.014  -2.831  1.00  0.00     0.020 C 
HETATM   49  C33 UNL     1     -15.716  23.674  -4.306  1.00  0.00     0.124 C 
ENDBRANCH  41  44
ENDBRANCH   1  41
TORSDOF 14
ENDMDL
MODEL 3
REMARK VINA RESULT: -9.620811849      1.423      5.999
REMARK  14 active torsions:
REMARK  status: ('A' for Active; 'I' for Inactive)
REMARK    1  A    between atoms: C2_2  and  C4_4 
REMARK    2  A    between atoms: C4_4  and  N1_5 
REMARK    3  A    between atoms: C4_4  and  C10_16 
REMARK       I    between atoms: N1_5  and  C5_7 
REMARK    4  A    between atoms: C5_7  and  C6_9 
REMARK    5  A    between atoms: C10_16  and  O2_17 
REMARK    6  A    between atoms: C10_16  and  N3_19 
REMARK    7  A    between atoms: N3_19  and  C11_21 
REMARK    8  A    between atoms: C11_21  and  C12_22 
REMARK    9  A    between atoms: C11_21  and  C28_41 
REMARK   10  A    between atoms: C12_22  and  C13_23 
REMARK       I    between atoms: N4_32  and  C22_33 
REMARK   11  A    between atoms: C22_33  and  C23_35 
REMARK   12  A    between atoms: C23_35  and  N5_36 
REMARK   13  A    between atoms: C28_41  and  O4_42 
REMARK   14  A    between atoms: C28_41  and  N6_44 
ROOT
HETATM    1  C11 UNL     1     -14.963  22.177  -7.102  1.00  0.00     0.160 C 
ENDROOT
BRANCH   1   2
HETATM    2  N3  UNL     1     -15.725  20.882  -7.063  1.00  0.00    -0.361 N 
ATOM      3  H3  UNL     1     -15.321  20.089  -6.566  1.00  0.00     0.162 HD
BRANCH   2   4
HETATM    4  C10 UNL     1     -16.964  20.728  -7.683  1.00  0.00     0.135 C 
BRANCH   4   5
HETATM    5  C4  UNL     1     -17.506  19.615  -8.464  1.00  0.00     0.162 C 
BRANCH   5   6
HETATM    6  C2  UNL     1     -16.564  18.721  -9.170  1.00  0.00     0.008 C 
HETATM    7  C1  UNL     1     -17.071  18.162 -10.459  1.00  0.00     0.012 C 
HETATM    8  C3  UNL     1     -16.155  17.527  -8.287  1.00  0.00     0.012 C 
ENDBRANCH   5   6
BRANCH   5   9
HETATM    9  N1  UNL     1     -18.348  18.851  -7.521  1.00  0.00    -0.347 N 
HETATM   10  C5  UNL     1     -19.710  18.595  -7.803  1.00  0.00     0.249 C 
HETATM   11  O1  UNL     1     -20.231  19.019  -8.861  1.00  0.00    -0.271 OA
ATOM     12  H1  UNL     1     -17.941  18.503  -6.653  1.00  0.00     0.163 HD
BRANCH  10  13
HETATM   13  C6  UNL     1     -20.548  17.816  -6.847  1.00  0.00     0.277 C 
HETATM   14  C7  UNL     1     -19.867  16.501  -6.529  1.00  0.00     0.044 C 
HETATM   15  C8  UNL     1     -20.532  15.506  -7.451  1.00  0.00     0.030 C 
HETATM   16  C9  UNL     1     -21.872  16.111  -7.706  1.00  0.00     0.233 C 
HETATM   17  N2  UNL     1     -21.847  17.500  -7.347  1.00  0.00    -0.062 N 
ATOM     18  H22 UNL     1     -22.589  17.748  -6.693  1.00  0.00     0.278 HD
ATOM     19  H21 UNL     1     -22.128  18.108  -8.116  1.00  0.00     0.278 HD
ENDBRANCH  10  13
ENDBRANCH   5   9
ENDBRANCH   4   5
BRANCH   4  20
HETATM   20  O2  UNL     1     -17.762  21.750  -7.530  1.00  0.00    -0.348 OA
ATOM     21  H2  UNL     1     -17.925  22.264  -8.312  1.00  0.00     0.219 HD
ENDBRANCH   4  20
ENDBRANCH   2   4
ENDBRANCH   1   2
BRANCH   1  22
HETATM   22  C12 UNL     1     -14.526  22.554  -5.750  1.00  0.00     0.059 C 
BRANCH  22  23
HETATM   23  C13 UNL     1     -15.585  23.368  -4.979  1.00  0.00     0.089 C 
HETATM   24  C14 UNL     1     -15.206  24.693  -4.562  1.00  0.00     0.030 C 
HETATM   25  C15 UNL     1     -14.859  24.974  -3.129  1.00  0.00    -0.013 C 
HETATM   26  C16 UNL     1     -13.572  24.343  -2.695  1.00  0.00     0.005 C 
HETATM   27  C20 UNL     1     -15.990  24.835  -2.177  1.00  0.00     0.005 C 
HETATM   28  C17 UNL     1     -13.679  23.067  -1.973  1.00  0.00     0.006 C 
HETATM   29  C18 UNL     1     -15.070  22.523  -1.785  1.00  0.00     0.004 C 
HETATM   30  C19 UNL     1     -15.953  23.620  -1.317  1.00  0.00     0.006 C 
HETATM   31  C21 UNL     1     -15.557  21.714  -2.931  1.00  0.00     0.130 C 
HETATM   32  N4  UNL     1     -16.133  22.442  -4.022  1.00  0.00    -0.345 N 
HETATM   33  C22 UNL     1     -17.523  22.169  -4.150  1.00  0.00     0.248 C 
HETATM   34  O3  UNL     1     -18.131  22.816  -5.075  1.00  0.00    -0.271 OA
BRANCH  33  35
HETATM   35  C23 UNL     1     -18.269  21.221  -3.320  1.00  0.00     0.374 C 
BRANCH  35  36
HETATM   36  N5  UNL     1     -18.635  20.061  -4.111  1.00  0.00     0.097 N 
HETATM   37  C24 UNL     1     -17.840  18.938  -3.669  1.00  0.00     0.273 C 
HETATM   38  C25 UNL     1     -18.416  18.501  -2.347  1.00  0.00     0.032 C 
HETATM   39  C26 UNL     1     -19.878  18.721  -2.563  1.00  0.00     0.032 C 
HETATM   40  C27 UNL     1     -19.991  19.708  -3.716  1.00  0.00     0.273 C 
ENDBRANCH  35  36
ENDBRANCH  33  35
ENDBRANCH  22  23
ENDBRANCH   1  22
BRANCH   1  41
HETATM   41  C28 UNL     1     -13.868  21.907  -8.039  1.00  0.00     0.137 C 
BRANCH  41  42
HETATM   42  O4  UNL     1     -13.503  20.647  -8.064  1.00  0.00    -0.348 OA
ATOM     43  H4  UNL     1     -13.317  20.292  -7.202  1.00  0.00     0.219 HD
ENDBRANCH  41  42
BRANCH  41  44
HETATM   44  N6  UNL     1     -13.140  22.717  -8.908  1.00  0.00    -0.364 N 
HETATM   45  C29 UNL     1     -11.704  22.911  -8.571  1.00  0.00     0.124 C 
HETATM   46  C30 UNL     1     -10.953  22.746  -9.872  1.00  0.00     0.020 C 
HETATM   47  C31 UNL     1     -11.259  23.933 -10.795  1.00  0.00     0.003 C 
HETATM   48  C32 UNL     1     -12.544  24.548 -10.368  1.00  0.00     0.020 C 
HETATM   49  C33 UNL     1     -13.556  23.420 -10.087  1.00  0.00     0.124 C 
ENDBRANCH  41  44
ENDBRANCH   1  41
TORSDOF 14
ENDMDL
MODEL 4
REMARK VINA RESULT: -9.567350041      1.403      3.593
REMARK  14 active torsions:
REMARK  status: ('A' for Active; 'I' for Inactive)
REMARK    1  A    between atoms: C2_2  and  C4_4 
REMARK    2  A    between atoms: C4_4  and  N1_5 
REMARK    3  A    between atoms: C4_4  and  C10_16 
REMARK       I    between atoms: N1_5  and  C5_7 
REMARK    4  A    between atoms: C5_7  and  C6_9 
REMARK    5  A    between atoms: C10_16  and  O2_17 
REMARK    6  A    between atoms: C10_16  and  N3_19 
REMARK    7  A    between atoms: N3_19  and  C11_21 
REMARK    8  A    between atoms: C11_21  and  C12_22 
REMARK    9  A    between atoms: C11_21  and  C28_41 
REMARK   10  A    between atoms: C12_22  and  C13_23 
REMARK       I    between atoms: N4_32  and  C22_33 
REMARK   11  A    between atoms: C22_33  and  C23_35 
REMARK   12  A    between atoms: C23_35  and  N5_36 
REMARK   13  A    between atoms: C28_41  and  O4_42 
REMARK   14  A    between atoms: C28_41  and  N6_44 
ROOT
HETATM    1  C11 UNL     1     -17.687  20.727  -5.200  1.00  0.00     0.160 C 
ENDROOT
BRANCH   1   2
HETATM    2  N3  UNL     1     -16.997  19.480  -4.725  1.00  0.00    -0.361 N 
ATOM      3  H3  UNL     1     -16.017  19.535  -4.446  1.00  0.00     0.162 HD
BRANCH   2   4
HETATM    4  C10 UNL     1     -17.649  18.249  -4.650  1.00  0.00     0.135 C 
BRANCH   4   5
HETATM    5  C4  UNL     1     -19.043  17.928  -4.344  1.00  0.00     0.162 C 
BRANCH   5   6
HETATM    6  C2  UNL     1     -19.848  18.915  -3.594  1.00  0.00     0.008 C 
HETATM    7  C1  UNL     1     -19.547  18.995  -2.132  1.00  0.00     0.012 C 
HETATM    8  C3  UNL     1     -21.355  18.630  -3.731  1.00  0.00     0.012 C 
ENDBRANCH   5   6
BRANCH   5   9
HETATM    9  N1  UNL     1     -19.668  17.623  -5.648  1.00  0.00    -0.347 N 
HETATM   10  C5  UNL     1     -20.260  16.363  -5.894  1.00  0.00     0.249 C 
HETATM   11  O1  UNL     1     -20.260  15.476  -5.009  1.00  0.00    -0.271 OA
ATOM     12  H1  UNL     1     -19.672  18.332  -6.381  1.00  0.00     0.163 HD
BRANCH  10  13
HETATM   13  C6  UNL     1     -20.894  16.070  -7.212  1.00  0.00     0.277 C 
HETATM   14  C7  UNL     1     -21.743  17.248  -7.641  1.00  0.00     0.044 C 
HETATM   15  C8  UNL     1     -23.144  16.869  -7.223  1.00  0.00     0.030 C 
HETATM   16  C9  UNL     1     -23.113  15.377  -7.216  1.00  0.00     0.233 C 
HETATM   17  N2  UNL     1     -21.751  14.927  -7.195  1.00  0.00    -0.062 N 
ATOM     18  H22 UNL     1     -21.543  14.272  -7.948  1.00  0.00     0.278 HD
ATOM     19  H21 UNL     1     -21.556  14.304  -6.411  1.00  0.00     0.278 HD
ENDBRANCH  10  13
ENDBRANCH   5   9
ENDBRANCH   4   5
BRANCH   4  20
HETATM   20  O2  UNL     1     -16.876  17.227  -4.900  1.00  0.00    -0.348 OA
ATOM     21  H2  UNL     1     -16.270  17.337  -5.623  1.00  0.00     0.219 HD
ENDBRANCH   4  20
ENDBRANCH   2   4
ENDBRANCH   1   2
BRANCH   1  22
HETATM   22  C12 UNL     1     -17.178  21.900  -4.475  1.00  0.00     0.059 C 
BRANCH  22  23
HETATM   23  C13 UNL     1     -15.798  21.658  -3.829  1.00  0.00     0.089 C 
HETATM   24  C14 UNL     1     -15.707  21.856  -2.405  1.00  0.00     0.030 C 
HETATM   25  C15 UNL     1     -15.053  23.084  -1.844  1.00  0.00    -0.013 C 
HETATM   26  C16 UNL     1     -15.839  24.337  -2.084  1.00  0.00     0.005 C 
HETATM   27  C20 UNL     1     -13.594  23.188  -2.104  1.00  0.00     0.005 C 
HETATM   28  C17 UNL     1     -15.425  25.160  -3.229  1.00  0.00     0.006 C 
HETATM   29  C18 UNL     1     -14.281  24.630  -4.052  1.00  0.00     0.004 C 
HETATM   30  C19 UNL     1     -13.201  24.184  -3.136  1.00  0.00     0.006 C 
HETATM   31  C21 UNL     1     -14.697  23.676  -5.111  1.00  0.00     0.130 C 
HETATM   32  N4  UNL     1     -14.863  22.312  -4.706  1.00  0.00    -0.345 N 
HETATM   33  C22 UNL     1     -13.891  21.469  -5.315  1.00  0.00     0.248 C 
HETATM   34  O3  UNL     1     -13.937  20.234  -4.972  1.00  0.00    -0.271 OA
BRANCH  33  35
HETATM   35  C23 UNL     1     -12.884  21.916  -6.279  1.00  0.00     0.374 C 
BRANCH  35  36
HETATM   36  N5  UNL     1     -13.202  21.393  -7.596  1.00  0.00     0.097 N 
HETATM   37  C24 UNL     1     -13.138  22.480  -8.546  1.00  0.00     0.273 C 
HETATM   38  C25 UNL     1     -11.675  22.769  -8.765  1.00  0.00     0.032 C 
HETATM   39  C26 UNL     1     -11.081  21.399  -8.707  1.00  0.00     0.032 C 
HETATM   40  C27 UNL     1     -12.092  20.531  -7.973  1.00  0.00     0.273 C 
ENDBRANCH  35  36
ENDBRANCH  33  35
ENDBRANCH  22  23
ENDBRANCH   1  22
BRANCH   1  41
HETATM   41  C28 UNL     1     -17.419  20.744  -6.641  1.00  0.00     0.137 C 
BRANCH  41  42
HETATM   42  O4  UNL     1     -17.103  21.932  -7.098  1.00  0.00    -0.348 OA
ATOM     43  H4  UNL     1     -17.719  22.610  -6.843  1.00  0.00     0.219 HD
ENDBRANCH  41  42
BRANCH  41  44
HETATM   44  N6  UNL     1     -17.431  19.753  -7.621  1.00  0.00    -0.364 N 
HETATM   45  C29 UNL     1     -16.101  19.311  -8.117  1.00  0.00     0.124 C 
HETATM   46  C30 UNL     1     -16.165  17.801  -8.167  1.00  0.00     0.020 C 
HETATM   47  C31 UNL     1     -17.119  17.365  -9.286  1.00  0.00     0.003 C 
HETATM   48  C32 UNL     1     -18.045  18.488  -9.586  1.00  0.00     0.020 C 
HETATM   49  C33 UNL     1     -18.534  19.088  -8.253  1.00  0.00     0.124 C 
ENDBRANCH  41  44
ENDBRANCH   1  41
TORSDOF 14
ENDMDL
MODEL 5
REMARK VINA RESULT: -9.494345552      1.893      9.293
REMARK  14 active torsions:
REMARK  status: ('A' for Active; 'I' for Inactive)
REMARK    1  A    between atoms: C2_2  and  C4_4 
REMARK    2  A    between atoms: C4_4  and  N1_5 
REMARK    3  A    between atoms: C4_4  and  C10_16 
REMARK       I    between atoms: N1_5  and  C5_7 
REMARK    4  A    between atoms: C5_7  and  C6_9 
REMARK    5  A    between atoms: C10_16  and  O2_17 
REMARK    6  A    between atoms: C10_16  and  N3_19 
REMARK    7  A    between atoms: N3_19  and  C11_21 
REMARK    8  A    between atoms: C11_21  and  C12_22 
REMARK    9  A    between atoms: C11_21  and  C28_41 
REMARK   10  A    between atoms: C12_22  and  C13_23 
REMARK       I    between atoms: N4_32  and  C22_33 
REMARK   11  A    between atoms: C22_33  and  C23_35 
REMARK   12  A    between atoms: C23_35  and  N5_36 
REMARK   13  A    between atoms: C28_41  and  O4_42 
REMARK   14  A    between atoms: C28_41  and  N6_44 
ROOT
HETATM    1  C11 UNL     1     -15.805  20.804  -6.473  1.00  0.00     0.160 C 
ENDROOT
BRANCH   1   2
HETATM    2  N3  UNL     1     -15.976  22.297  -6.443  1.00  0.00    -0.361 N 
ATOM      3  H3  UNL     1     -15.731  22.837  -7.272  1.00  0.00     0.162 HD
BRANCH   2   4
HETATM    4  C10 UNL     1     -16.459  22.969  -5.320  1.00  0.00     0.135 C 
BRANCH   4   5
HETATM    5  C4  UNL     1     -15.753  23.507  -4.157  1.00  0.00     0.162 C 
BRANCH   5   6
HETATM    6  C2  UNL     1     -16.082  22.972  -2.819  1.00  0.00     0.008 C 
HETATM    7  C1  UNL     1     -15.823  23.909  -1.684  1.00  0.00     0.012 C 
HETATM    8  C3  UNL     1     -15.301  21.678  -2.525  1.00  0.00     0.012 C 
ENDBRANCH   5   6
BRANCH   5   9
HETATM    9  N1  UNL     1     -14.317  23.329  -4.456  1.00  0.00    -0.347 N 
HETATM   10  C5  UNL     1     -13.415  24.413  -4.371  1.00  0.00     0.249 C 
HETATM   11  O1  UNL     1     -13.819  25.554  -4.044  1.00  0.00    -0.271 OA
ATOM     12  H1  UNL     1     -13.972  22.408  -4.728  1.00  0.00     0.163 HD
BRANCH  10  13
HETATM   13  C6  UNL     1     -11.966  24.218  -4.668  1.00  0.00     0.277 C 
HETATM   14  C7  UNL     1     -11.140  24.653  -3.475  1.00  0.00     0.044 C 
HETATM   15  C8  UNL     1     -10.710  26.060  -3.815  1.00  0.00     0.030 C 
HETATM   16  C9  UNL     1     -10.730  26.080  -5.307  1.00  0.00     0.233 C 
HETATM   17  N2  UNL     1     -11.503  24.972  -5.789  1.00  0.00    -0.062 N 
ATOM     18  H22 UNL     1     -10.990  24.399  -6.459  1.00  0.00     0.278 HD
ATOM     19  H21 UNL     1     -12.262  25.262  -6.405  1.00  0.00     0.278 HD
ENDBRANCH  10  13
ENDBRANCH   5   9
ENDBRANCH   4   5
BRANCH   4  20
HETATM   20  O2  UNL     1     -17.753  23.139  -5.323  1.00  0.00    -0.348 OA
ATOM     21  H2  UNL     1     -18.260  22.429  -5.700  1.00  0.00     0.219 HD
ENDBRANCH   4  20
ENDBRANCH   2   4
ENDBRANCH   1   2
BRANCH   1  22
HETATM   22  C12 UNL     1     -16.720  20.205  -7.455  1.00  0.00     0.059 C 
BRANCH  22  23
HETATM   23  C13 UNL     1     -16.852  18.676  -7.301  1.00  0.00     0.089 C 
HETATM   24  C14 UNL     1     -16.496  17.877  -8.445  1.00  0.00     0.030 C 
HETATM   25  C15 UNL     1     -17.557  17.250  -9.301  1.00  0.00    -0.013 C 
HETATM   26  C16 UNL     1     -18.343  18.247 -10.097  1.00  0.00     0.005 C 
HETATM   27  C20 UNL     1     -18.360  16.198  -8.627  1.00  0.00     0.005 C 
HETATM   28  C17 UNL     1     -19.638  18.656  -9.537  1.00  0.00     0.006 C 
HETATM   29  C18 UNL     1     -20.011  18.054  -8.208  1.00  0.00     0.004 C 
HETATM   30  C19 UNL     1     -19.745  16.594  -8.255  1.00  0.00     0.006 C 
HETATM   31  C21 UNL     1     -19.469  18.796  -7.042  1.00  0.00     0.130 C 
HETATM   32  N4  UNL     1     -18.126  18.482  -6.658  1.00  0.00    -0.345 N 
HETATM   33  C22 UNL     1     -18.085  17.854  -5.381  1.00  0.00     0.248 C 
HETATM   34  O3  UNL     1     -16.922  17.494  -4.979  1.00  0.00    -0.271 OA
BRANCH  33  35
HETATM   35  C23 UNL     1     -19.253  17.610  -4.533  1.00  0.00     0.374 C 
BRANCH  35  36
HETATM   36  N5  UNL     1     -19.408  18.701  -3.588  1.00  0.00     0.097 N 
HETATM   37  C24 UNL     1     -20.770  19.180  -3.664  1.00  0.00     0.273 C 
HETATM   38  C25 UNL     1     -21.622  18.153  -2.963  1.00  0.00     0.032 C 
HETATM   39  C26 UNL     1     -20.728  17.725  -1.845  1.00  0.00     0.032 C 
HETATM   40  C27 UNL     1     -19.316  18.110  -2.262  1.00  0.00     0.273 C 
ENDBRANCH  35  36
ENDBRANCH  33  35
ENDBRANCH  22  23
ENDBRANCH   1  22
BRANCH   1  41
HETATM   41  C28 UNL     1     -14.383  20.624  -6.783  1.00  0.00     0.137 C 
BRANCH  41  42
HETATM   42  O4  UNL     1     -13.834  19.621  -6.141  1.00  0.00    -0.348 OA
ATOM     43  H4  UNL     1     -13.070  19.265  -6.581  1.00  0.00     0.219 HD
ENDBRANCH  41  42
BRANCH  41  44
HETATM   44  N6  UNL     1     -13.500  21.302  -7.621  1.00  0.00    -0.364 N 
HETATM   45  C29 UNL     1     -13.947  21.485  -9.028  1.00  0.00     0.124 C 
HETATM   46  C30 UNL     1     -13.629  22.921  -9.374  1.00  0.00     0.020 C 
HETATM   47  C31 UNL     1     -12.108  23.103  -9.463  1.00  0.00     0.003 C 
HETATM   48  C32 UNL     1     -11.453  22.016  -8.688  1.00  0.00     0.020 C 
HETATM   49  C33 UNL     1     -12.202  21.849  -7.352  1.00  0.00     0.124 C 
ENDBRANCH  41  44
ENDBRANCH   1  41
TORSDOF 14
ENDMDL
