MODEL 1
REMARK VINA RESULT: -7.857779081      0.000      0.000
REMARK  2 active torsions:
REMARK  status: ('A' for Active; 'I' for Inactive)
REMARK    1  A    between atoms: N3_4  and  N4_6 
REMARK       I    between atoms: C2_8  and  N6_10 
REMARK    2  A    between atoms: N6_10  and  C3_12 
ROOT
HETATM    1  N4  UNL     1       6.653   3.402   1.298  1.00  0.00    -0.271 N 
ATOM      2  H4  UNL     1       5.826   3.901   1.626  1.00  0.00     0.189 HD
HETATM    3  C2  UNL     1       7.610   3.146   2.117  1.00  0.00     0.221 C 
HETATM    4  N5  UNL     1       8.795   2.463   1.766  1.00  0.00    -0.061 NA
HETATM    5  N6  UNL     1       7.426   3.593   3.449  1.00  0.00    -0.159 N 
ATOM      6  H6  UNL     1       7.205   2.946   4.206  1.00  0.00     0.187 HD
ENDROOT
BRANCH   5   7
HETATM    7  C3  UNL     1       7.552   4.880   3.660  1.00  0.00     0.716 A 
HETATM    8  N7  UNL     1       7.883   5.457   4.825  1.00  0.00    -0.115 N 
HETATM    9  N8  UNL     1       7.909   6.761   4.640  1.00  0.00    -0.213 N 
ATOM     10  H7  UNL     1       8.080   4.971   5.700  1.00  0.00     0.207 HD
HETATM   11  N9  UNL     1       7.604   7.035   3.390  1.00  0.00    -0.213 N 
ATOM     12  H8  UNL     1       8.132   7.453   5.355  1.00  0.00     0.210 HD
HETATM   13  N10 UNL     1       7.386   5.889   2.789  1.00  0.00    -0.115 N 
ATOM     14  H9  UNL     1       7.549   7.962   2.968  1.00  0.00     0.210 HD
ATOM     15  H10 UNL     1       7.130   5.780   1.809  1.00  0.00     0.207 HD
ENDBRANCH   5   7
BRANCH   1  16
HETATM   16  N3  UNL     1       6.737   3.006  -0.028  1.00  0.00    -0.274 N 
HETATM   17  C1  UNL     1       6.961   3.895  -0.927  1.00  0.00     0.215 C 
HETATM   18  N1  UNL     1       7.115   5.244  -0.540  1.00  0.00    -0.065 NA
HETATM   19  N2  UNL     1       7.038   3.441  -2.262  1.00  0.00    -0.065 NA
ATOM     20  H3  UNL     1       6.623   2.025  -0.285  1.00  0.00     0.189 HD
ENDBRANCH   1  16
TORSDOF 2
ENDMDL
MODEL 2
REMARK VINA RESULT: -7.494170080      1.294      1.818
REMARK  2 active torsions:
REMARK  status: ('A' for Active; 'I' for Inactive)
REMARK    1  A    between atoms: N3_4  and  N4_6 
REMARK       I    between atoms: C2_8  and  N6_10 
REMARK    2  A    between atoms: N6_10  and  C3_12 
ROOT
HETATM    1  N4  UNL     1       7.561   4.043   0.334  1.00  0.00    -0.271 N 
ATOM      2  H4  UNL     1       6.683   4.542   0.470  1.00  0.00     0.189 HD
HETATM    3  C2  UNL     1       7.949   3.182   1.207  1.00  0.00     0.221 C 
HETATM    4  N5  UNL     1       9.146   2.440   1.115  1.00  0.00    -0.061 NA
HETATM    5  N6  UNL     1       7.091   2.997   2.320  1.00  0.00    -0.159 N 
ATOM      6  H6  UNL     1       6.510   2.164   2.415  1.00  0.00     0.187 HD
ENDROOT
BRANCH   5   7
HETATM    7  C3  UNL     1       7.080   3.948   3.221  1.00  0.00     0.716 A 
HETATM    8  N7  UNL     1       6.098   4.842   3.408  1.00  0.00    -0.115 N 
HETATM    9  N8  UNL     1       6.453   5.632   4.402  1.00  0.00    -0.213 N 
ATOM     10  H7  UNL     1       5.231   4.901   2.876  1.00  0.00     0.207 HD
HETATM   11  N9  UNL     1       7.633   5.268   4.855  1.00  0.00    -0.213 N 
ATOM     12  H8  UNL     1       5.897   6.406   4.765  1.00  0.00     0.210 HD
HETATM   13  N10 UNL     1       8.018   4.240   4.136  1.00  0.00    -0.115 N 
ATOM     14  H9  UNL     1       8.150   5.703   5.619  1.00  0.00     0.210 HD
ATOM     15  H10 UNL     1       8.898   3.739   4.255  1.00  0.00     0.207 HD
ENDBRANCH   5   7
BRANCH   1  16
HETATM   16  N3  UNL     1       8.331   4.297  -0.792  1.00  0.00    -0.274 N 
HETATM   17  C1  UNL     1       7.895   3.917  -1.938  1.00  0.00     0.215 C 
HETATM   18  N1  UNL     1       6.651   3.255  -2.019  1.00  0.00    -0.065 NA
HETATM   19  N2  UNL     1       8.715   4.198  -3.053  1.00  0.00    -0.065 NA
ATOM     20  H3  UNL     1       9.227   4.777  -0.710  1.00  0.00     0.189 HD
ENDBRANCH   1  16
TORSDOF 2
ENDMDL
MODEL 3
REMARK VINA RESULT: -7.417791736      1.421      1.968
REMARK  2 active torsions:
REMARK  status: ('A' for Active; 'I' for Inactive)
REMARK    1  A    between atoms: N3_4  and  N4_6 
REMARK       I    between atoms: C2_8  and  N6_10 
REMARK    2  A    between atoms: N6_10  and  C3_12 
ROOT
HETATM    1  N4  UNL     1       7.019   3.076  -0.107  1.00  0.00    -0.271 N 
ATOM      2  H4  UNL     1       6.013   3.008   0.048  1.00  0.00     0.189 HD
HETATM    3  C2  UNL     1       7.829   2.930   0.881  1.00  0.00     0.221 C 
HETATM    4  N5  UNL     1       9.234   3.007   0.775  1.00  0.00    -0.061 NA
HETATM    5  N6  UNL     1       7.232   2.678   2.142  1.00  0.00    -0.159 N 
ATOM      6  H6  UNL     1       7.254   1.752   2.569  1.00  0.00     0.187 HD
ENDROOT
BRANCH   5   7
HETATM    7  C3  UNL     1       6.651   3.694   2.732  1.00  0.00     0.716 A 
HETATM    8  N7  UNL     1       5.345   3.994   2.674  1.00  0.00    -0.115 N 
HETATM    9  N8  UNL     1       5.146   5.081   3.392  1.00  0.00    -0.213 N 
ATOM     10  H7  UNL     1       4.632   3.474   2.164  1.00  0.00     0.207 HD
HETATM   11  N9  UNL     1       6.288   5.484   3.908  1.00  0.00    -0.213 N 
ATOM     12  H8  UNL     1       4.246   5.539   3.528  1.00  0.00     0.210 HD
HETATM   13  N10 UNL     1       7.208   4.638   3.507  1.00  0.00    -0.115 N 
ATOM     14  H9  UNL     1       6.430   6.298   4.505  1.00  0.00     0.210 HD
ATOM     15  H10 UNL     1       8.197   4.691   3.748  1.00  0.00     0.207 HD
ENDBRANCH   5   7
BRANCH   1  16
HETATM   16  N3  UNL     1       7.503   3.326  -1.382  1.00  0.00    -0.274 N 
HETATM   17  C1  UNL     1       7.454   4.525  -1.838  1.00  0.00     0.215 C 
HETATM   18  N1  UNL     1       6.910   5.549  -1.033  1.00  0.00    -0.065 NA
HETATM   19  N2  UNL     1       7.959   4.728  -3.142  1.00  0.00    -0.065 NA
ATOM     20  H3  UNL     1       7.892   2.571  -1.946  1.00  0.00     0.189 HD
ENDBRANCH   1  16
TORSDOF 2
ENDMDL
MODEL 4
REMARK VINA RESULT: -7.402269339      1.067      1.069
REMARK  2 active torsions:
REMARK  status: ('A' for Active; 'I' for Inactive)
REMARK    1  A    between atoms: N3_4  and  N4_6 
REMARK       I    between atoms: C2_8  and  N6_10 
REMARK    2  A    between atoms: N6_10  and  C3_12 
ROOT
HETATM    1  N4  UNL     1       6.743   3.464   0.539  1.00  0.00    -0.271 N 
ATOM      2  H4  UNL     1       5.829   3.916   0.551  1.00  0.00     0.189 HD
HETATM    3  C2  UNL     1       7.292   3.106   1.645  1.00  0.00     0.221 C 
HETATM    4  N5  UNL     1       8.552   2.476   1.740  1.00  0.00    -0.061 NA
HETATM    5  N6  UNL     1       6.553   3.379   2.824  1.00  0.00    -0.159 N 
ATOM      6  H6  UNL     1       6.077   2.639   3.340  1.00  0.00     0.187 HD
ENDROOT
BRANCH   5   7
HETATM    7  C3  UNL     1       6.512   4.628   3.217  1.00  0.00     0.716 A 
HETATM    8  N7  UNL     1       7.275   5.177   4.173  1.00  0.00    -0.115 N 
HETATM    9  N8  UNL     1       6.941   6.448   4.280  1.00  0.00    -0.213 N 
ATOM     10  H7  UNL     1       7.988   4.696   4.721  1.00  0.00     0.207 HD
HETATM   11  N9  UNL     1       5.986   6.726   3.419  1.00  0.00    -0.213 N 
ATOM     12  H8  UNL     1       7.359   7.113   4.929  1.00  0.00     0.210 HD
HETATM   13  N10 UNL     1       5.722   5.617   2.768  1.00  0.00    -0.115 N 
ATOM     14  H9  UNL     1       5.537   7.631   3.283  1.00  0.00     0.210 HD
ATOM     15  H10 UNL     1       5.022   5.522   2.033  1.00  0.00     0.207 HD
ENDBRANCH   5   7
BRANCH   1  16
HETATM   16  N3  UNL     1       7.386   3.242  -0.669  1.00  0.00    -0.274 N 
HETATM   17  C1  UNL     1       7.465   4.204  -1.515  1.00  0.00     0.215 C 
HETATM   18  N1  UNL     1       6.898   5.456  -1.191  1.00  0.00    -0.065 NA
HETATM   19  N2  UNL     1       8.129   3.928  -2.730  1.00  0.00    -0.065 NA
ATOM     20  H3  UNL     1       7.789   2.329  -0.882  1.00  0.00     0.189 HD
ENDBRANCH   1  16
TORSDOF 2
ENDMDL
MODEL 5
REMARK VINA RESULT: -7.285520761      1.649      2.081
REMARK  2 active torsions:
REMARK  status: ('A' for Active; 'I' for Inactive)
REMARK    1  A    between atoms: N3_4  and  N4_6 
REMARK       I    between atoms: C2_8  and  N6_10 
REMARK    2  A    between atoms: N6_10  and  C3_12 
ROOT
HETATM    1  N4  UNL     1       7.155   3.905  -0.344  1.00  0.00    -0.271 N 
ATOM      2  H4  UNL     1       6.310   4.437  -0.548  1.00  0.00     0.189 HD
HETATM    3  C2  UNL     1       7.302   3.358   0.810  1.00  0.00     0.221 C 
HETATM    4  N5  UNL     1       8.432   2.603   1.194  1.00  0.00    -0.061 NA
HETATM    5  N6  UNL     1       6.240   3.549   1.729  1.00  0.00    -0.159 N 
ATOM      6  H6  UNL     1       5.586   2.799   1.954  1.00  0.00     0.187 HD
ENDROOT
BRANCH   5   7
HETATM    7  C3  UNL     1       6.138   4.737   2.273  1.00  0.00     0.716 A 
HETATM    8  N7  UNL     1       4.996   5.401   2.502  1.00  0.00    -0.115 N 
HETATM    9  N8  UNL     1       5.303   6.555   3.060  1.00  0.00    -0.213 N 
ATOM     10  H7  UNL     1       4.056   5.072   2.284  1.00  0.00     0.207 HD
HETATM   11  N9  UNL     1       6.609   6.647   3.193  1.00  0.00    -0.213 N 
ATOM     12  H8  UNL     1       4.632   7.267   3.345  1.00  0.00     0.210 HD
HETATM   13  N10 UNL     1       7.121   5.538   2.714  1.00  0.00    -0.115 N 
ATOM     14  H9  UNL     1       7.124   7.431   3.593  1.00  0.00     0.210 HD
ATOM     15  H10 UNL     1       8.116   5.318   2.682  1.00  0.00     0.207 HD
ENDBRANCH   5   7
BRANCH   1  16
HETATM   16  N3  UNL     1       8.139   3.777  -1.313  1.00  0.00    -0.274 N 
HETATM   17  C1  UNL     1       8.026   4.448  -2.402  1.00  0.00     0.215 C 
HETATM   18  N1  UNL     1       6.909   5.292  -2.580  1.00  0.00    -0.065 NA
HETATM   19  N2  UNL     1       9.053   4.282  -3.358  1.00  0.00    -0.065 NA
ATOM     20  H3  UNL     1       8.937   3.160  -1.163  1.00  0.00     0.189 HD
ENDBRANCH   1  16
TORSDOF 2
ENDMDL
