MODEL 1
REMARK VINA RESULT: -7.063313880      0.000      0.000
REMARK  1 active torsions:
REMARK  status: ('A' for Active; 'I' for Inactive)
REMARK       I    between atoms: C1_4  and  N3_6 
REMARK    1  A    between atoms: N3_6  and  C2_8 
ROOT
HETATM    1  C2  UNL     1       6.677   3.675   2.228  1.00  0.00     0.692 A 
HETATM    2  N4  UNL     1       6.998   4.982   2.267  1.00  0.00    -0.141 N 
ATOM      3  H4  UNL     1       7.931   5.276   1.979  1.00  0.00     0.189 HD
HETATM    4  C3  UNL     1       6.114   5.904   2.677  1.00  0.00     0.342 A 
HETATM    5  O1  UNL     1       6.395   7.124   2.720  1.00  0.00    -0.246 OA
HETATM    6  N5  UNL     1       4.883   5.535   3.058  1.00  0.00    -0.260 N 
ATOM      7  H5  UNL     1       4.199   6.224   3.372  1.00  0.00     0.175 HD
HETATM    8  C4  UNL     1       4.581   4.233   3.013  1.00  0.00     0.342 A 
HETATM    9  O2  UNL     1       3.426   3.833   3.365  1.00  0.00    -0.246 OA
HETATM   10  N6  UNL     1       5.441   3.291   2.609  1.00  0.00    -0.141 N 
ATOM     11  H6  UNL     1       5.170   2.308   2.590  1.00  0.00     0.189 HD
ENDROOT
BRANCH   1  12
HETATM   12  N3  UNL     1       7.545   2.815   1.831  1.00  0.00    -0.163 N 
HETATM   13  C1  UNL     1       7.971   2.843   0.479  1.00  0.00     0.200 C 
HETATM   14  N1  UNL     1       7.250   2.268  -0.403  1.00  0.00    -0.373 N 
HETATM   15  N2  UNL     1       9.175   3.504   0.157  1.00  0.00    -0.063 NA
ATOM     16  H12 UNL     1       7.557   2.289  -1.376  1.00  0.00     0.158 HD
ATOM     17  H11 UNL     1       6.379   1.790  -0.170  1.00  0.00     0.158 HD
ATOM     18  H3  UNL     1       7.922   2.122   2.479  1.00  0.00     0.187 HD
ENDBRANCH   1  12
TORSDOF 1
ENDMDL
MODEL 2
REMARK VINA RESULT: -7.048200596      1.533      1.788
REMARK  1 active torsions:
REMARK  status: ('A' for Active; 'I' for Inactive)
REMARK       I    between atoms: C1_4  and  N3_6 
REMARK    1  A    between atoms: N3_6  and  C2_8 
ROOT
HETATM    1  C2  UNL     1       6.803   4.187   2.774  1.00  0.00     0.692 A 
HETATM    2  N4  UNL     1       7.554   4.726   3.753  1.00  0.00    -0.141 N 
ATOM      3  H4  UNL     1       8.371   4.220   4.093  1.00  0.00     0.189 HD
HETATM    4  C3  UNL     1       7.248   5.918   4.289  1.00  0.00     0.342 A 
HETATM    5  O1  UNL     1       7.934   6.435   5.200  1.00  0.00    -0.246 OA
HETATM    6  N5  UNL     1       6.178   6.598   3.853  1.00  0.00    -0.260 N 
ATOM      7  H5  UNL     1       5.933   7.505   4.250  1.00  0.00     0.175 HD
HETATM    8  C4  UNL     1       5.444   6.047   2.880  1.00  0.00     0.342 A 
HETATM    9  O2  UNL     1       4.419   6.653   2.433  1.00  0.00    -0.246 OA
HETATM   10  N6  UNL     1       5.724   4.862   2.327  1.00  0.00    -0.141 N 
ATOM     11  H6  UNL     1       5.138   4.478   1.586  1.00  0.00     0.189 HD
ENDROOT
BRANCH   1  12
HETATM   12  N3  UNL     1       7.122   3.043   2.281  1.00  0.00    -0.163 N 
HETATM   13  C1  UNL     1       7.605   2.981   0.949  1.00  0.00     0.200 C 
HETATM   14  N1  UNL     1       6.762   2.969  -0.009  1.00  0.00    -0.373 N 
HETATM   15  N2  UNL     1       8.998   2.934   0.731  1.00  0.00    -0.063 NA
ATOM     16  H12 UNL     1       7.110   2.923  -0.967  1.00  0.00     0.158 HD
ATOM     17  H11 UNL     1       5.755   3.003   0.149  1.00  0.00     0.158 HD
ATOM     18  H3  UNL     1       7.028   2.194   2.839  1.00  0.00     0.187 HD
ENDBRANCH   1  12
TORSDOF 1
ENDMDL
MODEL 3
REMARK VINA RESULT: -7.003946379      0.562      2.331
REMARK  1 active torsions:
REMARK  status: ('A' for Active; 'I' for Inactive)
REMARK       I    between atoms: C1_4  and  N3_6 
REMARK    1  A    between atoms: N3_6  and  C2_8 
ROOT
HETATM    1  C2  UNL     1       6.594   3.738   1.821  1.00  0.00     0.692 A 
HETATM    2  N4  UNL     1       5.408   3.359   2.333  1.00  0.00    -0.141 N 
ATOM      3  H4  UNL     1       5.111   2.387   2.240  1.00  0.00     0.189 HD
HETATM    4  C3  UNL     1       4.611   4.234   2.964  1.00  0.00     0.342 A 
HETATM    5  O1  UNL     1       3.504   3.899   3.447  1.00  0.00    -0.246 OA
HETATM    6  N5  UNL     1       4.987   5.513   3.097  1.00  0.00    -0.260 N 
ATOM      7  H5  UNL     1       4.392   6.191   3.574  1.00  0.00     0.175 HD
HETATM    8  C4  UNL     1       6.168   5.872   2.582  1.00  0.00     0.342 A 
HETATM    9  O2  UNL     1       6.569   7.076   2.681  1.00  0.00    -0.246 OA
HETATM   10  N6  UNL     1       6.983   5.023   1.947  1.00  0.00    -0.141 N 
ATOM     11  H6  UNL     1       7.877   5.338   1.569  1.00  0.00     0.189 HD
ENDROOT
BRANCH   1  12
HETATM   12  N3  UNL     1       7.336   2.876   1.221  1.00  0.00    -0.163 N 
HETATM   13  C1  UNL     1       7.416   2.906  -0.194  1.00  0.00     0.200 C 
HETATM   14  N1  UNL     1       6.499   2.335  -0.872  1.00  0.00    -0.373 N 
HETATM   15  N2  UNL     1       8.506   3.565  -0.802  1.00  0.00    -0.063 NA
ATOM     16  H12 UNL     1       6.557   2.356  -1.891  1.00  0.00     0.158 HD
ATOM     17  H11 UNL     1       5.711   1.859  -0.433  1.00  0.00     0.158 HD
ATOM     18  H3  UNL     1       7.859   2.181   1.756  1.00  0.00     0.187 HD
ENDBRANCH   1  12
TORSDOF 1
ENDMDL
MODEL 4
REMARK VINA RESULT: -6.988716001      1.561      2.271
REMARK  1 active torsions:
REMARK  status: ('A' for Active; 'I' for Inactive)
REMARK       I    between atoms: C1_4  and  N3_6 
REMARK    1  A    between atoms: N3_6  and  C2_8 
ROOT
HETATM    1  C2  UNL     1       6.811   4.183   2.886  1.00  0.00     0.692 A 
HETATM    2  N4  UNL     1       5.763   4.856   2.375  1.00  0.00    -0.141 N 
ATOM      3  H4  UNL     1       5.233   4.446   1.606  1.00  0.00     0.189 HD
HETATM    4  C3  UNL     1       5.401   6.054   2.859  1.00  0.00     0.342 A 
HETATM    5  O1  UNL     1       4.428   6.694   2.397  1.00  0.00    -0.246 OA
HETATM    6  N5  UNL     1       6.085   6.606   3.871  1.00  0.00    -0.260 N 
ATOM      7  H5  UNL     1       5.823   7.516   4.250  1.00  0.00     0.175 HD
HETATM    8  C4  UNL     1       7.124   5.924   4.366  1.00  0.00     0.342 A 
HETATM    9  O2  UNL     1       7.805   6.406   5.326  1.00  0.00    -0.246 OA
HETATM   10  N6  UNL     1       7.508   4.729   3.904  1.00  0.00    -0.141 N 
ATOM     11  H6  UNL     1       8.306   4.242   4.311  1.00  0.00     0.189 HD
ENDROOT
BRANCH   1  12
HETATM   12  N3  UNL     1       7.134   3.037   2.400  1.00  0.00    -0.163 N 
HETATM   13  C1  UNL     1       7.616   2.967   1.069  1.00  0.00     0.200 C 
HETATM   14  N1  UNL     1       6.772   2.946   0.112  1.00  0.00    -0.373 N 
HETATM   15  N2  UNL     1       9.009   2.924   0.849  1.00  0.00    -0.063 NA
ATOM     16  H12 UNL     1       7.120   2.895  -0.847  1.00  0.00     0.158 HD
ATOM     17  H11 UNL     1       5.765   2.977   0.270  1.00  0.00     0.158 HD
ATOM     18  H3  UNL     1       7.043   2.192   2.964  1.00  0.00     0.187 HD
ENDBRANCH   1  12
TORSDOF 1
ENDMDL
MODEL 5
REMARK VINA RESULT: -6.950716608      2.517      4.368
REMARK  1 active torsions:
REMARK  status: ('A' for Active; 'I' for Inactive)
REMARK       I    between atoms: C1_4  and  N3_6 
REMARK    1  A    between atoms: N3_6  and  C2_8 
ROOT
HETATM    1  C2  UNL     1       6.566   3.923   2.272  1.00  0.00     0.692 A 
HETATM    2  N4  UNL     1       6.517   4.341   0.993  1.00  0.00    -0.141 N 
ATOM      3  H4  UNL     1       5.819   5.032   0.719  1.00  0.00     0.189 HD
HETATM    4  C3  UNL     1       7.370   3.866   0.072  1.00  0.00     0.342 A 
HETATM    5  O1  UNL     1       7.340   4.243  -1.122  1.00  0.00    -0.246 OA
HETATM    6  N5  UNL     1       8.294   2.958   0.415  1.00  0.00    -0.260 N 
ATOM      7  H5  UNL     1       8.950   2.587  -0.273  1.00  0.00     0.175 HD
HETATM    8  C4  UNL     1       8.327   2.554   1.690  1.00  0.00     0.342 A 
HETATM    9  O2  UNL     1       9.186   1.693   2.064  1.00  0.00    -0.246 OA
HETATM   10  N6  UNL     1       7.491   3.010   2.629  1.00  0.00    -0.141 N 
ATOM     11  H6  UNL     1       7.551   2.675   3.591  1.00  0.00     0.189 HD
ENDROOT
BRANCH   1  12
HETATM   12  N3  UNL     1       5.735   4.397   3.131  1.00  0.00    -0.163 N 
HETATM   13  C1  UNL     1       5.474   5.790   3.137  1.00  0.00     0.200 C 
HETATM   14  N1  UNL     1       6.284   6.563   3.749  1.00  0.00    -0.373 N 
HETATM   15  N2  UNL     1       4.329   6.273   2.468  1.00  0.00    -0.063 NA
ATOM     16  H12 UNL     1       6.096   7.566   3.753  1.00  0.00     0.158 HD
ATOM     17  H11 UNL     1       7.112   6.214   4.232  1.00  0.00     0.158 HD
ATOM     18  H3  UNL     1       5.271   3.779   3.797  1.00  0.00     0.187 HD
ENDBRANCH   1  12
TORSDOF 1
ENDMDL
