MODEL 1
REMARK VINA RESULT: -6.517587881      0.000      0.000
REMARK  1 active torsions:
REMARK  status: ('A' for Active; 'I' for Inactive)
REMARK       I    between atoms: C1_4  and  N3_6 
REMARK    1  A    between atoms: C3_13  and  C4_14 
ROOT
HETATM    1  N1  UNL     1       7.091   2.921   2.099  1.00  0.00    -0.372 N 
ATOM      2  H11 UNL     1       7.069   2.637   3.078  1.00  0.00     0.158 HD
ATOM      3  H12 UNL     1       7.096   2.249   1.332  1.00  0.00     0.158 HD
HETATM    4  C1  UNL     1       7.113   4.169   1.812  1.00  0.00     0.209 C 
HETATM    5  N2  UNL     1       7.144   4.563   0.451  1.00  0.00    -0.062 NA
HETATM    6  N3  UNL     1       7.106   5.110   2.885  1.00  0.00    -0.202 N 
HETATM    7  N4  UNL     1       8.118   5.570   3.599  1.00  0.00    -0.240 N 
ATOM      8  H4  UNL     1       9.090   5.291   3.462  1.00  0.00     0.192 HD
HETATM    9  C2  UNL     1       7.712   6.447   4.525  1.00  0.00     0.341 A 
HETATM   10  O1  UNL     1       8.422   7.071   5.370  1.00  0.00    -0.245 OA
HETATM   11  N5  UNL     1       6.379   6.531   4.370  1.00  0.00    -0.288 N 
ATOM     12  H5  UNL     1       5.755   7.119   4.923  1.00  0.00     0.172 HD
HETATM   13  C3  UNL     1       5.992   5.703   3.354  1.00  0.00     0.200 A 
ENDROOT
BRANCH  13  14
HETATM   14  C4  UNL     1       4.647   5.500   2.869  1.00  0.00     0.300 C 
HETATM   15  N6  UNL     1       4.038   4.243   3.030  1.00  0.00    -0.054 NA
HETATM   16  O2  UNL     1       4.034   6.428   2.314  1.00  0.00    -0.268 OA
ENDBRANCH  13  14
TORSDOF 1
ENDMDL
MODEL 2
REMARK VINA RESULT: -6.443332272      2.059      2.425
REMARK  1 active torsions:
REMARK  status: ('A' for Active; 'I' for Inactive)
REMARK       I    between atoms: C1_4  and  N3_6 
REMARK    1  A    between atoms: C3_13  and  C4_14 
ROOT
HETATM    1  N1  UNL     1       6.052   3.053   2.674  1.00  0.00    -0.372 N 
ATOM      2  H11 UNL     1       5.287   3.658   2.972  1.00  0.00     0.158 HD
ATOM      3  H12 UNL     1       5.899   2.118   2.296  1.00  0.00     0.158 HD
HETATM    4  C1  UNL     1       7.257   3.478   2.772  1.00  0.00     0.209 C 
HETATM    5  N2  UNL     1       8.320   2.638   2.357  1.00  0.00    -0.062 NA
HETATM    6  N3  UNL     1       7.471   4.786   3.300  1.00  0.00    -0.202 N 
HETATM    7  N4  UNL     1       7.556   5.174   4.560  1.00  0.00    -0.240 N 
ATOM      8  H4  UNL     1       7.473   4.547   5.361  1.00  0.00     0.192 HD
HETATM    9  C2  UNL     1       7.765   6.493   4.658  1.00  0.00     0.341 A 
HETATM   10  O1  UNL     1       7.892   7.184   5.713  1.00  0.00    -0.245 OA
HETATM   11  N5  UNL     1       7.810   6.938   3.390  1.00  0.00    -0.288 N 
ATOM     12  H5  UNL     1       7.958   7.907   3.108  1.00  0.00     0.172 HD
HETATM   13  C3  UNL     1       7.629   5.885   2.539  1.00  0.00     0.200 A 
ENDROOT
BRANCH  13  14
HETATM   14  C4  UNL     1       7.610   5.934   1.095  1.00  0.00     0.300 C 
HETATM   15  N6  UNL     1       6.524   5.371   0.400  1.00  0.00    -0.054 NA
HETATM   16  O2  UNL     1       8.544   6.468   0.474  1.00  0.00    -0.268 OA
ENDBRANCH  13  14
TORSDOF 1
ENDMDL
MODEL 3
REMARK VINA RESULT: -6.389587404      2.134      4.027
REMARK  1 active torsions:
REMARK  status: ('A' for Active; 'I' for Inactive)
REMARK       I    between atoms: C1_4  and  N3_6 
REMARK    1  A    between atoms: C3_13  and  C4_14 
ROOT
HETATM    1  N1  UNL     1       8.041   6.154   4.381  1.00  0.00    -0.372 N 
ATOM      2  H11 UNL     1       7.799   5.490   5.115  1.00  0.00     0.158 HD
ATOM      3  H12 UNL     1       8.767   6.861   4.495  1.00  0.00     0.158 HD
HETATM    4  C1  UNL     1       7.415   6.103   3.264  1.00  0.00     0.209 C 
HETATM    5  N2  UNL     1       7.752   7.025   2.242  1.00  0.00    -0.062 NA
HETATM    6  N3  UNL     1       6.399   5.114   3.102  1.00  0.00    -0.202 N 
HETATM    7  N4  UNL     1       5.129   5.155   3.463  1.00  0.00    -0.240 N 
ATOM      8  H4  UNL     1       4.690   5.948   3.930  1.00  0.00     0.192 HD
HETATM    9  C2  UNL     1       4.486   4.025   3.139  1.00  0.00     0.341 A 
HETATM   10  O1  UNL     1       3.269   3.738   3.341  1.00  0.00    -0.245 OA
HETATM   11  N5  UNL     1       5.413   3.251   2.547  1.00  0.00    -0.288 N 
ATOM     12  H5  UNL     1       5.251   2.314   2.177  1.00  0.00     0.172 HD
HETATM   13  C3  UNL     1       6.605   3.918   2.520  1.00  0.00     0.200 A 
ENDROOT
BRANCH  13  14
HETATM   14  C4  UNL     1       7.851   3.437   1.971  1.00  0.00     0.300 C 
HETATM   15  N6  UNL     1       8.251   3.864   0.692  1.00  0.00    -0.054 NA
HETATM   16  O2  UNL     1       8.563   2.654   2.622  1.00  0.00    -0.268 OA
ENDBRANCH  13  14
TORSDOF 1
ENDMDL
MODEL 4
REMARK VINA RESULT: -6.371063235      1.977      3.471
REMARK  1 active torsions:
REMARK  status: ('A' for Active; 'I' for Inactive)
REMARK       I    between atoms: C1_4  and  N3_6 
REMARK    1  A    between atoms: C3_13  and  C4_14 
ROOT
HETATM    1  N1  UNL     1       7.489   3.199  -0.069  1.00  0.00    -0.372 N 
ATOM      2  H11 UNL     1       6.659   3.564  -0.534  1.00  0.00     0.158 HD
ATOM      3  H12 UNL     1       8.280   2.807  -0.580  1.00  0.00     0.158 HD
HETATM    4  C1  UNL     1       7.551   3.231   1.211  1.00  0.00     0.209 C 
HETATM    5  N2  UNL     1       8.705   2.724   1.858  1.00  0.00    -0.062 NA
HETATM    6  N3  UNL     1       6.446   3.779   1.928  1.00  0.00    -0.202 N 
HETATM    7  N4  UNL     1       5.321   3.196   2.303  1.00  0.00    -0.240 N 
ATOM      8  H4  UNL     1       5.091   2.220   2.114  1.00  0.00     0.192 HD
HETATM    9  C2  UNL     1       4.520   4.042   2.962  1.00  0.00     0.341 A 
HETATM   10  O1  UNL     1       3.376   3.807   3.454  1.00  0.00    -0.245 OA
HETATM   11  N5  UNL     1       5.190   5.208   2.993  1.00  0.00    -0.288 N 
ATOM     12  H5  UNL     1       4.857   6.070   3.426  1.00  0.00     0.172 HD
HETATM   13  C3  UNL     1       6.387   5.055   2.353  1.00  0.00     0.200 A 
ENDROOT
BRANCH  13  14
HETATM   14  C4  UNL     1       7.402   6.066   2.166  1.00  0.00     0.300 C 
HETATM   15  N6  UNL     1       7.933   6.281   0.881  1.00  0.00    -0.054 NA
HETATM   16  O2  UNL     1       7.803   6.738   3.131  1.00  0.00    -0.268 OA
ENDBRANCH  13  14
TORSDOF 1
ENDMDL
MODEL 5
REMARK VINA RESULT: -6.310967516      2.047      3.403
REMARK  1 active torsions:
REMARK  status: ('A' for Active; 'I' for Inactive)
REMARK       I    between atoms: C1_4  and  N3_6 
REMARK    1  A    between atoms: C3_13  and  C4_14 
ROOT
HETATM    1  N1  UNL     1       7.368   7.208   3.040  1.00  0.00    -0.372 N 
ATOM      2  H11 UNL     1       7.372   7.279   2.023  1.00  0.00     0.158 HD
ATOM      3  H12 UNL     1       7.452   8.022   3.649  1.00  0.00     0.158 HD
HETATM    4  C1  UNL     1       7.253   6.053   3.584  1.00  0.00     0.209 C 
HETATM    5  N2  UNL     1       7.248   5.954   4.997  1.00  0.00    -0.062 NA
HETATM    6  N3  UNL     1       7.136   4.914   2.732  1.00  0.00    -0.202 N 
HETATM    7  N4  UNL     1       8.086   4.206   2.149  1.00  0.00    -0.240 N 
ATOM      8  H4  UNL     1       9.083   4.399   2.242  1.00  0.00     0.192 HD
HETATM    9  C2  UNL     1       7.580   3.203   1.421  1.00  0.00     0.341 A 
HETATM   10  O1  UNL     1       8.211   2.341   0.739  1.00  0.00    -0.245 OA
HETATM   11  N5  UNL     1       6.246   3.301   1.566  1.00  0.00    -0.288 N 
ATOM     12  H5  UNL     1       5.558   2.682   1.138  1.00  0.00     0.172 HD
HETATM   13  C3  UNL     1       5.960   4.362   2.378  1.00  0.00     0.200 A 
ENDROOT
BRANCH  13  14
HETATM   14  C4  UNL     1       4.648   4.809   2.786  1.00  0.00     0.300 C 
HETATM   15  N6  UNL     1       3.734   3.877   3.310  1.00  0.00    -0.054 NA
HETATM   16  O2  UNL     1       4.330   6.005   2.674  1.00  0.00    -0.268 OA
ENDBRANCH  13  14
TORSDOF 1
ENDMDL
