MODEL 1
REMARK VINA RESULT: -6.238270945      0.000      0.000
REMARK  5 active torsions:
REMARK  status: ('A' for Active; 'I' for Inactive)
REMARK    1  A    between atoms: C2_2  and  N1_3 
REMARK    2  A    between atoms: C2_2  and  C3_7 
REMARK    3  A    between atoms: C3_7  and  N4_13 
REMARK    4  A    between atoms: N2_8  and  N3_10 
REMARK    5  A    between atoms: N4_13  and  N5_15 
ROOT
HETATM    1  C3  UNL     1       7.029   3.424   1.757  1.00  0.00     0.140 C 
HETATM    2  N2  UNL     1       7.958   3.080   2.594  1.00  0.00    -0.293 N 
ATOM      3  H2  UNL     1       8.873   2.829   2.222  1.00  0.00     0.187 HD
ENDROOT
BRANCH   1   4
HETATM    4  C2  UNL     1       7.348   3.434   0.307  1.00  0.00     0.249 C 
HETATM    5  C1  UNL     1       8.780   3.049   0.094  1.00  0.00     0.048 C 
BRANCH   4   6
HETATM    6  N1  UNL     1       6.415   2.573  -0.374  1.00  0.00    -0.069 N 
ATOM      7  H13 UNL     1       6.013   3.044  -1.184  1.00  0.00     0.275 HD
ATOM      8  H12 UNL     1       6.904   1.811  -0.845  1.00  0.00     0.275 HD
ATOM      9  H11 UNL     1       5.680   2.209   0.233  1.00  0.00     0.275 HD
ENDBRANCH   4   6
ENDBRANCH   1   4
BRANCH   1  10
HETATM   10  N4  UNL     1       5.733   3.788   2.192  1.00  0.00    -0.284 N 
ATOM     11  H4  UNL     1       5.134   3.082   2.617  1.00  0.00     0.188 HD
BRANCH  10  12
HETATM   12  N5  UNL     1       5.261   5.087   2.052  1.00  0.00    -0.275 N 
HETATM   13  C4  UNL     1       5.492   6.019   2.918  1.00  0.00     0.215 C 
HETATM   14  N6  UNL     1       4.960   7.304   2.669  1.00  0.00    -0.065 NA
HETATM   15  N7  UNL     1       6.262   5.683   4.051  1.00  0.00    -0.065 NA
ATOM     16  H5  UNL     1       4.706   5.316   1.227  1.00  0.00     0.189 HD
ENDBRANCH  10  12
ENDBRANCH   1  10
BRANCH   2  17
HETATM   17  N3  UNL     1       7.775   3.034   3.964  1.00  0.00    -0.344 N 
ATOM     18  H32 UNL     1       7.627   3.922   4.444  1.00  0.00     0.176 HD
ATOM     19  H31 UNL     1       7.780   2.170   4.506  1.00  0.00     0.176 HD
ENDBRANCH   2  17
TORSDOF 5
ENDMDL
MODEL 2
REMARK VINA RESULT: -6.195694160      1.444      2.401
REMARK  5 active torsions:
REMARK  status: ('A' for Active; 'I' for Inactive)
REMARK    1  A    between atoms: C2_2  and  N1_3 
REMARK    2  A    between atoms: C2_2  and  C3_7 
REMARK    3  A    between atoms: C3_7  and  N4_13 
REMARK    4  A    between atoms: N2_8  and  N3_10 
REMARK    5  A    between atoms: N4_13  and  N5_15 
ROOT
HETATM    1  C3  UNL     1       7.082   3.402   2.239  1.00  0.00     0.140 C 
HETATM    2  N2  UNL     1       5.871   3.452   1.777  1.00  0.00    -0.293 N 
ATOM      3  H2  UNL     1       5.741   3.444   0.765  1.00  0.00     0.187 HD
ENDROOT
BRANCH   1   4
HETATM    4  C2  UNL     1       8.208   3.336   1.274  1.00  0.00     0.249 C 
HETATM    5  C1  UNL     1       9.103   2.183   1.607  1.00  0.00     0.048 C 
BRANCH   4   6
HETATM    6  N1  UNL     1       7.666   3.276  -0.060  1.00  0.00    -0.069 N 
ATOM      7  H13 UNL     1       7.356   4.198  -0.366  1.00  0.00     0.275 HD
ATOM      8  H12 UNL     1       8.405   3.109  -0.743  1.00  0.00     0.275 HD
ATOM      9  H11 UNL     1       6.918   2.590  -0.163  1.00  0.00     0.275 HD
ENDBRANCH   4   6
ENDBRANCH   1   4
BRANCH   1  10
HETATM   10  N4  UNL     1       7.348   3.407   3.627  1.00  0.00    -0.284 N 
ATOM     11  H4  UNL     1       7.071   2.604   4.191  1.00  0.00     0.188 HD
BRANCH  10  12
HETATM   12  N5  UNL     1       7.980   4.482   4.239  1.00  0.00    -0.275 N 
HETATM   13  C4  UNL     1       7.413   5.633   4.405  1.00  0.00     0.215 C 
HETATM   14  N6  UNL     1       8.155   6.653   5.042  1.00  0.00    -0.065 NA
HETATM   15  N7  UNL     1       6.092   5.784   3.937  1.00  0.00    -0.065 NA
ATOM     16  H5  UNL     1       8.936   4.359   4.574  1.00  0.00     0.189 HD
ENDBRANCH  10  12
ENDBRANCH   1  10
BRANCH   2  17
HETATM   17  N3  UNL     1       4.748   3.516   2.579  1.00  0.00    -0.344 N 
ATOM     18  H32 UNL     1       4.812   4.081   3.426  1.00  0.00     0.176 HD
ATOM     19  H31 UNL     1       3.874   3.034   2.367  1.00  0.00     0.176 HD
ENDBRANCH   2  17
TORSDOF 5
ENDMDL
MODEL 3
REMARK VINA RESULT: -5.901982336      1.662      4.174
REMARK  5 active torsions:
REMARK  status: ('A' for Active; 'I' for Inactive)
REMARK    1  A    between atoms: C2_2  and  N1_3 
REMARK    2  A    between atoms: C2_2  and  C3_7 
REMARK    3  A    between atoms: C3_7  and  N4_13 
REMARK    4  A    between atoms: N2_8  and  N3_10 
REMARK    5  A    between atoms: N4_13  and  N5_15 
ROOT
HETATM    1  C3  UNL     1       7.047   4.528   2.511  1.00  0.00     0.140 C 
HETATM    2  N2  UNL     1       7.281   3.400   3.105  1.00  0.00    -0.293 N 
ATOM      3  H2  UNL     1       6.874   3.248   4.028  1.00  0.00     0.187 HD
ENDROOT
BRANCH   1   4
HETATM    4  C2  UNL     1       6.203   5.534   3.203  1.00  0.00     0.249 C 
HETATM    5  C1  UNL     1       4.755   5.191   3.037  1.00  0.00     0.048 C 
BRANCH   4   6
HETATM    6  N1  UNL     1       6.620   5.612   4.581  1.00  0.00    -0.069 N 
ATOM      7  H13 UNL     1       6.896   6.564   4.821  1.00  0.00     0.275 HD
ATOM      8  H12 UNL     1       5.821   5.503   5.206  1.00  0.00     0.275 HD
ATOM      9  H11 UNL     1       7.358   4.950   4.820  1.00  0.00     0.275 HD
ENDBRANCH   4   6
ENDBRANCH   1   4
BRANCH   1  10
HETATM   10  N4  UNL     1       7.572   4.817   1.230  1.00  0.00    -0.284 N 
ATOM     11  H4  UNL     1       8.456   5.319   1.155  1.00  0.00     0.188 HD
BRANCH  10  12
HETATM   12  N5  UNL     1       6.910   4.429   0.072  1.00  0.00    -0.275 N 
HETATM   13  C4  UNL     1       7.401   3.580  -0.771  1.00  0.00     0.215 C 
HETATM   14  N6  UNL     1       6.635   3.262  -1.915  1.00  0.00    -0.065 NA
HETATM   15  N7  UNL     1       8.668   3.032  -0.486  1.00  0.00    -0.065 NA
ATOM     16  H5  UNL     1       5.993   4.833  -0.122  1.00  0.00     0.189 HD
ENDBRANCH  10  12
ENDBRANCH   1  10
BRANCH   2  17
HETATM   17  N3  UNL     1       8.052   2.391   2.558  1.00  0.00    -0.344 N 
ATOM     18  H32 UNL     1       7.609   1.795   1.859  1.00  0.00     0.176 HD
ATOM     19  H31 UNL     1       9.025   2.220   2.815  1.00  0.00     0.176 HD
ENDBRANCH   2  17
TORSDOF 5
ENDMDL
MODEL 4
REMARK VINA RESULT: -5.877281179      1.591      4.233
REMARK  5 active torsions:
REMARK  status: ('A' for Active; 'I' for Inactive)
REMARK    1  A    between atoms: C2_2  and  N1_3 
REMARK    2  A    between atoms: C2_2  and  C3_7 
REMARK    3  A    between atoms: C3_7  and  N4_13 
REMARK    4  A    between atoms: N2_8  and  N3_10 
REMARK    5  A    between atoms: N4_13  and  N5_15 
ROOT
HETATM    1  C3  UNL     1       6.379   4.811   2.939  1.00  0.00     0.140 C 
HETATM    2  N2  UNL     1       5.483   5.739   3.080  1.00  0.00    -0.293 N 
ATOM      3  H2  UNL     1       5.703   6.533   3.681  1.00  0.00     0.187 HD
ENDROOT
BRANCH   1   4
HETATM    4  C2  UNL     1       7.669   4.955   3.659  1.00  0.00     0.249 C 
HETATM    5  C1  UNL     1       7.565   6.039   4.687  1.00  0.00     0.048 C 
BRANCH   4   6
HETATM    6  N1  UNL     1       8.032   3.674   4.210  1.00  0.00    -0.069 N 
ATOM      7  H13 UNL     1       8.970   3.705   4.610  1.00  0.00     0.275 HD
ATOM      8  H12 UNL     1       7.494   3.479   5.055  1.00  0.00     0.275 HD
ATOM      9  H11 UNL     1       7.948   2.906   3.544  1.00  0.00     0.275 HD
ENDBRANCH   4   6
ENDBRANCH   1   4
BRANCH   1  10
HETATM   10  N4  UNL     1       6.154   3.678   2.123  1.00  0.00    -0.284 N 
ATOM     11  H4  UNL     1       5.684   2.864   2.518  1.00  0.00     0.188 HD
BRANCH  10  12
HETATM   12  N5  UNL     1       6.560   3.652   0.795  1.00  0.00    -0.275 N 
HETATM   13  C4  UNL     1       7.626   3.039   0.395  1.00  0.00     0.215 C 
HETATM   14  N6  UNL     1       7.939   3.081  -0.982  1.00  0.00    -0.065 NA
HETATM   15  N7  UNL     1       8.401   2.372   1.366  1.00  0.00    -0.065 NA
ATOM     16  H5  UNL     1       5.990   4.138   0.103  1.00  0.00     0.189 HD
ENDBRANCH  10  12
ENDBRANCH   1  10
BRANCH   2  17
HETATM   17  N3  UNL     1       4.248   5.710   2.460  1.00  0.00    -0.344 N 
ATOM     18  H32 UNL     1       4.236   5.791   1.443  1.00  0.00     0.176 HD
ATOM     19  H31 UNL     1       3.365   5.614   2.962  1.00  0.00     0.176 HD
ENDBRANCH   2  17
TORSDOF 5
ENDMDL
MODEL 5
REMARK VINA RESULT: -5.853690666      2.241      3.505
REMARK  5 active torsions:
REMARK  status: ('A' for Active; 'I' for Inactive)
REMARK    1  A    between atoms: C2_2  and  N1_3 
REMARK    2  A    between atoms: C2_2  and  C3_7 
REMARK    3  A    between atoms: C3_7  and  N4_13 
REMARK    4  A    between atoms: N2_8  and  N3_10 
REMARK    5  A    between atoms: N4_13  and  N5_15 
ROOT
HETATM    1  C3  UNL     1       7.159   3.464   1.393  1.00  0.00     0.140 C 
HETATM    2  N2  UNL     1       6.361   3.186   2.377  1.00  0.00    -0.293 N 
ATOM      3  H2  UNL     1       6.523   2.325   2.900  1.00  0.00     0.187 HD
ENDROOT
BRANCH   1   4
HETATM    4  C2  UNL     1       8.260   2.518   1.083  1.00  0.00     0.249 C 
HETATM    5  C1  UNL     1       9.404   3.251   0.453  1.00  0.00     0.048 C 
BRANCH   4   6
HETATM    6  N1  UNL     1       8.621   1.823   2.293  1.00  0.00    -0.069 N 
ATOM      7  H13 UNL     1       8.491   0.817   2.185  1.00  0.00     0.275 HD
ATOM      8  H12 UNL     1       9.631   1.849   2.436  1.00  0.00     0.275 HD
ATOM      9  H11 UNL     1       8.131   2.164   3.119  1.00  0.00     0.275 HD
ENDBRANCH   4   6
ENDBRANCH   1   4
BRANCH   1  10
HETATM   10  N4  UNL     1       7.003   4.637   0.619  1.00  0.00    -0.284 N 
ATOM     11  H4  UNL     1       7.053   5.546   1.076  1.00  0.00     0.188 HD
BRANCH  10  12
HETATM   12  N5  UNL     1       6.785   4.575  -0.752  1.00  0.00    -0.275 N 
HETATM   13  C4  UNL     1       7.256   5.449  -1.582  1.00  0.00     0.215 C 
HETATM   14  N6  UNL     1       6.968   5.283  -2.955  1.00  0.00    -0.065 NA
HETATM   15  N7  UNL     1       8.026   6.505  -1.052  1.00  0.00    -0.065 NA
ATOM     16  H5  UNL     1       6.227   3.806  -1.121  1.00  0.00     0.189 HD
ENDBRANCH  10  12
ENDBRANCH   1  10
BRANCH   2  17
HETATM   17  N3  UNL     1       5.303   3.990   2.755  1.00  0.00    -0.344 N 
ATOM     18  H32 UNL     1       5.499   4.734   3.425  1.00  0.00     0.176 HD
ATOM     19  H31 UNL     1       4.352   3.877   2.402  1.00  0.00     0.176 HD
ENDBRANCH   2  17
TORSDOF 5
ENDMDL
