MODEL 1
REMARK VINA RESULT: -6.331665906      0.000      0.000
REMARK  4 active torsions:
REMARK  status: ('A' for Active; 'I' for Inactive)
REMARK    1  A    between atoms: C2_2  and  N1_3 
REMARK    2  A    between atoms: C2_2  and  C3_7 
REMARK       I    between atoms: C3_7  and  N2_9 
REMARK    3  A    between atoms: N2_9  and  N3_11 
REMARK       I    between atoms: C4_13  and  N5_15 
REMARK    4  A    between atoms: N5_15  and  N6_17 
ROOT
HETATM    1  C3  UNL     1       7.637   3.686  -1.492  1.00  0.00     0.266 C 
HETATM    2  O1  UNL     1       6.597   3.220  -2.024  1.00  0.00    -0.269 OA
HETATM    3  N2  UNL     1       7.668   3.820  -0.086  1.00  0.00    -0.266 N 
ATOM      4  H2  UNL     1       8.498   4.194   0.372  1.00  0.00     0.190 HD
ENDROOT
BRANCH   3   5
HETATM    5  N3  UNL     1       6.572   3.444   0.668  1.00  0.00    -0.270 N 
HETATM    6  C4  UNL     1       6.511   3.654   1.942  1.00  0.00     0.221 C 
HETATM    7  N4  UNL     1       7.595   4.292   2.611  1.00  0.00    -0.061 NA
HETATM    8  N5  UNL     1       5.387   3.269   2.716  1.00  0.00    -0.279 N 
ATOM      9  H5  UNL     1       5.334   2.308   3.054  1.00  0.00     0.189 HD
ATOM     10  H3  UNL     1       5.787   2.986   0.205  1.00  0.00     0.189 HD
BRANCH   8  11
HETATM   11  N6  UNL     1       4.349   4.145   3.037  1.00  0.00    -0.343 N 
ATOM     12  H62 UNL     1       4.512   5.141   2.891  1.00  0.00     0.176 HD
ATOM     13  H61 UNL     1       3.451   3.831   3.405  1.00  0.00     0.176 HD
ENDBRANCH   8  11
ENDBRANCH   3   5
BRANCH   1  14
HETATM   14  C2  UNL     1       8.758   4.061  -2.371  1.00  0.00     0.272 C 
HETATM   15  C1  UNL     1      10.052   4.256  -1.600  1.00  0.00     0.050 C 
BRANCH  14  16
HETATM   16  N1  UNL     1       8.402   5.208  -3.145  1.00  0.00    -0.067 N 
ATOM     17  H13 UNL     1       8.343   6.041  -2.560  1.00  0.00     0.275 HD
ATOM     18  H12 UNL     1       9.170   5.490  -3.756  1.00  0.00     0.275 HD
ATOM     19  H11 UNL     1       7.543   5.071  -3.676  1.00  0.00     0.275 HD
ENDBRANCH  14  16
ENDBRANCH   1  14
TORSDOF 4
ENDMDL
MODEL 2
REMARK VINA RESULT: -6.141527262      1.782      2.053
REMARK  4 active torsions:
REMARK  status: ('A' for Active; 'I' for Inactive)
REMARK    1  A    between atoms: C2_2  and  N1_3 
REMARK    2  A    between atoms: C2_2  and  C3_7 
REMARK       I    between atoms: C3_7  and  N2_9 
REMARK    3  A    between atoms: N2_9  and  N3_11 
REMARK       I    between atoms: C4_13  and  N5_15 
REMARK    4  A    between atoms: N5_15  and  N6_17 
ROOT
HETATM    1  C3  UNL     1       7.301   4.680  -0.820  1.00  0.00     0.266 C 
HETATM    2  O1  UNL     1       7.479   5.735  -0.160  1.00  0.00    -0.269 OA
HETATM    3  N2  UNL     1       6.906   3.515  -0.127  1.00  0.00    -0.266 N 
ATOM      4  H2  UNL     1       6.754   2.645  -0.637  1.00  0.00     0.190 HD
ENDROOT
BRANCH   3   5
HETATM    5  N3  UNL     1       6.725   3.553   1.243  1.00  0.00    -0.270 N 
HETATM    6  C4  UNL     1       7.605   3.084   2.065  1.00  0.00     0.221 C 
HETATM    7  N4  UNL     1       8.808   2.506   1.566  1.00  0.00    -0.061 NA
HETATM    8  N5  UNL     1       7.420   3.124   3.470  1.00  0.00    -0.279 N 
ATOM      9  H5  UNL     1       6.877   2.381   3.911  1.00  0.00     0.189 HD
ATOM     10  H3  UNL     1       5.870   3.964   1.617  1.00  0.00     0.189 HD
BRANCH   8  11
HETATM   11  N6  UNL     1       7.949   4.132   4.279  1.00  0.00    -0.343 N 
ATOM     12  H62 UNL     1       7.914   3.992   5.288  1.00  0.00     0.176 HD
ATOM     13  H61 UNL     1       8.360   4.987   3.903  1.00  0.00     0.176 HD
ENDBRANCH   8  11
ENDBRANCH   3   5
BRANCH   1  14
HETATM   14  C2  UNL     1       7.516   4.728  -2.276  1.00  0.00     0.272 C 
HETATM   15  C1  UNL     1       8.908   4.262  -2.668  1.00  0.00     0.050 C 
BRANCH  14  16
HETATM   16  N1  UNL     1       7.218   6.037  -2.767  1.00  0.00    -0.067 N 
ATOM     17  H13 UNL     1       6.965   6.665  -2.004  1.00  0.00     0.275 HD
ATOM     18  H12 UNL     1       8.063   6.507  -3.093  1.00  0.00     0.275 HD
ATOM     19  H11 UNL     1       6.500   6.030  -3.490  1.00  0.00     0.275 HD
ENDBRANCH  14  16
ENDBRANCH   1  14
TORSDOF 4
ENDMDL
MODEL 3
REMARK VINA RESULT: -6.136723572      1.249      1.249
REMARK  4 active torsions:
REMARK  status: ('A' for Active; 'I' for Inactive)
REMARK    1  A    between atoms: C2_2  and  N1_3 
REMARK    2  A    between atoms: C2_2  and  C3_7 
REMARK       I    between atoms: C3_7  and  N2_9 
REMARK    3  A    between atoms: N2_9  and  N3_11 
REMARK       I    between atoms: C4_13  and  N5_15 
REMARK    4  A    between atoms: N5_15  and  N6_17 
ROOT
HETATM    1  C3  UNL     1       7.838   4.710  -0.692  1.00  0.00     0.266 C 
HETATM    2  O1  UNL     1       6.840   5.468  -0.797  1.00  0.00    -0.269 OA
HETATM    3  N2  UNL     1       7.737   3.583   0.154  1.00  0.00    -0.266 N 
ATOM      4  H2  UNL     1       8.531   2.951   0.258  1.00  0.00     0.190 HD
ENDROOT
BRANCH   3   5
HETATM    5  N3  UNL     1       6.563   3.337   0.840  1.00  0.00    -0.270 N 
HETATM    6  C4  UNL     1       6.458   3.535   2.114  1.00  0.00     0.221 C 
HETATM    7  N4  UNL     1       7.574   4.023   2.852  1.00  0.00    -0.061 NA
HETATM    8  N5  UNL     1       5.254   3.283   2.818  1.00  0.00    -0.279 N 
ATOM      9  H5  UNL     1       5.063   2.332   3.133  1.00  0.00     0.189 HD
ATOM     10  H3  UNL     1       5.754   2.988   0.327  1.00  0.00     0.189 HD
BRANCH   8  11
HETATM   11  N6  UNL     1       4.316   4.279   3.102  1.00  0.00    -0.343 N 
ATOM     12  H62 UNL     1       3.368   4.146   2.751  1.00  0.00     0.176 HD
ATOM     13  H61 UNL     1       4.542   5.117   3.638  1.00  0.00     0.176 HD
ENDBRANCH   8  11
ENDBRANCH   3   5
BRANCH   1  14
HETATM   14  C2  UNL     1       9.049   5.047  -1.459  1.00  0.00     0.272 C 
HETATM   15  C1  UNL     1      10.173   4.054  -1.223  1.00  0.00     0.050 C 
BRANCH  14  16
HETATM   16  N1  UNL     1       9.440   6.393  -1.180  1.00  0.00    -0.067 N 
ATOM     17  H13 UNL     1       9.194   6.656  -0.226  1.00  0.00     0.275 HD
ATOM     18  H12 UNL     1      10.455   6.475  -1.117  1.00  0.00     0.275 HD
ATOM     19  H11 UNL     1       9.060   7.058  -1.854  1.00  0.00     0.275 HD
ENDBRANCH  14  16
ENDBRANCH   1  14
TORSDOF 4
ENDMDL
MODEL 4
REMARK VINA RESULT: -5.974608059      2.191      5.049
REMARK  4 active torsions:
REMARK  status: ('A' for Active; 'I' for Inactive)
REMARK    1  A    between atoms: C2_2  and  N1_3 
REMARK    2  A    between atoms: C2_2  and  C3_7 
REMARK       I    between atoms: C3_7  and  N2_9 
REMARK    3  A    between atoms: N2_9  and  N3_11 
REMARK       I    between atoms: C4_13  and  N5_15 
REMARK    4  A    between atoms: N5_15  and  N6_17 
ROOT
HETATM    1  C3  UNL     1       7.276   3.876   1.516  1.00  0.00     0.266 C 
HETATM    2  O1  UNL     1       8.053   2.995   1.070  1.00  0.00    -0.269 OA
HETATM    3  N2  UNL     1       6.651   4.747   0.596  1.00  0.00    -0.266 N 
ATOM      4  H2  UNL     1       6.015   5.471   0.929  1.00  0.00     0.190 HD
ENDROOT
BRANCH   3   5
HETATM    5  N3  UNL     1       6.902   4.616  -0.757  1.00  0.00    -0.270 N 
HETATM    6  C4  UNL     1       7.601   5.484  -1.413  1.00  0.00     0.221 C 
HETATM    7  N4  UNL     1       8.140   6.618  -0.740  1.00  0.00    -0.061 NA
HETATM    8  N5  UNL     1       7.858   5.351  -2.801  1.00  0.00    -0.279 N 
ATOM      9  H5  UNL     1       7.155   5.685  -3.461  1.00  0.00     0.189 HD
ATOM     10  H3  UNL     1       6.523   3.811  -1.255  1.00  0.00     0.189 HD
BRANCH   8  11
HETATM   11  N6  UNL     1       9.030   4.783  -3.306  1.00  0.00    -0.343 N 
ATOM     12  H62 UNL     1       9.106   3.767  -3.286  1.00  0.00     0.176 HD
ATOM     13  H61 UNL     1       9.796   5.338  -3.687  1.00  0.00     0.176 HD
ENDBRANCH   8  11
ENDBRANCH   3   5
BRANCH   1  14
HETATM   14  C2  UNL     1       7.066   3.945   2.972  1.00  0.00     0.272 C 
HETATM   15  C1  UNL     1       7.397   5.315   3.537  1.00  0.00     0.050 C 
BRANCH  14  16
HETATM   16  N1  UNL     1       7.793   2.896   3.616  1.00  0.00    -0.067 N 
ATOM     17  H13 UNL     1       8.689   3.234   3.967  1.00  0.00     0.275 HD
ATOM     18  H12 UNL     1       7.357   2.637   4.501  1.00  0.00     0.275 HD
ATOM     19  H11 UNL     1       7.918   2.081   3.016  1.00  0.00     0.275 HD
ENDBRANCH  14  16
ENDBRANCH   1  14
TORSDOF 4
ENDMDL
MODEL 5
REMARK VINA RESULT: -5.894507466      2.459      3.026
REMARK  4 active torsions:
REMARK  status: ('A' for Active; 'I' for Inactive)
REMARK    1  A    between atoms: C2_2  and  N1_3 
REMARK    2  A    between atoms: C2_2  and  C3_7 
REMARK       I    between atoms: C3_7  and  N2_9 
REMARK    3  A    between atoms: N2_9  and  N3_11 
REMARK       I    between atoms: C4_13  and  N5_15 
REMARK    4  A    between atoms: N5_15  and  N6_17 
ROOT
HETATM    1  C3  UNL     1       7.370   3.044   0.507  1.00  0.00     0.266 C 
HETATM    2  O1  UNL     1       8.556   2.811   0.853  1.00  0.00    -0.269 OA
HETATM    3  N2  UNL     1       6.490   3.597   1.463  1.00  0.00    -0.266 N 
ATOM      4  H2  UNL     1       5.522   3.797   1.210  1.00  0.00     0.190 HD
ENDROOT
BRANCH   3   5
HETATM    5  N3  UNL     1       6.940   3.868   2.742  1.00  0.00    -0.270 N 
HETATM    6  C4  UNL     1       7.378   5.036   3.083  1.00  0.00     0.221 C 
HETATM    7  N4  UNL     1       7.406   6.092   2.127  1.00  0.00    -0.061 NA
HETATM    8  N5  UNL     1       7.840   5.313   4.394  1.00  0.00    -0.279 N 
ATOM      9  H5  UNL     1       8.805   5.081   4.630  1.00  0.00     0.189 HD
ATOM     10  H3  UNL     1       6.926   3.123   3.438  1.00  0.00     0.189 HD
BRANCH   8  11
HETATM   11  N6  UNL     1       7.034   5.892   5.377  1.00  0.00    -0.343 N 
ATOM     12  H62 UNL     1       7.500   6.403   6.126  1.00  0.00     0.176 HD
ATOM     13  H61 UNL     1       6.017   5.822   5.372  1.00  0.00     0.176 HD
ENDBRANCH   8  11
ENDBRANCH   3   5
BRANCH   1  14
HETATM   14  C2  UNL     1       6.975   2.725  -0.875  1.00  0.00     0.272 C 
HETATM   15  C1  UNL     1       6.960   3.954  -1.767  1.00  0.00     0.050 C 
BRANCH  14  16
HETATM   16  N1  UNL     1       5.724   2.034  -0.874  1.00  0.00    -0.067 N 
ATOM     17  H13 UNL     1       4.943   2.690  -0.904  1.00  0.00     0.275 HD
ATOM     18  H12 UNL     1       5.569   1.553  -1.760  1.00  0.00     0.275 HD
ATOM     19  H11 UNL     1       5.633   1.392  -0.087  1.00  0.00     0.275 HD
ENDBRANCH  14  16
ENDBRANCH   1  14
TORSDOF 4
ENDMDL
