MODEL 1
REMARK VINA RESULT: -6.382482510      0.000      0.000
REMARK  1 active torsions:
REMARK  status: ('A' for Active; 'I' for Inactive)
REMARK    1  A    between atoms: C3_3  and  C4_4 
REMARK       I    between atoms: N4_9  and  C5_10 
ROOT
HETATM    1  C1  UNL     1      10.283   6.362  -1.126  1.00  0.00     0.016 C 
HETATM    2  C2  UNL     1       9.285   5.685  -1.038  1.00  0.00    -0.055 C 
HETATM    3  C3  UNL     1       8.066   4.880  -0.912  1.00  0.00     0.282 C 
HETATM    4  N2  UNL     1       6.920   5.559  -0.414  1.00  0.00    -0.069 NA
HETATM    5  N3  UNL     1       7.244   5.183   0.900  1.00  0.00    -0.019 NA
HETATM    6  N4  UNL     1       8.035   4.174   0.373  1.00  0.00    -0.204 N 
HETATM    7  C5  UNL     1       8.645   2.947   0.734  1.00  0.00     0.204 C 
HETATM    8  N5  UNL     1       7.927   1.998   1.215  1.00  0.00    -0.372 N 
ATOM      9  H51 UNL     1       8.366   1.115   1.474  1.00  0.00     0.158 HD
ATOM     10  H52 UNL     1       6.920   2.076   1.356  1.00  0.00     0.158 HD
HETATM   11  N6  UNL     1      10.045   2.838   0.536  1.00  0.00    -0.062 NA
ENDROOT
BRANCH   3  12
HETATM   12  C4  UNL     1       7.869   3.953  -2.033  1.00  0.00     0.292 C 
HETATM   13  N1  UNL     1       6.777   3.044  -1.976  1.00  0.00    -0.057 NA
HETATM   14  O1  UNL     1       8.644   3.953  -3.026  1.00  0.00    -0.271 OA
ENDBRANCH   3  12
TORSDOF 1
ENDMDL
MODEL 2
REMARK VINA RESULT: -6.369904881      1.940      2.446
REMARK  1 active torsions:
REMARK  status: ('A' for Active; 'I' for Inactive)
REMARK    1  A    between atoms: C3_3  and  C4_4 
REMARK       I    between atoms: N4_9  and  C5_10 
ROOT
HETATM    1  C1  UNL     1      10.274   3.282   0.104  1.00  0.00     0.016 C 
HETATM    2  C2  UNL     1       9.292   3.936  -0.160  1.00  0.00    -0.055 C 
HETATM    3  C3  UNL     1       8.113   4.749  -0.474  1.00  0.00     0.282 C 
HETATM    4  N2  UNL     1       8.363   6.117  -0.774  1.00  0.00    -0.069 NA
HETATM    5  N3  UNL     1       8.184   6.466   0.574  1.00  0.00    -0.019 NA
HETATM    6  N4  UNL     1       7.499   5.274   0.751  1.00  0.00    -0.204 N 
HETATM    7  C5  UNL     1       6.585   4.646   1.632  1.00  0.00     0.204 C 
HETATM    8  N5  UNL     1       5.465   5.215   1.898  1.00  0.00    -0.372 N 
ATOM      9  H51 UNL     1       4.807   4.762   2.532  1.00  0.00     0.158 HD
ATOM     10  H52 UNL     1       5.187   6.113   1.503  1.00  0.00     0.158 HD
HETATM   11  N6  UNL     1       6.972   3.397   2.182  1.00  0.00    -0.062 NA
ENDROOT
BRANCH   3  12
HETATM   12  C4  UNL     1       7.127   4.044  -1.301  1.00  0.00     0.292 C 
HETATM   13  N1  UNL     1       6.540   4.738  -2.395  1.00  0.00    -0.057 NA
HETATM   14  O1  UNL     1       6.802   2.851  -1.058  1.00  0.00    -0.271 OA
ENDBRANCH   3  12
TORSDOF 1
ENDMDL
MODEL 3
REMARK VINA RESULT: -6.302365217      3.745      4.785
REMARK  1 active torsions:
REMARK  status: ('A' for Active; 'I' for Inactive)
REMARK    1  A    between atoms: C3_3  and  C4_4 
REMARK       I    between atoms: N4_9  and  C5_10 
ROOT
HETATM    1  C1  UNL     1       8.113   6.431   4.638  1.00  0.00     0.016 C 
HETATM    2  C2  UNL     1       7.392   5.741   3.955  1.00  0.00    -0.055 C 
HETATM    3  C3  UNL     1       6.533   4.884   3.132  1.00  0.00     0.282 C 
HETATM    4  N2  UNL     1       6.559   3.496   3.441  1.00  0.00    -0.069 NA
HETATM    5  N3  UNL     1       7.583   3.286   2.503  1.00  0.00    -0.019 NA
HETATM    6  N4  UNL     1       7.222   4.481   1.901  1.00  0.00    -0.204 N 
HETATM    7  C5  UNL     1       7.354   5.185   0.679  1.00  0.00     0.204 C 
HETATM    8  N5  UNL     1       6.976   4.633  -0.417  1.00  0.00    -0.372 N 
ATOM      9  H51 UNL     1       7.071   5.141  -1.296  1.00  0.00     0.158 HD
ATOM     10  H52 UNL     1       6.578   3.696  -0.461  1.00  0.00     0.158 HD
HETATM   11  N6  UNL     1       7.908   6.490   0.741  1.00  0.00    -0.062 NA
ENDROOT
BRANCH   3  12
HETATM   12  C4  UNL     1       5.228   5.487   2.837  1.00  0.00     0.292 C 
HETATM   13  N1  UNL     1       5.159   6.895   2.648  1.00  0.00    -0.057 NA
HETATM   14  O1  UNL     1       4.186   4.783   2.751  1.00  0.00    -0.271 OA
ENDBRANCH   3  12
TORSDOF 1
ENDMDL
MODEL 4
REMARK VINA RESULT: -6.298939814      3.683      4.565
REMARK  1 active torsions:
REMARK  status: ('A' for Active; 'I' for Inactive)
REMARK    1  A    between atoms: C3_3  and  C4_4 
REMARK       I    between atoms: N4_9  and  C5_10 
ROOT
HETATM    1  C1  UNL     1       8.260   2.496   1.497  1.00  0.00     0.016 C 
HETATM    2  C2  UNL     1       7.557   3.464   1.678  1.00  0.00    -0.055 C 
HETATM    3  C3  UNL     1       6.720   4.650   1.882  1.00  0.00     0.282 C 
HETATM    4  N2  UNL     1       6.713   5.596   0.821  1.00  0.00    -0.069 NA
HETATM    5  N3  UNL     1       7.770   6.302   1.417  1.00  0.00    -0.019 NA
HETATM    6  N4  UNL     1       7.451   5.687   2.617  1.00  0.00    -0.204 N 
HETATM    7  C5  UNL     1       7.642   5.827   4.014  1.00  0.00     0.204 C 
HETATM    8  N5  UNL     1       7.300   6.918   4.596  1.00  0.00    -0.372 N 
ATOM      9  H51 UNL     1       7.438   7.018   5.602  1.00  0.00     0.158 HD
ATOM     10  H52 UNL     1       6.891   7.710   4.101  1.00  0.00     0.158 HD
HETATM   11  N6  UNL     1       8.212   4.725   4.702  1.00  0.00    -0.062 NA
ENDROOT
BRANCH   3  12
HETATM   12  C4  UNL     1       5.436   4.347   2.527  1.00  0.00     0.292 C 
HETATM   13  N1  UNL     1       4.575   5.427   2.864  1.00  0.00    -0.057 NA
HETATM   14  O1  UNL     1       5.096   3.160   2.781  1.00  0.00    -0.271 OA
ENDBRANCH   3  12
TORSDOF 1
ENDMDL
MODEL 5
REMARK VINA RESULT: -6.178858853      1.743      2.947
REMARK  1 active torsions:
REMARK  status: ('A' for Active; 'I' for Inactive)
REMARK    1  A    between atoms: C3_3  and  C4_4 
REMARK       I    between atoms: N4_9  and  C5_10 
ROOT
HETATM    1  C1  UNL     1      10.322   4.482  -1.221  1.00  0.00     0.016 C 
HETATM    2  C2  UNL     1       9.341   4.279  -0.545  1.00  0.00    -0.055 C 
HETATM    3  C3  UNL     1       8.162   4.015   0.286  1.00  0.00     0.282 C 
HETATM    4  N2  UNL     1       8.409   3.368   1.528  1.00  0.00    -0.069 NA
HETATM    5  N3  UNL     1       8.211   2.110   0.935  1.00  0.00    -0.019 NA
HETATM    6  N4  UNL     1       7.529   2.746  -0.091  1.00  0.00    -0.204 N 
HETATM    7  C5  UNL     1       6.607   2.482  -1.133  1.00  0.00     0.204 C 
HETATM    8  N5  UNL     1       5.481   1.929  -0.861  1.00  0.00    -0.372 N 
ATOM      9  H51 UNL     1       4.818   1.740  -1.612  1.00  0.00     0.158 HD
ATOM     10  H52 UNL     1       5.204   1.662   0.083  1.00  0.00     0.158 HD
HETATM   11  N6  UNL     1       6.993   2.854  -2.447  1.00  0.00    -0.062 NA
ENDROOT
BRANCH   3  12
HETATM   12  C4  UNL     1       7.191   5.115   0.278  1.00  0.00     0.292 C 
HETATM   13  N1  UNL     1       6.527   5.443   1.492  1.00  0.00    -0.057 NA
HETATM   14  O1  UNL     1       6.943   5.761  -0.775  1.00  0.00    -0.271 OA
ENDBRANCH   3  12
TORSDOF 1
ENDMDL
