MODEL 1
REMARK VINA RESULT: -7.131667763      0.000      0.000
REMARK  1 active torsions:
REMARK  status: ('A' for Active; 'I' for Inactive)
REMARK       I    between atoms: C1_4  and  N2_5 
REMARK       I    between atoms: C1_4  and  N7_20 
REMARK    1  A    between atoms: N7_20  and  N8_22 
ROOT
HETATM    1  N1  UNL     1      21.119  34.377 113.844  1.00  0.00    -0.233 N 
ATOM      2  H11 UNL     1      21.359  33.703 113.117  1.00  0.00     0.174 HD
ATOM      3  H12 UNL     1      20.142  34.450 114.127  1.00  0.00     0.174 HD
HETATM    4  C1  UNL     1      21.996  35.141 114.418  1.00  0.00     0.704 C 
HETATM    5  N2  UNL     1      21.667  36.064 115.413  1.00  0.00    -0.019 N 
ATOM      6  H2  UNL     1      22.100  35.939 116.328  1.00  0.00     0.203 HD
HETATM    7  C2  UNL     1      20.861  37.061 115.273  1.00  0.00     0.726 C 
HETATM    8  N3  UNL     1      20.238  37.268 114.010  1.00  0.00    -0.127 N 
ATOM      9  H3  UNL     1      20.623  36.722 113.240  1.00  0.00     0.205 HD
HETATM   10  N4  UNL     1      19.161  38.122 113.664  1.00  0.00    -0.247 N 
ATOM     11  H4  UNL     1      18.678  37.919 112.789  1.00  0.00     0.191 HD
HETATM   12  C3  UNL     1      18.685  39.234 114.414  1.00  0.00     0.329 C 
HETATM   13  O1  UNL     1      17.714  39.876 113.920  1.00  0.00    -0.261 OA
HETATM   14  C4  UNL     1      19.150  39.766 115.698  1.00  0.00     0.329 C 
HETATM   15  O2  UNL     1      18.800  40.941 115.985  1.00  0.00    -0.261 OA
HETATM   16  N5  UNL     1      19.958  39.056 116.630  1.00  0.00    -0.247 N 
ATOM     17  H5  UNL     1      20.021  39.463 117.564  1.00  0.00     0.191 HD
HETATM   18  N6  UNL     1      20.684  37.862 116.430  1.00  0.00    -0.127 N 
ATOM     19  H6  UNL     1      21.165  37.516 117.261  1.00  0.00     0.205 HD
HETATM   20  N7  UNL     1      23.360  35.039 114.022  1.00  0.00    -0.139 N 
ATOM     21  H7  UNL     1      24.112  35.196 114.695  1.00  0.00     0.205 HD
ENDROOT
BRANCH  20  22
HETATM   22  N8  UNL     1      23.648  34.717 112.681  1.00  0.00    -0.331 N 
ATOM     23  H82 UNL     1      23.584  33.749 112.367  1.00  0.00     0.177 HD
ATOM     24  H81 UNL     1      23.918  35.470 112.048  1.00  0.00     0.177 HD
ENDBRANCH  20  22
TORSDOF 1
ENDMDL
MODEL 2
REMARK VINA RESULT: -7.005929063      1.526      2.175
REMARK  1 active torsions:
REMARK  status: ('A' for Active; 'I' for Inactive)
REMARK       I    between atoms: C1_4  and  N2_5 
REMARK       I    between atoms: C1_4  and  N7_20 
REMARK    1  A    between atoms: N7_20  and  N8_22 
ROOT
HETATM    1  N1  UNL     1      23.320  36.268 112.536  1.00  0.00    -0.233 N 
ATOM      2  H11 UNL     1      24.278  35.962 112.365  1.00  0.00     0.174 HD
ATOM      3  H12 UNL     1      23.007  37.134 112.096  1.00  0.00     0.174 HD
HETATM    4  C1  UNL     1      22.489  35.609 113.283  1.00  0.00     0.704 C 
HETATM    5  N2  UNL     1      21.177  36.029 113.516  1.00  0.00    -0.019 N 
ATOM      6  H2  UNL     1      20.428  35.406 113.217  1.00  0.00     0.203 HD
HETATM    7  C2  UNL     1      20.834  37.137 114.078  1.00  0.00     0.726 C 
HETATM    8  N3  UNL     1      21.853  38.033 114.509  1.00  0.00    -0.127 N 
ATOM      9  H3  UNL     1      22.796  37.646 114.519  1.00  0.00     0.205 HD
HETATM   10  N4  UNL     1      21.750  39.383 114.928  1.00  0.00    -0.247 N 
ATOM     11  H4  UNL     1      22.610  39.932 114.921  1.00  0.00     0.191 HD
HETATM   12  C3  UNL     1      20.568  40.051 115.357  1.00  0.00     0.329 C 
HETATM   13  O1  UNL     1      20.697  41.261 115.702  1.00  0.00    -0.261 OA
HETATM   14  C4  UNL     1      19.196  39.549 115.465  1.00  0.00     0.329 C 
HETATM   15  O2  UNL     1      18.404  40.216 116.182  1.00  0.00    -0.261 OA
HETATM   16  N5  UNL     1      18.703  38.378 114.824  1.00  0.00    -0.247 N 
ATOM     17  H5  UNL     1      17.689  38.273 114.810  1.00  0.00     0.191 HD
HETATM   18  N6  UNL     1      19.437  37.343 114.205  1.00  0.00    -0.127 N 
ATOM     19  H6  UNL     1      18.862  36.617 113.776  1.00  0.00     0.205 HD
HETATM   20  N7  UNL     1      22.926  34.401 113.897  1.00  0.00    -0.139 N 
ATOM     21  H7  UNL     1      22.276  33.630 114.054  1.00  0.00     0.205 HD
ENDROOT
BRANCH  20  22
HETATM   22  N8  UNL     1      24.277  34.294 114.283  1.00  0.00    -0.331 N 
ATOM     23  H82 UNL     1      24.512  34.013 115.235  1.00  0.00     0.177 HD
ATOM     24  H81 UNL     1      24.997  34.504 113.592  1.00  0.00     0.177 HD
ENDBRANCH  20  22
TORSDOF 1
ENDMDL
MODEL 3
REMARK VINA RESULT: -6.994059407      1.627      1.751
REMARK  1 active torsions:
REMARK  status: ('A' for Active; 'I' for Inactive)
REMARK       I    between atoms: C1_4  and  N2_5 
REMARK       I    between atoms: C1_4  and  N7_20 
REMARK    1  A    between atoms: N7_20  and  N8_22 
ROOT
HETATM    1  N1  UNL     1      20.279  34.133 113.271  1.00  0.00    -0.233 N 
ATOM      2  H11 UNL     1      19.897  33.384 112.692  1.00  0.00     0.174 HD
ATOM      3  H12 UNL     1      19.862  34.289 114.188  1.00  0.00     0.174 HD
HETATM    4  C1  UNL     1      21.263  34.887 112.892  1.00  0.00     0.704 C 
HETATM    5  N2  UNL     1      21.786  35.912 113.686  1.00  0.00    -0.019 N 
ATOM      6  H2  UNL     1      22.766  35.841 113.955  1.00  0.00     0.203 HD
HETATM    7  C2  UNL     1      21.132  36.940 114.106  1.00  0.00     0.726 C 
HETATM    8  N3  UNL     1      19.760  37.076 113.750  1.00  0.00    -0.127 N 
ATOM      9  H3  UNL     1      19.436  36.442 113.020  1.00  0.00     0.205 HD
HETATM   10  N4  UNL     1      18.778  37.961 114.260  1.00  0.00    -0.247 N 
ATOM     11  H4  UNL     1      17.804  37.713 114.088  1.00  0.00     0.191 HD
HETATM   12  C3  UNL     1      19.013  39.162 114.988  1.00  0.00     0.329 C 
HETATM   13  O1  UNL     1      17.992  39.816 115.344  1.00  0.00    -0.261 OA
HETATM   14  C4  UNL     1      20.279  39.773 115.402  1.00  0.00     0.329 C 
HETATM   15  O2  UNL     1      20.241  40.987 115.731  1.00  0.00    -0.261 OA
HETATM   16  N5  UNL     1      21.531  39.098 115.457  1.00  0.00    -0.247 N 
ATOM     17  H5  UNL     1      22.273  39.579 115.965  1.00  0.00     0.191 HD
HETATM   18  N6  UNL     1      21.879  37.849 114.899  1.00  0.00    -0.127 N 
ATOM     19  H6  UNL     1      22.832  37.547 115.101  1.00  0.00     0.205 HD
HETATM   20  N7  UNL     1      21.845  34.668 111.611  1.00  0.00    -0.139 N 
ATOM     21  H7  UNL     1      22.840  34.835 111.454  1.00  0.00     0.205 HD
ENDROOT
BRANCH  20  22
HETATM   22  N8  UNL     1      21.017  34.214 110.567  1.00  0.00    -0.331 N 
ATOM     23  H82 UNL     1      21.419  33.687 109.792  1.00  0.00     0.177 HD
ATOM     24  H81 UNL     1      20.020  34.426 110.610  1.00  0.00     0.177 HD
ENDBRANCH  20  22
TORSDOF 1
ENDMDL
MODEL 4
REMARK VINA RESULT: -6.884598049      1.376      1.470
REMARK  1 active torsions:
REMARK  status: ('A' for Active; 'I' for Inactive)
REMARK       I    between atoms: C1_4  and  N2_5 
REMARK       I    between atoms: C1_4  and  N7_20 
REMARK    1  A    between atoms: N7_20  and  N8_22 
ROOT
HETATM    1  N1  UNL     1      20.678  35.257 112.014  1.00  0.00    -0.233 N 
ATOM      2  H11 UNL     1      20.743  34.839 111.086  1.00  0.00     0.174 HD
ATOM      3  H12 UNL     1      19.803  35.150 112.527  1.00  0.00     0.174 HD
HETATM    4  C1  UNL     1      21.652  35.912 112.565  1.00  0.00     0.704 C 
HETATM    5  N2  UNL     1      21.562  36.484 113.836  1.00  0.00    -0.019 N 
ATOM      6  H2  UNL     1      22.216  36.153 114.545  1.00  0.00     0.203 HD
HETATM    7  C2  UNL     1      20.721  37.395 114.189  1.00  0.00     0.726 C 
HETATM    8  N3  UNL     1      19.793  37.884 113.228  1.00  0.00    -0.127 N 
ATOM      9  H3  UNL     1      19.984  37.615 112.263  1.00  0.00     0.205 HD
HETATM   10  N4  UNL     1      18.641  38.690 113.412  1.00  0.00    -0.247 N 
ATOM     11  H4  UNL     1      17.957  38.692 112.655  1.00  0.00     0.191 HD
HETATM   12  C3  UNL     1      18.342  39.496 114.547  1.00  0.00     0.329 C 
HETATM   13  O1  UNL     1      17.261  40.150 114.506  1.00  0.00    -0.261 OA
HETATM   14  C4  UNL     1      19.103  39.691 115.783  1.00  0.00     0.329 C 
HETATM   15  O2  UNL     1      18.807  40.698 116.478  1.00  0.00    -0.261 OA
HETATM   16  N5  UNL     1      20.140  38.833 116.247  1.00  0.00    -0.247 N 
ATOM     17  H5  UNL     1      20.427  38.968 117.217  1.00  0.00     0.191 HD
HETATM   18  N6  UNL     1      20.823  37.821 115.539  1.00  0.00    -0.127 N 
ATOM     19  H6  UNL     1      21.507  37.306 116.093  1.00  0.00     0.205 HD
HETATM   20  N7  UNL     1      22.873  36.061 111.848  1.00  0.00    -0.139 N 
ATOM     21  H7  UNL     1      23.766  36.097 112.340  1.00  0.00     0.205 HD
ENDROOT
BRANCH  20  22
HETATM   22  N8  UNL     1      22.820  36.156 110.443  1.00  0.00    -0.331 N 
ATOM     23  H82 UNL     1      22.247  35.500 109.912  1.00  0.00     0.177 HD
ATOM     24  H81 UNL     1      23.362  36.888 109.985  1.00  0.00     0.177 HD
ENDBRANCH  20  22
TORSDOF 1
ENDMDL
MODEL 5
REMARK VINA RESULT: -6.798208159      2.447      3.346
REMARK  1 active torsions:
REMARK  status: ('A' for Active; 'I' for Inactive)
REMARK       I    between atoms: C1_4  and  N2_5 
REMARK       I    between atoms: C1_4  and  N7_20 
REMARK    1  A    between atoms: N7_20  and  N8_22 
ROOT
HETATM    1  N1  UNL     1      22.208  35.943 110.880  1.00  0.00    -0.233 N 
ATOM      2  H11 UNL     1      22.734  35.182 110.450  1.00  0.00     0.174 HD
ATOM      3  H12 UNL     1      22.725  36.758 111.209  1.00  0.00     0.174 HD
HETATM    4  C1  UNL     1      20.919  35.918 111.025  1.00  0.00     0.704 C 
HETATM    5  N2  UNL     1      20.199  36.960 111.613  1.00  0.00    -0.019 N 
ATOM      6  H2  UNL     1      19.497  37.425 111.039  1.00  0.00     0.203 HD
HETATM    7  C2  UNL     1      20.347  37.383 112.822  1.00  0.00     0.726 C 
HETATM    8  N3  UNL     1      21.318  36.759 113.655  1.00  0.00    -0.127 N 
ATOM      9  H3  UNL     1      21.699  35.883 113.297  1.00  0.00     0.205 HD
HETATM   10  N4  UNL     1      21.832  37.173 114.909  1.00  0.00    -0.247 N 
ATOM     11  H4  UNL     1      22.713  36.752 115.204  1.00  0.00     0.191 HD
HETATM   12  C3  UNL     1      21.245  38.118 115.798  1.00  0.00     0.329 C 
HETATM   13  O1  UNL     1      21.864  38.338 116.878  1.00  0.00    -0.261 OA
HETATM   14  C4  UNL     1      20.010  38.894 115.656  1.00  0.00     0.329 C 
HETATM   15  O2  UNL     1      19.534  39.396 116.708  1.00  0.00    -0.261 OA
HETATM   16  N5  UNL     1      19.323  39.116 114.430  1.00  0.00    -0.247 N 
ATOM     17  H5  UNL     1      18.611  39.847 114.447  1.00  0.00     0.191 HD
HETATM   18  N6  UNL     1      19.498  38.457 113.194  1.00  0.00    -0.127 N 
ATOM     19  H6  UNL     1      18.914  38.815 112.438  1.00  0.00     0.205 HD
HETATM   20  N7  UNL     1      20.198  34.779 110.565  1.00  0.00    -0.139 N 
ATOM     21  H7  UNL     1      19.250  34.875 110.198  1.00  0.00     0.205 HD
ENDROOT
BRANCH  20  22
HETATM   22  N8  UNL     1      20.822  33.518 110.629  1.00  0.00    -0.331 N 
ATOM     23  H82 UNL     1      20.285  32.700 110.918  1.00  0.00     0.177 HD
ATOM     24  H81 UNL     1      21.809  33.452 110.382  1.00  0.00     0.177 HD
ENDBRANCH  20  22
TORSDOF 1
ENDMDL
