MODEL 1
REMARK VINA RESULT: -6.781120701      0.000      0.000
REMARK  2 active torsions:
REMARK  status: ('A' for Active; 'I' for Inactive)
REMARK       I    between atoms: C1_2  and  N2_4 
REMARK    1  A    between atoms: N2_4  and  C2_6 
REMARK    2  A    between atoms: N5_15  and  N6_16 
ROOT
HETATM    1  C2  UNL     1      22.275  35.438 113.361  1.00  0.00     0.715 A 
HETATM    2  N3  UNL     1      23.177  36.241 112.731  1.00  0.00    -0.139 N 
ATOM      3  H3  UNL     1      23.861  36.745 113.295  1.00  0.00     0.189 HD
HETATM    4  C3  UNL     1      23.202  36.394 111.406  1.00  0.00     0.342 A 
HETATM    5  O2  UNL     1      24.038  37.138 110.815  1.00  0.00    -0.246 OA
HETATM    6  N4  UNL     1      22.301  35.732 110.657  1.00  0.00    -0.258 N 
ATOM      7  H4  UNL     1      22.297  35.830 109.641  1.00  0.00     0.175 HD
HETATM    8  C4  UNL     1      21.414  34.942 111.267  1.00  0.00     0.363 A 
HETATM    9  O3  UNL     1      20.545  34.299 110.590  1.00  0.00    -0.244 OA
HETATM   10  N5  UNL     1      21.374  34.773 112.624  1.00  0.00    -0.037 N 
ENDROOT
BRANCH   1  11
HETATM   11  N2  UNL     1      22.305  35.335 114.633  1.00  0.00    -0.141 N 
HETATM   12  C1  UNL     1      21.559  35.943 115.621  1.00  0.00     0.347 C 
HETATM   13  N1  UNL     1      20.405  35.298 116.180  1.00  0.00    -0.039 NA
HETATM   14  O1  UNL     1      21.827  37.086 116.103  1.00  0.00    -0.250 OA
ATOM     15  H2  UNL     1      23.008  34.684 114.983  1.00  0.00     0.189 HD
ENDBRANCH   1  11
BRANCH  10  16
HETATM   16  N6  UNL     1      20.397  33.919 113.166  1.00  0.00    -0.320 N 
ATOM     17  H62 UNL     1      20.530  33.567 114.115  1.00  0.00     0.178 HD
ATOM     18  H61 UNL     1      19.558  33.626 112.665  1.00  0.00     0.178 HD
ENDBRANCH  10  16
TORSDOF 2
ENDMDL
MODEL 2
REMARK VINA RESULT: -6.434208936      2.032      2.386
REMARK  2 active torsions:
REMARK  status: ('A' for Active; 'I' for Inactive)
REMARK       I    between atoms: C1_2  and  N2_4 
REMARK    1  A    between atoms: N2_4  and  C2_6 
REMARK    2  A    between atoms: N5_15  and  N6_16 
ROOT
HETATM    1  C2  UNL     1      21.681  36.508 114.503  1.00  0.00     0.715 A 
HETATM    2  N3  UNL     1      22.261  36.750 113.294  1.00  0.00    -0.139 N 
ATOM      3  H3  UNL     1      22.834  37.587 113.186  1.00  0.00     0.189 HD
HETATM    4  C3  UNL     1      22.111  35.938 112.247  1.00  0.00     0.342 A 
HETATM    5  O2  UNL     1      22.648  36.157 111.122  1.00  0.00    -0.246 OA
HETATM    6  N4  UNL     1      21.356  34.832 112.385  1.00  0.00    -0.258 N 
ATOM      7  H4  UNL     1      21.223  34.193 111.601  1.00  0.00     0.175 HD
HETATM    8  C4  UNL     1      20.783  34.587 113.566  1.00  0.00     0.363 A 
HETATM    9  O3  UNL     1      20.060  33.549 113.733  1.00  0.00    -0.244 OA
HETATM   10  N5  UNL     1      20.927  35.409 114.650  1.00  0.00    -0.037 N 
ENDROOT
BRANCH   1  11
HETATM   11  N2  UNL     1      21.865  37.326 115.465  1.00  0.00    -0.141 N 
HETATM   12  C1  UNL     1      21.281  38.540 115.761  1.00  0.00     0.347 C 
HETATM   13  N1  UNL     1      20.174  38.626 116.672  1.00  0.00    -0.039 NA
HETATM   14  O1  UNL     1      21.667  39.645 115.272  1.00  0.00    -0.250 OA
ATOM     15  H2  UNL     1      22.571  37.028 116.137  1.00  0.00     0.189 HD
ENDBRANCH   1  11
BRANCH  10  16
HETATM   16  N6  UNL     1      20.280  35.059 115.849  1.00  0.00    -0.320 N 
ATOM     17  H62 UNL     1      20.741  35.278 116.732  1.00  0.00     0.178 HD
ATOM     18  H61 UNL     1      19.373  34.595 115.889  1.00  0.00     0.178 HD
ENDBRANCH  10  16
TORSDOF 2
ENDMDL
MODEL 3
REMARK VINA RESULT: -6.302924931      2.564      4.754
REMARK  2 active torsions:
REMARK  status: ('A' for Active; 'I' for Inactive)
REMARK       I    between atoms: C1_2  and  N2_4 
REMARK    1  A    between atoms: N2_4  and  C2_6 
REMARK    2  A    between atoms: N5_15  and  N6_16 
ROOT
HETATM    1  C2  UNL     1      20.873  36.741 113.701  1.00  0.00     0.715 A 
HETATM    2  N3  UNL     1      19.911  37.534 113.153  1.00  0.00    -0.139 N 
ATOM      3  H3  UNL     1      19.651  37.385 112.178  1.00  0.00     0.189 HD
HETATM    4  C3  UNL     1      19.294  38.497 113.840  1.00  0.00     0.342 A 
HETATM    5  O2  UNL     1      18.399  39.236 113.336  1.00  0.00    -0.246 OA
HETATM    6  N4  UNL     1      19.633  38.697 115.127  1.00  0.00    -0.258 N 
ATOM      7  H4  UNL     1      19.178  39.427 115.676  1.00  0.00     0.175 HD
HETATM    8  C4  UNL     1      20.576  37.925 115.672  1.00  0.00     0.363 A 
HETATM    9  O3  UNL     1      20.923  38.086 116.889  1.00  0.00    -0.244 OA
HETATM   10  N5  UNL     1      21.218  36.933 114.983  1.00  0.00    -0.037 N 
ENDROOT
BRANCH   1  11
HETATM   11  N2  UNL     1      21.426  35.837 112.989  1.00  0.00    -0.141 N 
HETATM   12  C1  UNL     1      22.603  35.826 112.270  1.00  0.00     0.347 C 
HETATM   13  N1  UNL     1      23.810  35.294 112.837  1.00  0.00    -0.039 NA
HETATM   14  O1  UNL     1      22.708  36.267 111.086  1.00  0.00    -0.250 OA
ATOM     15  H2  UNL     1      20.901  34.964 112.943  1.00  0.00     0.189 HD
ENDBRANCH   1  11
BRANCH  10  16
HETATM   16  N6  UNL     1      22.197  36.176 115.651  1.00  0.00    -0.320 N 
ATOM     17  H62 UNL     1      23.069  36.634 115.917  1.00  0.00     0.178 HD
ATOM     18  H61 UNL     1      22.088  35.189 115.887  1.00  0.00     0.178 HD
ENDBRANCH  10  16
TORSDOF 2
ENDMDL
MODEL 4
REMARK VINA RESULT: -6.156714691      2.143      2.436
REMARK  2 active torsions:
REMARK  status: ('A' for Active; 'I' for Inactive)
REMARK       I    between atoms: C1_2  and  N2_4 
REMARK    1  A    between atoms: N2_4  and  C2_6 
REMARK    2  A    between atoms: N5_15  and  N6_16 
ROOT
HETATM    1  C2  UNL     1      21.736  36.013 114.375  1.00  0.00     0.715 A 
HETATM    2  N3  UNL     1      22.855  35.285 114.645  1.00  0.00    -0.139 N 
ATOM      3  H3  UNL     1      23.121  35.140 115.619  1.00  0.00     0.189 HD
HETATM    4  C3  UNL     1      23.617  34.753 113.688  1.00  0.00     0.342 A 
HETATM    5  O2  UNL     1      24.657  34.075 113.933  1.00  0.00    -0.246 OA
HETATM    6  N4  UNL     1      23.271  34.941 112.401  1.00  0.00    -0.258 N 
ATOM      7  H4  UNL     1      23.836  34.546 111.648  1.00  0.00     0.175 HD
HETATM    8  C4  UNL     1      22.176  35.654 112.127  1.00  0.00     0.363 A 
HETATM    9  O3  UNL     1      21.817  35.853 110.919  1.00  0.00    -0.244 OA
HETATM   10  N5  UNL     1      21.383  36.206 113.096  1.00  0.00    -0.037 N 
ENDROOT
BRANCH   1  11
HETATM   11  N2  UNL     1      21.050  36.495 115.337  1.00  0.00    -0.141 N 
HETATM   12  C1  UNL     1      20.868  37.790 115.776  1.00  0.00     0.347 C 
HETATM   13  N1  UNL     1      19.733  38.561 115.354  1.00  0.00    -0.039 NA
HETATM   14  O1  UNL     1      21.662  38.384 116.567  1.00  0.00    -0.250 OA
ATOM     15  H2  UNL     1      20.545  35.796 115.881  1.00  0.00     0.189 HD
ENDBRANCH   1  11
BRANCH  10  16
HETATM   16  N6  UNL     1      20.251  36.940 112.699  1.00  0.00    -0.320 N 
ATOM     17  H62 UNL     1      19.632  36.538 111.995  1.00  0.00     0.178 HD
ATOM     18  H61 UNL     1      20.009  37.857 113.075  1.00  0.00     0.178 HD
ENDBRANCH  10  16
TORSDOF 2
ENDMDL
MODEL 5
REMARK VINA RESULT: -6.039736690      2.991      5.225
REMARK  2 active torsions:
REMARK  status: ('A' for Active; 'I' for Inactive)
REMARK       I    between atoms: C1_2  and  N2_4 
REMARK    1  A    between atoms: N2_4  and  C2_6 
REMARK    2  A    between atoms: N5_15  and  N6_16 
ROOT
HETATM    1  C2  UNL     1      20.340  37.173 113.820  1.00  0.00     0.715 A 
HETATM    2  N3  UNL     1      19.362  37.967 113.303  1.00  0.00    -0.139 N 
ATOM      3  H3  UNL     1      19.035  37.786 112.354  1.00  0.00     0.189 HD
HETATM    4  C3  UNL     1      18.813  38.972 113.988  1.00  0.00     0.342 A 
HETATM    5  O2  UNL     1      17.903  39.713 113.514  1.00  0.00    -0.246 OA
HETATM    6  N4  UNL     1      19.241  39.215 115.241  1.00  0.00    -0.258 N 
ATOM      7  H4  UNL     1      18.839  39.977 115.788  1.00  0.00     0.175 HD
HETATM    8  C4  UNL     1      20.200  38.441 115.755  1.00  0.00     0.363 A 
HETATM    9  O3  UNL     1      20.630  38.642 116.939  1.00  0.00    -0.244 OA
HETATM   10  N5  UNL     1      20.773  37.407 115.067  1.00  0.00    -0.037 N 
ENDROOT
BRANCH   1  11
HETATM   11  N2  UNL     1      20.824  36.227 113.111  1.00  0.00    -0.141 N 
HETATM   12  C1  UNL     1      21.092  36.137 111.761  1.00  0.00     0.347 C 
HETATM   13  N1  UNL     1      22.406  36.406 111.249  1.00  0.00    -0.039 NA
HETATM   14  O1  UNL     1      20.227  35.815 110.891  1.00  0.00    -0.250 OA
ATOM     15  H2  UNL     1      21.053  35.386 113.639  1.00  0.00     0.189 HD
ENDBRANCH   1  11
BRANCH  10  16
HETATM   16  N6  UNL     1      21.777  36.653 115.701  1.00  0.00    -0.320 N 
ATOM     17  H62 UNL     1      21.791  36.621 116.721  1.00  0.00     0.178 HD
ATOM     18  H61 UNL     1      22.498  36.133 115.200  1.00  0.00     0.178 HD
ENDBRANCH  10  16
TORSDOF 2
ENDMDL
