MODEL 1
REMARK VINA RESULT: -7.061805496      0.000      0.000
REMARK  1 active torsions:
REMARK  status: ('A' for Active; 'I' for Inactive)
REMARK    1  A    between atoms: C6_13  and  C7_14 
ROOT
HETATM    1  C1  UNL     1      20.862  35.813 116.203  1.00  0.00     0.045 C 
HETATM    2  C2  UNL     1      21.302  36.157 115.043  1.00  0.00     0.055 C 
HETATM    3  N1  UNL     1      22.452  35.572 114.599  1.00  0.00    -0.319 N 
ATOM      4  H1  UNL     1      23.080  35.209 115.316  1.00  0.00     0.169 HD
HETATM    5  C3  UNL     1      22.858  35.417 113.303  1.00  0.00     0.302 C 
HETATM    6  O1  UNL     1      23.994  34.962 113.129  1.00  0.00    -0.264 OA
HETATM    7  C4  UNL     1      22.140  35.715 112.156  1.00  0.00     0.306 C 
HETATM    8  O2  UNL     1      22.638  35.391 111.053  1.00  0.00    -0.276 OA
HETATM    9  C5  UNL     1      20.907  36.339 112.040  1.00  0.00     0.302 C 
HETATM   10  O3  UNL     1      20.306  36.291 110.936  1.00  0.00    -0.264 OA
HETATM   11  N2  UNL     1      20.258  37.022 113.037  1.00  0.00    -0.316 N 
ATOM     12  H2  UNL     1      19.429  37.542 112.748  1.00  0.00     0.169 HD
HETATM   13  C6  UNL     1      20.570  37.100 114.362  1.00  0.00     0.100 C 
ENDROOT
BRANCH  13  14
HETATM   14  C7  UNL     1      20.169  38.173 115.016  1.00  0.00     0.157 C 
HETATM   15  N3  UNL     1      18.803  38.579 114.814  1.00  0.00    -0.084 NA
HETATM   16  N4  UNL     1      20.927  38.992 115.859  1.00  0.00    -0.084 NA
ENDBRANCH  13  14
TORSDOF 1
ENDMDL
MODEL 2
REMARK VINA RESULT: -6.738248456      2.663      4.715
REMARK  1 active torsions:
REMARK  status: ('A' for Active; 'I' for Inactive)
REMARK    1  A    between atoms: C6_13  and  C7_14 
ROOT
HETATM    1  C1  UNL     1      20.621  35.203 111.707  1.00  0.00     0.045 C 
HETATM    2  C2  UNL     1      20.828  36.240 112.441  1.00  0.00     0.055 C 
HETATM    3  N1  UNL     1      19.849  37.189 112.491  1.00  0.00    -0.319 N 
ATOM      4  H1  UNL     1      19.212  37.223 111.696  1.00  0.00     0.169 HD
HETATM    5  C3  UNL     1      19.626  38.099 113.486  1.00  0.00     0.302 C 
HETATM    6  O1  UNL     1      18.753  38.949 113.275  1.00  0.00    -0.264 OA
HETATM    7  C4  UNL     1      20.270  38.182 114.711  1.00  0.00     0.306 C 
HETATM    8  O2  UNL     1      19.842  39.016 115.542  1.00  0.00    -0.276 OA
HETATM    9  C5  UNL     1      21.356  37.453 115.172  1.00  0.00     0.302 C 
HETATM   10  O3  UNL     1      21.634  37.493 116.397  1.00  0.00    -0.264 OA
HETATM   11  N2  UNL     1      22.179  36.669 114.404  1.00  0.00    -0.316 N 
ATOM     12  H2  UNL     1      23.014  36.315 114.872  1.00  0.00     0.169 HD
HETATM   13  C6  UNL     1      22.033  36.298 113.100  1.00  0.00     0.100 C 
ENDROOT
BRANCH  13  14
HETATM   14  C7  UNL     1      23.129  36.011 112.426  1.00  0.00     0.157 C 
HETATM   15  N3  UNL     1      23.976  34.986 112.976  1.00  0.00    -0.084 NA
HETATM   16  N4  UNL     1      23.591  36.614 111.252  1.00  0.00    -0.084 NA
ENDBRANCH  13  14
TORSDOF 1
ENDMDL
MODEL 3
REMARK VINA RESULT: -6.252593531      2.700      4.062
REMARK  1 active torsions:
REMARK  status: ('A' for Active; 'I' for Inactive)
REMARK    1  A    between atoms: C6_13  and  C7_14 
ROOT
HETATM    1  C1  UNL     1      23.000  35.727 112.924  1.00  0.00     0.045 C 
HETATM    2  C2  UNL     1      21.978  36.221 113.532  1.00  0.00     0.055 C 
HETATM    3  N1  UNL     1      22.189  36.836 114.732  1.00  0.00    -0.319 N 
ATOM      4  H1  UNL     1      23.023  36.552 115.245  1.00  0.00     0.169 HD
HETATM    5  C3  UNL     1      21.408  37.788 115.324  1.00  0.00     0.302 C 
HETATM    6  O1  UNL     1      21.720  38.126 116.471  1.00  0.00    -0.264 OA
HETATM    7  C4  UNL     1      20.298  38.420 114.785  1.00  0.00     0.306 C 
HETATM    8  O2  UNL     1      19.782  39.355 115.439  1.00  0.00    -0.276 OA
HETATM    9  C5  UNL     1      19.649  38.164 113.586  1.00  0.00     0.302 C 
HETATM   10  O3  UNL     1      18.822  39.007 113.155  1.00  0.00    -0.264 OA
HETATM   11  N2  UNL     1      19.826  37.054 112.801  1.00  0.00    -0.316 N 
ATOM     12  H2  UNL     1      19.170  36.952 112.027  1.00  0.00     0.169 HD
HETATM   13  C6  UNL     1      20.761  36.067 112.914  1.00  0.00     0.100 C 
ENDROOT
BRANCH  13  14
HETATM   14  C7  UNL     1      20.451  34.882 112.426  1.00  0.00     0.157 C 
HETATM   15  N3  UNL     1      20.134  33.853 113.382  1.00  0.00    -0.084 NA
HETATM   16  N4  UNL     1      20.431  34.490 111.084  1.00  0.00    -0.084 NA
ENDBRANCH  13  14
TORSDOF 1
ENDMDL
MODEL 4
REMARK VINA RESULT: -6.090751990      1.274      2.780
REMARK  1 active torsions:
REMARK  status: ('A' for Active; 'I' for Inactive)
REMARK    1  A    between atoms: C6_13  and  C7_14 
ROOT
HETATM    1  C1  UNL     1      19.896  38.844 113.609  1.00  0.00     0.045 C 
HETATM    2  C2  UNL     1      20.387  37.676 113.385  1.00  0.00     0.055 C 
HETATM    3  N1  UNL     1      19.923  36.988 112.302  1.00  0.00    -0.319 N 
ATOM      4  H1  UNL     1      18.994  37.243 111.968  1.00  0.00     0.169 HD
HETATM    5  C3  UNL     1      20.563  35.995 111.614  1.00  0.00     0.302 C 
HETATM    6  O1  UNL     1      19.911  35.423 110.733  1.00  0.00    -0.264 OA
HETATM    7  C4  UNL     1      21.864  35.551 111.792  1.00  0.00     0.306 C 
HETATM    8  O2  UNL     1      22.311  34.707 110.981  1.00  0.00    -0.276 OA
HETATM    9  C5  UNL     1      22.779  35.914 112.768  1.00  0.00     0.302 C 
HETATM   10  O3  UNL     1      23.986  35.595 112.614  1.00  0.00    -0.264 OA
HETATM   11  N2  UNL     1      22.493  36.606 113.918  1.00  0.00    -0.316 N 
ATOM     12  H2  UNL     1      23.252  36.667 114.596  1.00  0.00     0.169 HD
HETATM   13  C6  UNL     1      21.331  37.224 114.276  1.00  0.00     0.100 C 
ENDROOT
BRANCH  13  14
HETATM   14  C7  UNL     1      21.091  37.360 115.565  1.00  0.00     0.157 C 
HETATM   15  N3  UNL     1      20.374  36.289 116.205  1.00  0.00    -0.084 NA
HETATM   16  N4  UNL     1      21.418  38.445 116.384  1.00  0.00    -0.084 NA
ENDBRANCH  13  14
TORSDOF 1
ENDMDL
MODEL 5
REMARK VINA RESULT: -6.076464166      2.556      4.633
REMARK  1 active torsions:
REMARK  status: ('A' for Active; 'I' for Inactive)
REMARK    1  A    between atoms: C6_13  and  C7_14 
ROOT
HETATM    1  C1  UNL     1      21.285  35.186 111.148  1.00  0.00     0.045 C 
HETATM    2  C2  UNL     1      21.246  35.988 112.155  1.00  0.00     0.055 C 
HETATM    3  N1  UNL     1      20.306  36.977 112.144  1.00  0.00    -0.319 N 
ATOM      4  H1  UNL     1      19.960  37.261 111.228  1.00  0.00     0.169 HD
HETATM    5  C3  UNL     1      19.776  37.629 113.221  1.00  0.00     0.302 C 
HETATM    6  O1  UNL     1      19.022  38.578 112.979  1.00  0.00    -0.264 OA
HETATM    7  C4  UNL     1      19.991  37.351 114.563  1.00  0.00     0.306 C 
HETATM    8  O2  UNL     1      19.320  37.989 115.407  1.00  0.00    -0.276 OA
HETATM    9  C5  UNL     1      20.867  36.439 115.131  1.00  0.00     0.302 C 
HETATM   10  O3  UNL     1      20.735  36.152 116.348  1.00  0.00    -0.264 OA
HETATM   11  N2  UNL     1      21.892  35.800 114.480  1.00  0.00    -0.316 N 
ATOM     12  H2  UNL     1      22.530  35.271 115.075  1.00  0.00     0.169 HD
HETATM   13  C6  UNL     1      22.173  35.776 113.146  1.00  0.00     0.100 C 
ENDROOT
BRANCH  13  14
HETATM   14  C7  UNL     1      23.428  35.570 112.796  1.00  0.00     0.157 C 
HETATM   15  N3  UNL     1      23.958  36.420 111.762  1.00  0.00    -0.084 NA
HETATM   16  N4  UNL     1      24.301  34.593 113.285  1.00  0.00    -0.084 NA
ENDBRANCH  13  14
TORSDOF 1
ENDMDL
