MODEL 1
REMARK VINA RESULT: -7.103513826      0.000      0.000
REMARK  3 active torsions:
REMARK  status: ('A' for Active; 'I' for Inactive)
REMARK       I    between atoms: C2_2  and  N1_4 
REMARK    1  A    between atoms: N1_4  and  C3_6 
REMARK    2  A    between atoms: C5_15  and  N5_16 
REMARK    3  A    between atoms: N5_16  and  N6_18 
ROOT
HETATM    1  C3  UNL     1      20.740  35.532 113.799  1.00  0.00     0.169 A 
HETATM    2  N2  UNL     1      19.818  36.508 113.894  1.00  0.00    -0.278 N 
ATOM      3  H2  UNL     1      19.012  36.503 113.270  1.00  0.00     0.189 HD
HETATM    4  N3  UNL     1      19.949  37.489 114.801  1.00  0.00    -0.250 N 
ATOM      5  H3  UNL     1      19.236  38.215 114.851  1.00  0.00     0.192 HD
HETATM    6  C4  UNL     1      20.994  37.541 115.645  1.00  0.00     0.340 A 
HETATM    7  O2  UNL     1      21.076  38.480 116.480  1.00  0.00    -0.245 OA
HETATM    8  N4  UNL     1      21.941  36.586 115.586  1.00  0.00    -0.289 N 
ATOM      9  H4  UNL     1      22.741  36.608 116.217  1.00  0.00     0.172 HD
HETATM   10  C5  UNL     1      21.809  35.591 114.667  1.00  0.00     0.170 A 
ENDROOT
BRANCH   1  11
HETATM   11  N1  UNL     1      20.649  34.576 112.942  1.00  0.00    -0.309 N 
HETATM   12  C2  UNL     1      21.016  34.628 111.607  1.00  0.00     0.219 C 
HETATM   13  C1  UNL     1      20.022  34.407 110.536  1.00  0.00     0.117 C 
HETATM   14  O1  UNL     1      22.201  34.867 111.291  1.00  0.00    -0.274 OA
ATOM     15  H1  UNL     1      20.269  33.692 113.280  1.00  0.00     0.170 HD
ENDBRANCH   1  11
BRANCH  10  16
HETATM   16  N5  UNL     1      22.707  34.651 114.583  1.00  0.00    -0.289 N 
ATOM     17  H5  UNL     1      22.566  33.759 115.058  1.00  0.00     0.188 HD
BRANCH  16  18
HETATM   18  N6  UNL     1      23.855  34.877 113.844  1.00  0.00    -0.344 N 
ATOM     19  H62 UNL     1      23.774  35.159 112.867  1.00  0.00     0.176 HD
ATOM     20  H61 UNL     1      24.765  34.756 114.287  1.00  0.00     0.176 HD
ENDBRANCH  16  18
ENDBRANCH  10  16
TORSDOF 3
ENDMDL
MODEL 2
REMARK VINA RESULT: -7.029837720      1.555      4.264
REMARK  3 active torsions:
REMARK  status: ('A' for Active; 'I' for Inactive)
REMARK       I    between atoms: C2_2  and  N1_4 
REMARK    1  A    between atoms: N1_4  and  C3_6 
REMARK    2  A    between atoms: C5_15  and  N5_16 
REMARK    3  A    between atoms: N5_16  and  N6_18 
ROOT
HETATM    1  C3  UNL     1      21.123  36.356 113.137  1.00  0.00     0.169 A 
HETATM    2  N2  UNL     1      20.469  36.801 112.049  1.00  0.00    -0.278 N 
ATOM      3  H2  UNL     1      20.144  37.768 112.016  1.00  0.00     0.189 HD
HETATM    4  N3  UNL     1      20.238  35.989 111.006  1.00  0.00    -0.250 N 
ATOM      5  H3  UNL     1      19.740  36.353 110.194  1.00  0.00     0.192 HD
HETATM    6  C4  UNL     1      20.645  34.707 111.001  1.00  0.00     0.340 A 
HETATM    7  O2  UNL     1      20.407  33.981 110.000  1.00  0.00    -0.245 OA
HETATM    8  N4  UNL     1      21.303  34.218 112.068  1.00  0.00    -0.289 N 
ATOM      9  H4  UNL     1      21.619  33.249 112.084  1.00  0.00     0.172 HD
HETATM   10  C5  UNL     1      21.538  35.041 113.126  1.00  0.00     0.170 A 
ENDROOT
BRANCH   1  11
HETATM   11  N1  UNL     1      21.362  37.105 114.155  1.00  0.00    -0.309 N 
HETATM   12  C2  UNL     1      20.552  37.267 115.267  1.00  0.00     0.219 C 
HETATM   13  C1  UNL     1      20.000  38.591 115.621  1.00  0.00     0.117 C 
HETATM   14  O1  UNL     1      20.275  36.286 115.990  1.00  0.00    -0.274 OA
ATOM     15  H1  UNL     1      22.236  37.632 114.143  1.00  0.00     0.170 HD
ENDBRANCH   1  11
BRANCH  10  16
HETATM   16  N5  UNL     1      22.172  34.599 114.174  1.00  0.00    -0.289 N 
ATOM     17  H5  UNL     1      21.655  34.297 115.000  1.00  0.00     0.188 HD
BRANCH  16  18
HETATM   18  N6  UNL     1      23.554  34.544 114.155  1.00  0.00    -0.344 N 
ATOM     19  H62 UNL     1      24.079  35.299 113.713  1.00  0.00     0.176 HD
ATOM     20  H61 UNL     1      24.027  33.748 114.582  1.00  0.00     0.176 HD
ENDBRANCH  16  18
ENDBRANCH  10  16
TORSDOF 3
ENDMDL
MODEL 3
REMARK VINA RESULT: -7.029026113      1.827      4.526
REMARK  3 active torsions:
REMARK  status: ('A' for Active; 'I' for Inactive)
REMARK       I    between atoms: C2_2  and  N1_4 
REMARK    1  A    between atoms: N1_4  and  C3_6 
REMARK    2  A    between atoms: C5_15  and  N5_16 
REMARK    3  A    between atoms: N5_16  and  N6_18 
ROOT
HETATM    1  C3  UNL     1      21.200  36.038 112.932  1.00  0.00     0.169 A 
HETATM    2  N2  UNL     1      21.019  36.618 111.731  1.00  0.00    -0.278 N 
ATOM      3  H2  UNL     1      21.254  37.602 111.606  1.00  0.00     0.189 HD
HETATM    4  N3  UNL     1      20.533  35.915 110.697  1.00  0.00    -0.250 N 
ATOM      5  H3  UNL     1      20.406  36.380 109.798  1.00  0.00     0.192 HD
HETATM    6  C4  UNL     1      20.207  34.616 110.811  1.00  0.00     0.340 A 
HETATM    7  O2  UNL     1      19.754  33.995 109.813  1.00  0.00    -0.245 OA
HETATM    8  N4  UNL     1      20.371  33.995 111.994  1.00  0.00    -0.289 N 
ATOM      9  H4  UNL     1      20.129  33.010 112.102  1.00  0.00     0.172 HD
HETATM   10  C5  UNL     1      20.864  34.706 113.044  1.00  0.00     0.170 A 
ENDROOT
BRANCH   1  11
HETATM   11  N1  UNL     1      21.664  36.680 113.947  1.00  0.00    -0.309 N 
HETATM   12  C2  UNL     1      20.934  37.447 114.840  1.00  0.00     0.219 C 
HETATM   13  C1  UNL     1      21.209  38.890 115.005  1.00  0.00     0.117 C 
HETATM   14  O1  UNL     1      20.027  36.924 115.521  1.00  0.00    -0.274 OA
ATOM     15  H1  UNL     1      22.669  36.616 114.110  1.00  0.00     0.170 HD
ENDBRANCH   1  11
BRANCH  10  16
HETATM   16  N5  UNL     1      21.035  34.135 114.202  1.00  0.00    -0.289 N 
ATOM     17  H5  UNL     1      21.966  33.844 114.501  1.00  0.00     0.188 HD
BRANCH  16  18
HETATM   18  N6  UNL     1      19.940  33.928 115.021  1.00  0.00    -0.344 N 
ATOM     19  H62 UNL     1      19.683  34.641 115.704  1.00  0.00     0.176 HD
ATOM     20  H61 UNL     1      19.407  33.063 114.931  1.00  0.00     0.176 HD
ENDBRANCH  16  18
ENDBRANCH  10  16
TORSDOF 3
ENDMDL
MODEL 4
REMARK VINA RESULT: -7.025112898      1.861      4.510
REMARK  3 active torsions:
REMARK  status: ('A' for Active; 'I' for Inactive)
REMARK       I    between atoms: C2_2  and  N1_4 
REMARK    1  A    between atoms: N1_4  and  C3_6 
REMARK    2  A    between atoms: C5_15  and  N5_16 
REMARK    3  A    between atoms: N5_16  and  N6_18 
ROOT
HETATM    1  C3  UNL     1      21.755  35.123 113.468  1.00  0.00     0.169 A 
HETATM    2  N2  UNL     1      20.647  34.374 113.321  1.00  0.00    -0.278 N 
ATOM      3  H2  UNL     1      20.102  34.113 114.143  1.00  0.00     0.189 HD
HETATM    4  N3  UNL     1      20.252  33.965 112.106  1.00  0.00    -0.250 N 
ATOM      5  H3  UNL     1      19.408  33.398 112.024  1.00  0.00     0.192 HD
HETATM    6  C4  UNL     1      20.936  34.282 110.993  1.00  0.00     0.340 A 
HETATM    7  O2  UNL     1      20.528  33.876 109.872  1.00  0.00    -0.245 OA
HETATM    8  N4  UNL     1      22.051  35.029 111.092  1.00  0.00    -0.289 N 
ATOM      9  H4  UNL     1      22.585  35.279 110.260  1.00  0.00     0.172 HD
HETATM   10  C5  UNL     1      22.453  35.444 112.324  1.00  0.00     0.170 A 
ENDROOT
BRANCH   1  11
HETATM   11  N1  UNL     1      22.166  35.533 114.617  1.00  0.00    -0.309 N 
HETATM   12  C2  UNL     1      21.380  36.042 115.639  1.00  0.00     0.219 C 
HETATM   13  C1  UNL     1      21.580  37.419 116.139  1.00  0.00     0.117 C 
HETATM   14  O1  UNL     1      20.486  35.338 116.153  1.00  0.00    -0.274 OA
ATOM     15  H1  UNL     1      23.169  35.478 114.793  1.00  0.00     0.170 HD
ENDBRANCH   1  11
BRANCH  10  16
HETATM   16  N5  UNL     1      23.527  36.169 112.455  1.00  0.00    -0.289 N 
ATOM     17  H5  UNL     1      24.004  36.226 113.354  1.00  0.00     0.188 HD
BRANCH  16  18
HETATM   18  N6  UNL     1      24.013  36.861 111.360  1.00  0.00    -0.344 N 
ATOM     19  H62 UNL     1      23.997  36.420 110.440  1.00  0.00     0.176 HD
ATOM     20  H61 UNL     1      24.381  37.804 111.489  1.00  0.00     0.176 HD
ENDBRANCH  16  18
ENDBRANCH  10  16
TORSDOF 3
ENDMDL
MODEL 5
REMARK VINA RESULT: -6.647212298      2.380      4.200
REMARK  3 active torsions:
REMARK  status: ('A' for Active; 'I' for Inactive)
REMARK       I    between atoms: C2_2  and  N1_4 
REMARK    1  A    between atoms: N1_4  and  C3_6 
REMARK    2  A    between atoms: C5_15  and  N5_16 
REMARK    3  A    between atoms: N5_16  and  N6_18 
ROOT
HETATM    1  C3  UNL     1      20.776  36.767 112.897  1.00  0.00     0.169 A 
HETATM    2  N2  UNL     1      21.519  36.864 114.015  1.00  0.00    -0.278 N 
ATOM      3  H2  UNL     1      21.236  37.506 114.755  1.00  0.00     0.189 HD
HETATM    4  N3  UNL     1      22.630  36.126 114.166  1.00  0.00    -0.250 N 
ATOM      5  H3  UNL     1      23.174  36.220 115.023  1.00  0.00     0.192 HD
HETATM    6  C4  UNL     1      23.046  35.267 113.219  1.00  0.00     0.340 A 
HETATM    7  O2  UNL     1      24.095  34.594 113.404  1.00  0.00    -0.245 OA
HETATM    8  N4  UNL     1      22.334  35.138 112.084  1.00  0.00    -0.289 N 
ATOM      9  H4  UNL     1      22.633  34.492 111.354  1.00  0.00     0.172 HD
HETATM   10  C5  UNL     1      21.208  35.885 111.930  1.00  0.00     0.170 A 
ENDROOT
BRANCH   1  11
HETATM   11  N1  UNL     1      19.706  37.459 112.717  1.00  0.00    -0.309 N 
HETATM   12  C2  UNL     1      19.351  38.619 113.386  1.00  0.00     0.219 C 
HETATM   13  C1  UNL     1      18.116  38.683 114.195  1.00  0.00     0.117 C 
HETATM   14  O1  UNL     1      20.078  39.632 113.314  1.00  0.00    -0.274 OA
ATOM     15  H1  UNL     1      19.053  37.119 112.010  1.00  0.00     0.170 HD
ENDBRANCH   1  11
BRANCH  10  16
HETATM   16  N5  UNL     1      20.496  35.783 110.844  1.00  0.00    -0.289 N 
ATOM     17  H5  UNL     1      20.005  36.597 110.472  1.00  0.00     0.188 HD
BRANCH  16  18
HETATM   18  N6  UNL     1      20.412  34.561 110.202  1.00  0.00    -0.344 N 
ATOM     19  H62 UNL     1      21.261  34.128 109.837  1.00  0.00     0.176 HD
ATOM     20  H61 UNL     1      19.503  34.111 110.103  1.00  0.00     0.176 HD
ENDBRANCH  16  18
ENDBRANCH  10  16
TORSDOF 3
ENDMDL
