MODEL 1
REMARK VINA RESULT: -6.978852657      0.000      0.000
REMARK  3 active torsions:
REMARK  status: ('A' for Active; 'I' for Inactive)
REMARK    1  A    between atoms: N1_1  and  C1_4 
REMARK    2  A    between atoms: C3_11  and  N4_12 
REMARK       I    between atoms: N4_12  and  C4_14 
REMARK    3  A    between atoms: N6_16  and  O2_18 
ROOT
HETATM    1  C1  UNL     1      23.066  35.018 113.756  1.00  0.00     0.692 A 
HETATM    2  N2  UNL     1      22.942  35.126 112.420  1.00  0.00    -0.129 N 
ATOM      3  H2  UNL     1      23.588  34.647 111.792  1.00  0.00     0.205 HD
HETATM    4  N3  UNL     1      21.959  35.872 111.945  1.00  0.00    -0.249 N 
ATOM      5  H3  UNL     1      21.842  35.969 110.937  1.00  0.00     0.191 HD
HETATM    6  C2  UNL     1      21.104  36.509 112.782  1.00  0.00     0.305 A 
HETATM    7  O1  UNL     1      20.176  37.214 112.301  1.00  0.00    -0.263 OA
HETATM    8  C3  UNL     1      21.219  36.406 114.153  1.00  0.00     0.193 A 
HETATM    9  N7  UNL     1      22.228  35.641 114.605  1.00  0.00    -0.170 N 
ATOM     10  H7  UNL     1      22.362  35.530 115.610  1.00  0.00     0.186 HD
ENDROOT
BRANCH   8  11
HETATM   11  N4  UNL     1      20.385  37.028 114.882  1.00  0.00    -0.310 N 
HETATM   12  C4  UNL     1      20.552  38.355 115.361  1.00  0.00     0.213 C 
HETATM   13  N5  UNL     1      20.631  38.567 116.763  1.00  0.00    -0.061 NA
HETATM   14  N6  UNL     1      20.636  39.380 114.601  1.00  0.00    -0.241 N 
ATOM     15  H6  UNL     1      20.584  39.269 113.588  1.00  0.00     0.197 HD
ATOM     16  H4  UNL     1      19.530  36.537 115.144  1.00  0.00     0.170 HD
BRANCH  14  17
HETATM   17  O2  UNL     1      20.796  40.623 115.141  1.00  0.00    -0.287 OA
ATOM     18  H2  UNL     1      20.223  41.334 114.881  1.00  0.00     0.244 HD
ENDBRANCH  14  17
ENDBRANCH   8  11
BRANCH   1  19
HETATM   19  N1  UNL     1      24.031  34.284 114.235  1.00  0.00    -0.233 N 
ATOM     20  H12 UNL     1      23.840  33.318 114.499  1.00  0.00     0.174 HD
ATOM     21  H11 UNL     1      24.957  34.701 114.333  1.00  0.00     0.174 HD
ENDBRANCH   1  19
TORSDOF 3
ENDMDL
MODEL 2
REMARK VINA RESULT: -6.905491431      2.150      4.885
REMARK  3 active torsions:
REMARK  status: ('A' for Active; 'I' for Inactive)
REMARK    1  A    between atoms: N1_1  and  C1_4 
REMARK    2  A    between atoms: C3_11  and  N4_12 
REMARK       I    between atoms: N4_12  and  C4_14 
REMARK    3  A    between atoms: N6_16  and  O2_18 
ROOT
HETATM    1  C1  UNL     1      20.401  39.106 114.685  1.00  0.00     0.692 A 
HETATM    2  N2  UNL     1      20.178  38.884 115.995  1.00  0.00    -0.129 N 
ATOM      3  H2  UNL     1      19.939  39.651 116.623  1.00  0.00     0.205 HD
HETATM    4  N3  UNL     1      20.279  37.644 116.440  1.00  0.00    -0.249 N 
ATOM      5  H3  UNL     1      20.115  37.448 117.428  1.00  0.00     0.191 HD
HETATM    6  C2  UNL     1      20.599  36.627 115.602  1.00  0.00     0.305 A 
HETATM    7  O1  UNL     1      20.689  35.455 116.055  1.00  0.00    -0.263 OA
HETATM    8  C3  UNL     1      20.829  36.841 114.258  1.00  0.00     0.193 A 
HETATM    9  N7  UNL     1      20.719  38.113 113.835  1.00  0.00    -0.170 N 
ATOM     10  H7  UNL     1      20.879  38.329 112.851  1.00  0.00     0.186 HD
ENDROOT
BRANCH   8  11
HETATM   11  N4  UNL     1      21.125  35.846 113.526  1.00  0.00    -0.310 N 
HETATM   12  C4  UNL     1      22.433  35.321 113.352  1.00  0.00     0.213 C 
HETATM   13  N5  UNL     1      23.013  35.354 112.056  1.00  0.00    -0.061 NA
HETATM   14  N6  UNL     1      23.129  34.818 114.300  1.00  0.00    -0.241 N 
ATOM     15  H6  UNL     1      22.748  34.777 115.245  1.00  0.00     0.197 HD
ATOM     16  H4  UNL     1      20.364  35.388 113.024  1.00  0.00     0.170 HD
BRANCH  14  17
HETATM   17  O2  UNL     1      24.381  34.336 114.050  1.00  0.00    -0.287 OA
ATOM     18  H2  UNL     1      24.681  34.229 113.155  1.00  0.00     0.244 HD
ENDBRANCH  14  17
ENDBRANCH   8  11
BRANCH   1  19
HETATM   19  N1  UNL     1      20.303  40.325 114.235  1.00  0.00    -0.233 N 
ATOM     20  H12 UNL     1      21.051  40.990 114.430  1.00  0.00     0.174 HD
ATOM     21  H11 UNL     1      19.476  40.581 113.696  1.00  0.00     0.174 HD
ENDBRANCH   1  19
TORSDOF 3
ENDMDL
MODEL 3
REMARK VINA RESULT: -6.881227464      1.504      2.113
REMARK  3 active torsions:
REMARK  status: ('A' for Active; 'I' for Inactive)
REMARK    1  A    between atoms: N1_1  and  C1_4 
REMARK    2  A    between atoms: C3_11  and  N4_12 
REMARK       I    between atoms: N4_12  and  C4_14 
REMARK    3  A    between atoms: N6_16  and  O2_18 
ROOT
HETATM    1  C1  UNL     1      22.000  35.774 112.227  1.00  0.00     0.692 A 
HETATM    2  N2  UNL     1      22.792  34.970 112.961  1.00  0.00    -0.129 N 
ATOM      3  H2  UNL     1      23.492  34.375 112.518  1.00  0.00     0.205 HD
HETATM    4  N3  UNL     1      22.634  34.973 114.274  1.00  0.00    -0.249 N 
ATOM      5  H3  UNL     1      23.221  34.374 114.853  1.00  0.00     0.191 HD
HETATM    6  C2  UNL     1      21.701  35.762 114.860  1.00  0.00     0.305 A 
HETATM    7  O1  UNL     1      21.572  35.745 116.113  1.00  0.00    -0.263 OA
HETATM    8  C3  UNL     1      20.884  36.592 114.119  1.00  0.00     0.193 A 
HETATM    9  N7  UNL     1      21.068  36.567 112.787  1.00  0.00    -0.170 N 
ATOM     10  H7  UNL     1      20.491  37.159 112.190  1.00  0.00     0.186 HD
ENDROOT
BRANCH   8  11
HETATM   11  N4  UNL     1      20.029  37.307 114.729  1.00  0.00    -0.310 N 
HETATM   12  C4  UNL     1      20.276  38.605 115.251  1.00  0.00     0.213 C 
HETATM   13  N5  UNL     1      20.173  38.806 116.653  1.00  0.00    -0.061 NA
HETATM   14  N6  UNL     1      20.590  39.614 114.529  1.00  0.00    -0.241 N 
ATOM     15  H6  UNL     1      20.674  39.510 113.518  1.00  0.00     0.197 HD
ATOM     16  H4  UNL     1      19.094  36.920 114.854  1.00  0.00     0.170 HD
BRANCH  14  17
HETATM   17  O2  UNL     1      20.812  40.829 115.109  1.00  0.00    -0.287 OA
ATOM     18  H2  UNL     1      21.420  41.442 114.713  1.00  0.00     0.244 HD
ENDBRANCH  14  17
ENDBRANCH   8  11
BRANCH   1  19
HETATM   19  N1  UNL     1      22.148  35.780 110.932  1.00  0.00    -0.233 N 
ATOM     20  H12 UNL     1      22.917  35.256 110.515  1.00  0.00     0.174 HD
ATOM     21  H11 UNL     1      21.485  36.312 110.368  1.00  0.00     0.174 HD
ENDBRANCH   1  19
TORSDOF 3
ENDMDL
MODEL 4
REMARK VINA RESULT: -6.862698082      2.016      2.739
REMARK  3 active torsions:
REMARK  status: ('A' for Active; 'I' for Inactive)
REMARK    1  A    between atoms: N1_1  and  C1_4 
REMARK    2  A    between atoms: C3_11  and  N4_12 
REMARK       I    between atoms: N4_12  and  C4_14 
REMARK    3  A    between atoms: N6_16  and  O2_18 
ROOT
HETATM    1  C1  UNL     1      20.749  34.981 112.030  1.00  0.00     0.692 A 
HETATM    2  N2  UNL     1      20.315  33.970 112.806  1.00  0.00    -0.129 N 
ATOM      3  H2  UNL     1      19.906  33.131 112.396  1.00  0.00     0.205 HD
HETATM    4  N3  UNL     1      20.437  34.098 114.117  1.00  0.00    -0.249 N 
ATOM      5  H3  UNL     1      20.118  33.347 114.728  1.00  0.00     0.191 HD
HETATM    6  C2  UNL     1      20.980  35.216 114.659  1.00  0.00     0.305 A 
HETATM    7  O1  UNL     1      21.084  35.310 115.911  1.00  0.00    -0.263 OA
HETATM    8  C3  UNL     1      21.429  36.258 113.874  1.00  0.00     0.193 A 
HETATM    9  N7  UNL     1      21.291  36.099 112.545  1.00  0.00    -0.170 N 
ATOM     10  H7  UNL     1      21.605  36.838 111.917  1.00  0.00     0.186 HD
ENDROOT
BRANCH   8  11
HETATM   11  N4  UNL     1      21.928  37.278 114.444  1.00  0.00    -0.310 N 
HETATM   12  C4  UNL     1      21.179  38.342 115.013  1.00  0.00     0.213 C 
HETATM   13  N5  UNL     1      21.324  39.645 114.466  1.00  0.00    -0.061 NA
HETATM   14  N6  UNL     1      20.375  38.199 115.997  1.00  0.00    -0.241 N 
ATOM     15  H6  UNL     1      20.244  37.279 116.418  1.00  0.00     0.197 HD
ATOM     16  H4  UNL     1      22.945  37.337 114.496  1.00  0.00     0.170 HD
BRANCH  14  17
HETATM   17  O2  UNL     1      19.691  39.274 116.486  1.00  0.00    -0.287 OA
ATOM     18  H2  UNL     1      19.580  39.382 117.423  1.00  0.00     0.244 HD
ENDBRANCH  14  17
ENDBRANCH   8  11
BRANCH   1  19
HETATM   19  N1  UNL     1      20.634  34.865 110.736  1.00  0.00    -0.233 N 
ATOM     20  H12 UNL     1      20.476  33.943 110.330  1.00  0.00     0.174 HD
ATOM     21  H11 UNL     1      20.707  35.706 110.163  1.00  0.00     0.174 HD
ENDBRANCH   1  19
TORSDOF 3
ENDMDL
MODEL 5
REMARK VINA RESULT: -6.734628682      2.440      3.001
REMARK  3 active torsions:
REMARK  status: ('A' for Active; 'I' for Inactive)
REMARK    1  A    between atoms: N1_1  and  C1_4 
REMARK    2  A    between atoms: C3_11  and  N4_12 
REMARK       I    between atoms: N4_12  and  C4_14 
REMARK    3  A    between atoms: N6_16  and  O2_18 
ROOT
HETATM    1  C1  UNL     1      20.531  34.871 111.850  1.00  0.00     0.692 A 
HETATM    2  N2  UNL     1      20.424  33.777 112.626  1.00  0.00    -0.129 N 
ATOM      3  H2  UNL     1      20.383  32.844 112.215  1.00  0.00     0.205 HD
HETATM    4  N3  UNL     1      20.373  33.947 113.936  1.00  0.00    -0.249 N 
ATOM      5  H3  UNL     1      20.293  33.134 114.547  1.00  0.00     0.191 HD
HETATM    6  C2  UNL     1      20.426  35.188 114.479  1.00  0.00     0.305 A 
HETATM    7  O1  UNL     1      20.376  35.319 115.731  1.00  0.00    -0.263 OA
HETATM    8  C3  UNL     1      20.537  36.318 113.695  1.00  0.00     0.193 A 
HETATM    9  N7  UNL     1      20.586  36.113 112.367  1.00  0.00    -0.170 N 
ATOM     10  H7  UNL     1      20.666  36.912 111.739  1.00  0.00     0.186 HD
ENDROOT
BRANCH   8  11
HETATM   11  N4  UNL     1      20.581  37.452 114.266  1.00  0.00    -0.310 N 
HETATM   12  C4  UNL     1      19.675  38.520 114.030  1.00  0.00     0.213 C 
HETATM   13  N5  UNL     1      20.177  39.732 113.488  1.00  0.00    -0.061 NA
HETATM   14  N6  UNL     1      18.421  38.456 114.278  1.00  0.00    -0.241 N 
ATOM     15  H6  UNL     1      18.022  37.602 114.668  1.00  0.00     0.197 HD
ATOM     16  H4  UNL     1      21.326  37.608 114.945  1.00  0.00     0.170 HD
BRANCH  14  17
HETATM   17  O2  UNL     1      17.617  39.528 114.022  1.00  0.00    -0.287 OA
ATOM     18  H2  UNL     1      17.011  39.839 114.685  1.00  0.00     0.244 HD
ENDBRANCH  14  17
ENDBRANCH   8  11
BRANCH   1  19
HETATM   19  N1  UNL     1      20.583  34.716 110.557  1.00  0.00    -0.233 N 
ATOM     20  H12 UNL     1      21.035  35.429 109.986  1.00  0.00     0.174 HD
ATOM     21  H11 UNL     1      20.165  33.879 110.150  1.00  0.00     0.174 HD
ENDBRANCH   1  19
TORSDOF 3
ENDMDL
