MODEL 1
REMARK VINA RESULT: -7.254648249      0.000      0.000
REMARK  2 active torsions:
REMARK  status: ('A' for Active; 'I' for Inactive)
REMARK       I    between atoms: C1_4  and  N3_6 
REMARK    1  A    between atoms: N3_6  and  N4_7 
REMARK    2  A    between atoms: N3_6  and  N5_10 
ROOT
HETATM    1  N5  UNL     1      21.958  36.407 113.165  1.00  0.00    -0.257 N 
ATOM      2  H5  UNL     1      22.575  37.047 112.666  1.00  0.00     0.191 HD
HETATM    3  C2  UNL     1      21.345  35.481 112.481  1.00  0.00     0.195 A 
HETATM    4  N6  UNL     1      21.440  35.254 111.080  1.00  0.00    -0.289 N 
ATOM      5  H6  UNL     1      22.014  35.805 110.443  1.00  0.00     0.172 HD
HETATM    6  C3  UNL     1      20.635  34.164 110.690  1.00  0.00     0.328 A 
HETATM    7  O1  UNL     1      20.470  33.672 109.523  1.00  0.00    -0.247 OA
HETATM    8  N7  UNL     1      20.001  33.671 111.864  1.00  0.00    -0.272 N 
ATOM      9  H7  UNL     1      19.354  32.883 111.905  1.00  0.00     0.174 HD
HETATM   10  C4  UNL     1      20.424  34.469 112.983  1.00  0.00     0.295 A 
HETATM   11  O2  UNL     1      20.057  34.307 114.165  1.00  0.00    -0.264 OA
ENDROOT
BRANCH   1  12
HETATM   12  N3  UNL     1      21.817  36.568 114.523  1.00  0.00    -0.170 N 
HETATM   13  C1  UNL     1      21.160  37.723 115.031  1.00  0.00     0.223 C 
HETATM   14  N1  UNL     1      20.679  37.764 116.245  1.00  0.00    -0.371 N 
HETATM   15  N2  UNL     1      21.001  38.890 114.232  1.00  0.00    -0.060 NA
ATOM     16  H12 UNL     1      20.208  38.592 116.609  1.00  0.00     0.158 HD
ATOM     17  H11 UNL     1      20.793  36.927 116.818  1.00  0.00     0.158 HD
BRANCH  12  18
HETATM   18  N4  UNL     1      22.301  35.625 115.433  1.00  0.00    -0.321 N 
ATOM     19  H42 UNL     1      22.365  35.823 116.431  1.00  0.00     0.179 HD
ATOM     20  H41 UNL     1      22.598  34.716 115.078  1.00  0.00     0.179 HD
ENDBRANCH  12  18
ENDBRANCH   1  12
TORSDOF 2
ENDMDL
MODEL 2
REMARK VINA RESULT: -7.250304574      1.424      1.781
REMARK  2 active torsions:
REMARK  status: ('A' for Active; 'I' for Inactive)
REMARK       I    between atoms: C1_4  and  N3_6 
REMARK    1  A    between atoms: N3_6  and  N4_7 
REMARK    2  A    between atoms: N3_6  and  N5_10 
ROOT
HETATM    1  N5  UNL     1      20.437  35.009 114.236  1.00  0.00    -0.257 N 
ATOM      2  H5  UNL     1      19.749  34.358 114.614  1.00  0.00     0.191 HD
HETATM    3  C2  UNL     1      20.735  34.924 112.969  1.00  0.00     0.195 A 
HETATM    4  N6  UNL     1      20.197  34.005 112.026  1.00  0.00    -0.289 N 
ATOM      5  H6  UNL     1      19.501  33.293 112.246  1.00  0.00     0.172 HD
HETATM    6  C3  UNL     1      20.753  34.209 110.747  1.00  0.00     0.328 A 
HETATM    7  O1  UNL     1      20.513  33.579 109.663  1.00  0.00    -0.247 OA
HETATM    8  N7  UNL     1      21.676  35.287 110.860  1.00  0.00    -0.272 N 
ATOM      9  H7  UNL     1      22.239  35.670 110.100  1.00  0.00     0.174 HD
HETATM   10  C4  UNL     1      21.681  35.744 112.223  1.00  0.00     0.295 A 
HETATM   11  O2  UNL     1      22.380  36.679 112.668  1.00  0.00    -0.264 OA
ENDROOT
BRANCH   1  12
HETATM   12  N3  UNL     1      21.000  35.926 115.090  1.00  0.00    -0.170 N 
HETATM   13  C1  UNL     1      20.314  37.139 115.374  1.00  0.00     0.223 C 
HETATM   14  N1  UNL     1      20.600  37.864 116.423  1.00  0.00    -0.371 N 
HETATM   15  N2  UNL     1      19.279  37.616 114.520  1.00  0.00    -0.060 NA
ATOM     16  H12 UNL     1      20.107  38.734 116.626  1.00  0.00     0.158 HD
ATOM     17  H11 UNL     1      21.342  37.522 117.034  1.00  0.00     0.158 HD
BRANCH  12  18
HETATM   18  N4  UNL     1      22.239  35.706 115.698  1.00  0.00    -0.321 N 
ATOM     19  H42 UNL     1      22.805  34.885 115.484  1.00  0.00     0.179 HD
ATOM     20  H41 UNL     1      22.577  36.391 116.375  1.00  0.00     0.179 HD
ENDBRANCH  12  18
ENDBRANCH   1  12
TORSDOF 2
ENDMDL
MODEL 3
REMARK VINA RESULT: -7.028019554      1.729      2.117
REMARK  2 active torsions:
REMARK  status: ('A' for Active; 'I' for Inactive)
REMARK       I    between atoms: C1_4  and  N3_6 
REMARK    1  A    between atoms: N3_6  and  N4_7 
REMARK    2  A    between atoms: N3_6  and  N5_10 
ROOT
HETATM    1  N5  UNL     1      21.180  34.336 113.824  1.00  0.00    -0.257 N 
ATOM      2  H5  UNL     1      20.687  33.566 114.275  1.00  0.00     0.191 HD
HETATM    3  C2  UNL     1      20.922  34.582 112.569  1.00  0.00     0.195 A 
HETATM    4  N6  UNL     1      20.008  33.883 111.734  1.00  0.00    -0.289 N 
ATOM      5  H6  UNL     1      19.440  33.092 112.034  1.00  0.00     0.172 HD
HETATM    6  C3  UNL     1      19.992  34.430 110.434  1.00  0.00     0.328 A 
HETATM    7  O1  UNL     1      19.300  34.066 109.425  1.00  0.00    -0.247 OA
HETATM    8  N7  UNL     1      20.918  35.511 110.424  1.00  0.00    -0.272 N 
ATOM      9  H7  UNL     1      21.130  36.105 109.623  1.00  0.00     0.174 HD
HETATM   10  C4  UNL     1      21.505  35.623 111.732  1.00  0.00     0.295 A 
HETATM   11  O2  UNL     1      22.359  36.469 112.069  1.00  0.00    -0.264 OA
ENDROOT
BRANCH   1  12
HETATM   12  N3  UNL     1      22.081  35.056 114.572  1.00  0.00    -0.170 N 
HETATM   13  C1  UNL     1      21.609  36.009 115.516  1.00  0.00     0.223 C 
HETATM   14  N1  UNL     1      22.364  36.448 116.488  1.00  0.00    -0.371 N 
HETATM   15  N2  UNL     1      20.286  36.530 115.439  1.00  0.00    -0.060 NA
ATOM     16  H12 UNL     1      22.026  37.132 117.166  1.00  0.00     0.158 HD
ATOM     17  H11 UNL     1      23.313  36.075 116.543  1.00  0.00     0.158 HD
BRANCH  12  18
HETATM   18  N4  UNL     1      23.460  34.882 114.436  1.00  0.00    -0.321 N 
ATOM     19  H42 UNL     1      24.126  35.363 115.040  1.00  0.00     0.179 HD
ATOM     20  H41 UNL     1      23.801  34.253 113.708  1.00  0.00     0.179 HD
ENDBRANCH  12  18
ENDBRANCH   1  12
TORSDOF 2
ENDMDL
MODEL 4
REMARK VINA RESULT: -6.844098313      2.655      5.194
REMARK  2 active torsions:
REMARK  status: ('A' for Active; 'I' for Inactive)
REMARK       I    between atoms: C1_4  and  N3_6 
REMARK    1  A    between atoms: N3_6  and  N4_7 
REMARK    2  A    between atoms: N3_6  and  N5_10 
ROOT
HETATM    1  N5  UNL     1      21.265  36.743 115.144  1.00  0.00    -0.257 N 
ATOM      2  H5  UNL     1      21.599  36.463 116.065  1.00  0.00     0.191 HD
HETATM    3  C2  UNL     1      20.567  37.841 115.048  1.00  0.00     0.195 A 
HETATM    4  N6  UNL     1      20.207  38.717 116.108  1.00  0.00    -0.289 N 
ATOM      5  H6  UNL     1      20.463  38.578 117.085  1.00  0.00     0.172 HD
HETATM    6  C3  UNL     1      19.449  39.805 115.629  1.00  0.00     0.328 A 
HETATM    7  O1  UNL     1      18.956  40.783 116.285  1.00  0.00    -0.247 OA
HETATM    8  N7  UNL     1      19.312  39.632 114.223  1.00  0.00    -0.272 N 
ATOM      9  H7  UNL     1      18.813  40.260 113.592  1.00  0.00     0.174 HD
HETATM   10  C4  UNL     1      19.994  38.425 113.842  1.00  0.00     0.295 A 
HETATM   11  O2  UNL     1      20.071  37.976 112.679  1.00  0.00    -0.264 OA
ENDROOT
BRANCH   1  12
HETATM   12  N3  UNL     1      21.575  35.942 114.070  1.00  0.00    -0.170 N 
HETATM   13  C1  UNL     1      20.751  34.825 113.764  1.00  0.00     0.223 C 
HETATM   14  N1  UNL     1      20.769  34.257 112.587  1.00  0.00    -0.371 N 
HETATM   15  N2  UNL     1      19.868  34.273 114.735  1.00  0.00    -0.060 NA
ATOM     16  H12 UNL     1      20.178  33.455 112.367  1.00  0.00     0.158 HD
ATOM     17  H11 UNL     1      21.402  34.653 111.891  1.00  0.00     0.158 HD
BRANCH  12  18
HETATM   18  N4  UNL     1      22.685  36.192 113.260  1.00  0.00    -0.321 N 
ATOM     19  H42 UNL     1      23.381  35.473 113.062  1.00  0.00     0.179 HD
ATOM     20  H41 UNL     1      22.795  37.124 112.859  1.00  0.00     0.179 HD
ENDBRANCH  12  18
ENDBRANCH   1  12
TORSDOF 2
ENDMDL
MODEL 5
REMARK VINA RESULT: -6.840015281      2.902      4.743
REMARK  2 active torsions:
REMARK  status: ('A' for Active; 'I' for Inactive)
REMARK       I    between atoms: C1_4  and  N3_6 
REMARK    1  A    between atoms: N3_6  and  N4_7 
REMARK    2  A    between atoms: N3_6  and  N5_10 
ROOT
HETATM    1  N5  UNL     1      20.518  36.437 113.255  1.00  0.00    -0.257 N 
ATOM      2  H5  UNL     1      20.039  36.482 112.356  1.00  0.00     0.191 HD
HETATM    3  C2  UNL     1      20.225  37.334 114.155  1.00  0.00     0.195 A 
HETATM    4  N6  UNL     1      19.289  38.397 114.027  1.00  0.00    -0.289 N 
ATOM      5  H6  UNL     1      18.732  38.578 113.192  1.00  0.00     0.172 HD
HETATM    6  C3  UNL     1      19.236  39.169 115.206  1.00  0.00     0.328 A 
HETATM    7  O1  UNL     1      18.517  40.194 115.455  1.00  0.00    -0.247 OA
HETATM    8  N7  UNL     1      20.159  38.594 116.123  1.00  0.00    -0.272 N 
ATOM      9  H7  UNL     1      20.347  38.931 117.068  1.00  0.00     0.174 HD
HETATM   10  C4  UNL     1      20.782  37.460 115.496  1.00  0.00     0.295 A 
HETATM   11  O2  UNL     1      21.643  36.726 116.025  1.00  0.00    -0.264 OA
ENDROOT
BRANCH   1  12
HETATM   12  N3  UNL     1      21.438  35.434 113.451  1.00  0.00    -0.170 N 
HETATM   13  C1  UNL     1      22.741  35.556 112.897  1.00  0.00     0.223 C 
HETATM   14  N1  UNL     1      23.746  34.844 113.336  1.00  0.00    -0.371 N 
HETATM   15  N2  UNL     1      23.008  36.464 111.834  1.00  0.00    -0.060 NA
ATOM     16  H12 UNL     1      24.682  34.932 112.939  1.00  0.00     0.158 HD
ATOM     17  H11 UNL     1      23.555  34.193 114.098  1.00  0.00     0.158 HD
BRANCH  12  18
HETATM   18  N4  UNL     1      21.132  34.285 114.184  1.00  0.00    -0.321 N 
ATOM     19  H42 UNL     1      21.801  33.862 114.827  1.00  0.00     0.179 HD
ATOM     20  H41 UNL     1      20.210  33.865 114.067  1.00  0.00     0.179 HD
ENDBRANCH  12  18
ENDBRANCH   1  12
TORSDOF 2
ENDMDL
