MODEL 1
REMARK VINA RESULT: -7.188016928      0.000      0.000
REMARK  0 active torsions:
REMARK  status: ('A' for Active; 'I' for Inactive)
REMARK       I    between atoms: C1_4  and  N3_6 
REMARK       I    between atoms: N3_6  and  C2_8 
ROOT
HETATM    1  N1  UNL     1      20.945  34.185 112.040  1.00  0.00    -0.373 N 
ATOM      2  H11 UNL     1      19.939  34.036 111.964  1.00  0.00     0.158 HD
ATOM      3  H12 UNL     1      21.569  33.384 112.136  1.00  0.00     0.158 HD
HETATM    4  C1  UNL     1      21.467  35.356 112.019  1.00  0.00     0.200 C 
HETATM    5  N2  UNL     1      22.888  35.567 112.127  1.00  0.00    -0.063 NA
HETATM    6  N3  UNL     1      20.597  36.473 111.884  1.00  0.00    -0.162 N 
ATOM      7  H3  UNL     1      20.228  36.742 110.973  1.00  0.00     0.187 HD
HETATM    8  C2  UNL     1      20.284  37.140 112.951  1.00  0.00     0.702 C 
HETATM    9  N4  UNL     1      19.463  38.192 112.816  1.00  0.00    -0.129 N 
ATOM     10  H4  UNL     1      19.233  38.405 111.845  1.00  0.00     0.205 HD
HETATM   11  N5  UNL     1      18.891  39.009 113.685  1.00  0.00    -0.249 N 
ATOM     12  H5  UNL     1      18.151  39.612 113.330  1.00  0.00     0.191 HD
HETATM   13  C3  UNL     1      19.190  39.122 114.992  1.00  0.00     0.316 C 
HETATM   14  O1  UNL     1      18.513  39.977 115.619  1.00  0.00    -0.262 OA
HETATM   15  C4  UNL     1      20.128  38.436 115.740  1.00  0.00     0.308 C 
HETATM   16  O2  UNL     1      20.318  38.773 116.923  1.00  0.00    -0.276 OA
HETATM   17  C5  UNL     1      20.901  37.385 115.303  1.00  0.00     0.315 C 
HETATM   18  O3  UNL     1      21.789  36.987 116.074  1.00  0.00    -0.263 OA
HETATM   19  N6  UNL     1      20.812  36.719 114.115  1.00  0.00    -0.151 N 
ATOM     20  H6  UNL     1      21.198  35.774 114.108  1.00  0.00     0.188 HD
ENDROOT
TORSDOF 0
ENDMDL
MODEL 2
REMARK VINA RESULT: -7.049829891      1.457      2.646
REMARK  0 active torsions:
REMARK  status: ('A' for Active; 'I' for Inactive)
REMARK       I    between atoms: C1_4  and  N3_6 
REMARK       I    between atoms: N3_6  and  C2_8 
ROOT
HETATM    1  N1  UNL     1      22.519  35.776 110.703  1.00  0.00    -0.373 N 
ATOM      2  H11 UNL     1      23.408  36.195 110.974  1.00  0.00     0.158 HD
ATOM      3  H12 UNL     1      22.241  35.769 109.722  1.00  0.00     0.158 HD
HETATM    4  C1  UNL     1      21.722  35.250 111.559  1.00  0.00     0.200 C 
HETATM    5  N2  UNL     1      20.465  34.658 111.176  1.00  0.00    -0.063 NA
HETATM    6  N3  UNL     1      22.109  35.260 112.927  1.00  0.00    -0.162 N 
ATOM      7  H3  UNL     1      22.771  34.575 113.289  1.00  0.00     0.187 HD
HETATM    8  C2  UNL     1      21.597  36.164 113.703  1.00  0.00     0.702 C 
HETATM    9  N4  UNL     1      21.968  36.167 114.992  1.00  0.00    -0.129 N 
ATOM     10  H4  UNL     1      22.568  35.382 115.244  1.00  0.00     0.205 HD
HETATM   11  N5  UNL     1      21.712  36.981 116.003  1.00  0.00    -0.249 N 
ATOM     12  H5  UNL     1      22.278  36.863 116.843  1.00  0.00     0.191 HD
HETATM   13  C3  UNL     1      20.778  37.949 116.034  1.00  0.00     0.316 C 
HETATM   14  O1  UNL     1      20.714  38.592 117.114  1.00  0.00    -0.262 OA
HETATM   15  C4  UNL     1      19.884  38.336 115.054  1.00  0.00     0.308 C 
HETATM   16  O2  UNL     1      19.023  39.194 115.329  1.00  0.00    -0.276 OA
HETATM   17  C5  UNL     1      19.839  37.860 113.764  1.00  0.00     0.315 C 
HETATM   18  O3  UNL     1      18.877  38.223 113.068  1.00  0.00    -0.263 OA
HETATM   19  N6  UNL     1      20.732  37.031 113.147  1.00  0.00    -0.151 N 
ATOM     20  H6  UNL     1      20.743  37.075 112.128  1.00  0.00     0.188 HD
ENDROOT
TORSDOF 0
ENDMDL
MODEL 3
REMARK VINA RESULT: -7.006160370      2.914      4.911
REMARK  0 active torsions:
REMARK  status: ('A' for Active; 'I' for Inactive)
REMARK       I    between atoms: C1_4  and  N3_6 
REMARK       I    between atoms: N3_6  and  C2_8 
ROOT
HETATM    1  N1  UNL     1      19.087  40.299 115.491  1.00  0.00    -0.373 N 
ATOM      2  H11 UNL     1      18.250  39.884 115.900  1.00  0.00     0.158 HD
ATOM      3  H12 UNL     1      19.035  41.220 115.057  1.00  0.00     0.158 HD
HETATM    4  C1  UNL     1      20.222  39.702 115.501  1.00  0.00     0.200 C 
HETATM    5  N2  UNL     1      21.404  40.289 114.923  1.00  0.00    -0.063 NA
HETATM    6  N3  UNL     1      20.295  38.418 116.107  1.00  0.00    -0.162 N 
ATOM      7  H3  UNL     1      20.360  38.320 117.119  1.00  0.00     0.187 HD
HETATM    8  C2  UNL     1      20.277  37.374 115.337  1.00  0.00     0.702 C 
HETATM    9  N4  UNL     1      20.347  36.166 115.917  1.00  0.00    -0.129 N 
ATOM     10  H4  UNL     1      20.492  36.207 116.926  1.00  0.00     0.205 HD
HETATM   11  N5  UNL     1      20.266  34.933 115.445  1.00  0.00    -0.249 N 
ATOM     12  H5  UNL     1      20.156  34.186 116.131  1.00  0.00     0.191 HD
HETATM   13  C3  UNL     1      20.314  34.566 114.152  1.00  0.00     0.316 C 
HETATM   14  O1  UNL     1      20.224  33.328 113.947  1.00  0.00    -0.262 OA
HETATM   15  C4  UNL     1      20.447  35.351 113.022  1.00  0.00     0.308 C 
HETATM   16  O2  UNL     1      20.577  34.796 111.915  1.00  0.00    -0.276 OA
HETATM   17  C5  UNL     1      20.450  36.727 112.987  1.00  0.00     0.315 C 
HETATM   18  O3  UNL     1      20.722  37.256 111.898  1.00  0.00    -0.263 OA
HETATM   19  N6  UNL     1      20.189  37.590 114.013  1.00  0.00    -0.151 N 
ATOM     20  H6  UNL     1      19.886  38.524 113.737  1.00  0.00     0.188 HD
ENDROOT
TORSDOF 0
ENDMDL
MODEL 4
REMARK VINA RESULT: -6.606424278      1.246      1.401
REMARK  0 active torsions:
REMARK  status: ('A' for Active; 'I' for Inactive)
REMARK       I    between atoms: C1_4  and  N3_6 
REMARK       I    between atoms: N3_6  and  C2_8 
ROOT
HETATM    1  N1  UNL     1      20.989  34.068 114.199  1.00  0.00    -0.373 N 
ATOM      2  H11 UNL     1      20.023  33.781 114.039  1.00  0.00     0.158 HD
ATOM      3  H12 UNL     1      21.617  33.460 114.724  1.00  0.00     0.158 HD
HETATM    4  C1  UNL     1      21.454  35.180 113.762  1.00  0.00     0.200 C 
HETATM    5  N2  UNL     1      22.817  35.586 113.989  1.00  0.00    -0.063 NA
HETATM    6  N3  UNL     1      20.578  36.028 113.030  1.00  0.00    -0.162 N 
ATOM      7  H3  UNL     1      20.379  35.852 112.046  1.00  0.00     0.187 HD
HETATM    8  C2  UNL     1      20.038  37.033 113.648  1.00  0.00     0.702 C 
HETATM    9  N4  UNL     1      19.213  37.828 112.951  1.00  0.00    -0.129 N 
ATOM     10  H4  UNL     1      19.164  37.594 111.959  1.00  0.00     0.205 HD
HETATM   11  N5  UNL     1      18.450  38.856 113.288  1.00  0.00    -0.249 N 
ATOM     12  H5  UNL     1      17.766  39.165 112.598  1.00  0.00     0.191 HD
HETATM   13  C3  UNL     1      18.487  39.532 114.450  1.00  0.00     0.316 C 
HETATM   14  O1  UNL     1      17.667  40.481 114.539  1.00  0.00    -0.262 OA
HETATM   15  C4  UNL     1      19.294  39.333 115.555  1.00  0.00     0.308 C 
HETATM   16  O2  UNL     1      19.239  40.147 116.495  1.00  0.00    -0.276 OA
HETATM   17  C5  UNL     1      20.182  38.297 115.734  1.00  0.00     0.315 C 
HETATM   18  O3  UNL     1      20.921  38.362 116.729  1.00  0.00    -0.263 OA
HETATM   19  N6  UNL     1      20.351  37.195 114.946  1.00  0.00    -0.151 N 
ATOM     20  H6  UNL     1      20.772  36.386 115.403  1.00  0.00     0.188 HD
ENDROOT
TORSDOF 0
ENDMDL
MODEL 5
REMARK VINA RESULT: -6.338199661      2.132      4.535
REMARK  0 active torsions:
REMARK  status: ('A' for Active; 'I' for Inactive)
REMARK       I    between atoms: C1_4  and  N3_6 
REMARK       I    between atoms: N3_6  and  C2_8 
ROOT
HETATM    1  N1  UNL     1      20.650  41.193 115.305  1.00  0.00    -0.373 N 
ATOM      2  H11 UNL     1      21.097  41.511 114.445  1.00  0.00     0.158 HD
ATOM      3  H12 UNL     1      20.863  41.656 116.188  1.00  0.00     0.158 HD
HETATM    4  C1  UNL     1      19.817  40.218 115.322  1.00  0.00     0.200 C 
HETATM    5  N2  UNL     1      19.185  39.768 116.536  1.00  0.00    -0.063 NA
HETATM    6  N3  UNL     1      19.520  39.572 114.090  1.00  0.00    -0.162 N 
ATOM      7  H3  UNL     1      18.858  39.980 113.431  1.00  0.00     0.187 HD
HETATM    8  C2  UNL     1      20.114  38.449 113.828  1.00  0.00     0.702 C 
HETATM    9  N4  UNL     1      19.828  37.846 112.664  1.00  0.00    -0.129 N 
ATOM     10  H4  UNL     1      19.091  38.312 112.135  1.00  0.00     0.205 HD
HETATM   11  N5  UNL     1      20.307  36.768 112.064  1.00  0.00    -0.249 N 
ATOM     12  H5  UNL     1      20.050  36.634 111.086  1.00  0.00     0.191 HD
HETATM   13  C3  UNL     1      21.101  35.832 112.615  1.00  0.00     0.316 C 
HETATM   14  O1  UNL     1      21.424  34.890 111.846  1.00  0.00    -0.262 OA
HETATM   15  C4  UNL     1      21.609  35.759 113.898  1.00  0.00     0.308 C 
HETATM   16  O2  UNL     1      22.243  34.742 114.237  1.00  0.00    -0.276 OA
HETATM   17  C5  UNL     1      21.486  36.720 114.875  1.00  0.00     0.315 C 
HETATM   18  O3  UNL     1      21.887  36.417 116.010  1.00  0.00    -0.263 OA
HETATM   19  N6  UNL     1      20.973  37.979 114.749  1.00  0.00    -0.151 N 
ATOM     20  H6  UNL     1      21.283  38.654 115.449  1.00  0.00     0.188 HD
ENDROOT
TORSDOF 0
ENDMDL
