MODEL 1
REMARK VINA RESULT: -9.950083279      0.000      0.000
REMARK  11 active torsions:
REMARK  status: ('A' for Active; 'I' for Inactive)
REMARK    1  A    between atoms: C2_2  and  C3_3 
REMARK    2  A    between atoms: C3_3  and  C4_4 
REMARK    3  A    between atoms: C3_3  and  C23_29 
REMARK    4  A    between atoms: C3_3  and  N7_46 
REMARK    5  A    between atoms: C4_4  and  N1_5 
REMARK       I    between atoms: N1_5  and  C5_7 
REMARK    6  A    between atoms: C5_7  and  C6_9 
REMARK    7  A    between atoms: C10_13  and  C11_14 
REMARK    8  A    between atoms: C11_14  and  C12_15 
REMARK    9  A    between atoms: C15_19  and  N3_20 
REMARK   10  A    between atoms: C23_29  and  C24_30 
REMARK       I    between atoms: C24_30  and  N4_32 
REMARK       I    between atoms: N5_35  and  C27_36 
REMARK       I    between atoms: C27_36  and  N6_38 
REMARK   11  A    between atoms: N6_38  and  C28_40 
REMARK       I    between atoms: N7_46  and  C33_48 
ROOT
HETATM    1  C3  UNL     1       8.285 -18.156 -19.604  1.00  0.00     0.056 C 
ENDROOT
BRANCH   1   2
HETATM    2  C2  UNL     1       8.595 -18.473 -21.038  1.00  0.00     0.028 C 
HETATM    3  C1  UNL     1      10.012 -18.502 -21.469  1.00  0.00     0.007 C 
ENDBRANCH   1   2
BRANCH   1   4
HETATM    4  C4  UNL     1       8.033 -16.639 -19.529  1.00  0.00     0.154 C 
BRANCH   4   5
HETATM    5  N1  UNL     1       8.102 -16.196 -18.152  1.00  0.00    -0.358 N 
HETATM    6  C5  UNL     1       6.904 -15.826 -17.442  1.00  0.00     0.222 C 
HETATM    7  O1  UNL     1       5.800 -15.877 -18.018  1.00  0.00    -0.273 OA
ATOM      8  H1  UNL     1       9.005 -16.144 -17.681  1.00  0.00     0.162 HD
BRANCH   6   9
HETATM    9  C6  UNL     1       7.042 -15.401 -16.036  1.00  0.00     0.082 C 
HETATM   10  C7  UNL     1       6.046 -14.267 -15.840  1.00  0.00     0.014 C 
HETATM   11  C8  UNL     1       5.954 -14.029 -14.369  1.00  0.00     0.005 C 
HETATM   12  C9  UNL     1       7.282 -13.795 -13.677  1.00  0.00     0.034 C 
HETATM   13  C10 UNL     1       8.444 -14.532 -14.219  1.00  0.00    -0.078 C 
HETATM   14  C22 UNL     1       8.389 -14.906 -15.676  1.00  0.00     0.048 C 
BRANCH  13  15
HETATM   15  C11 UNL     1       9.060 -15.578 -13.368  1.00  0.00     0.020 C 
BRANCH  15  16
HETATM   16  C12 UNL     1       9.367 -16.926 -13.869  1.00  0.00     0.090 C 
HETATM   17  N2  UNL     1      10.552 -17.591 -13.802  1.00  0.00    -0.370 N 
HETATM   18  C13 UNL     1      11.670 -17.350 -14.611  1.00  0.00     0.065 C 
HETATM   19  C21 UNL     1      10.821 -18.561 -12.802  1.00  0.00     0.129 C 
HETATM   20  C14 UNL     1      12.004 -18.634 -15.360  1.00  0.00     0.070 C 
HETATM   21  C15 UNL     1      12.296 -19.724 -14.376  1.00  0.00     0.093 C 
HETATM   22  C20 UNL     1      12.213 -19.180 -12.978  1.00  0.00     0.045 C 
BRANCH  21  23
HETATM   23  N3  UNL     1      13.611 -20.287 -14.634  1.00  0.00    -0.347 N 
HETATM   24  C16 UNL     1      14.687 -19.541 -15.265  1.00  0.00     0.127 C 
HETATM   25  C17 UNL     1      15.696 -20.557 -15.710  1.00  0.00     0.029 C 
HETATM   26  C18 UNL     1      15.151 -21.899 -15.345  1.00  0.00     0.104 C 
HETATM   27  C19 UNL     1      14.091 -21.589 -14.358  1.00  0.00     0.220 C 
HETATM   28  O2  UNL     1      13.688 -22.334 -13.447  1.00  0.00    -0.273 OA
ENDBRANCH  21  23
ENDBRANCH  15  16
ENDBRANCH  13  15
ENDBRANCH   6   9
ENDBRANCH   4   5
ENDBRANCH   1   4
BRANCH   1  29
HETATM   29  C23 UNL     1       9.365 -18.424 -18.629  1.00  0.00     0.136 C 
BRANCH  29  30
HETATM   30  C24 UNL     1       9.518 -19.727 -18.020  1.00  0.00     0.229 C 
HETATM   31  O3  UNL     1       8.569 -20.258 -17.388  1.00  0.00    -0.273 OA
HETATM   32  N4  UNL     1      10.708 -20.509 -18.071  1.00  0.00    -0.285 N 
HETATM   33  C25 UNL     1      10.751 -21.799 -17.425  1.00  0.00     0.155 C 
HETATM   34  C32 UNL     1      11.878 -20.064 -18.746  1.00  0.00     0.244 C 
HETATM   35  C26 UNL     1      11.178 -22.810 -18.462  1.00  0.00     0.148 C 
HETATM   36  N5  UNL     1      12.497 -22.396 -18.957  1.00  0.00    -0.324 N 
HETATM   37  C27 UNL     1      13.566 -23.327 -18.867  1.00  0.00     0.319 C 
HETATM   38  C31 UNL     1      12.676 -21.088 -19.510  1.00  0.00     0.231 C 
HETATM   39  O4  UNL     1      13.334 -24.475 -18.345  1.00  0.00    -0.247 OA
HETATM   40  N6  UNL     1      14.869 -23.055 -19.322  1.00  0.00    -0.339 N 
ATOM     41  H6  UNL     1      15.080 -22.149 -19.743  1.00  0.00     0.164 HD
HETATM   42  O5  UNL     1      12.214 -18.854 -18.692  1.00  0.00    -0.271 OA
BRANCH  40  43
HETATM   43  C28 UNL     1      15.921 -24.059 -19.196  1.00  0.00     0.078 C 
HETATM   44  C29 UNL     1      16.989 -23.551 -18.233  1.00  0.00     0.032 C 
HETATM   45  C30 UNL     1      16.519 -24.334 -20.557  1.00  0.00     0.032 C 
ENDBRANCH  40  43
ENDBRANCH  29  30
ENDBRANCH   1  29
BRANCH   1  46
HETATM   46  N7  UNL     1       7.004 -18.737 -19.213  1.00  0.00    -0.350 N 
HETATM   47  C33 UNL     1       5.768 -18.524 -19.813  1.00  0.00     0.214 C 
HETATM   48  C34 UNL     1       4.570 -19.204 -19.271  1.00  0.00     0.117 C 
HETATM   49  O6  UNL     1       5.624 -17.781 -20.793  1.00  0.00    -0.274 OA
ATOM     50  H7  UNL     1       7.017 -19.369 -18.412  1.00  0.00     0.163 HD
ENDBRANCH   1  46
TORSDOF 11
ENDMDL
MODEL 2
REMARK VINA RESULT: -9.532323148      2.227      6.538
REMARK  11 active torsions:
REMARK  status: ('A' for Active; 'I' for Inactive)
REMARK    1  A    between atoms: C2_2  and  C3_3 
REMARK    2  A    between atoms: C3_3  and  C4_4 
REMARK    3  A    between atoms: C3_3  and  C23_29 
REMARK    4  A    between atoms: C3_3  and  N7_46 
REMARK    5  A    between atoms: C4_4  and  N1_5 
REMARK       I    between atoms: N1_5  and  C5_7 
REMARK    6  A    between atoms: C5_7  and  C6_9 
REMARK    7  A    between atoms: C10_13  and  C11_14 
REMARK    8  A    between atoms: C11_14  and  C12_15 
REMARK    9  A    between atoms: C15_19  and  N3_20 
REMARK   10  A    between atoms: C23_29  and  C24_30 
REMARK       I    between atoms: C24_30  and  N4_32 
REMARK       I    between atoms: N5_35  and  C27_36 
REMARK       I    between atoms: C27_36  and  N6_38 
REMARK   11  A    between atoms: N6_38  and  C28_40 
REMARK       I    between atoms: N7_46  and  C33_48 
ROOT
HETATM    1  C3  UNL     1       4.844 -15.561 -16.880  1.00  0.00     0.056 C 
ENDROOT
BRANCH   1   2
HETATM    2  C2  UNL     1       4.392 -16.355 -15.689  1.00  0.00     0.028 C 
HETATM    3  C1  UNL     1       3.191 -17.212 -15.822  1.00  0.00     0.007 C 
ENDBRANCH   1   2
BRANCH   1   4
HETATM    4  C4  UNL     1       4.898 -16.536 -18.070  1.00  0.00     0.154 C 
BRANCH   4   5
HETATM    5  N1  UNL     1       6.182 -17.206 -18.101  1.00  0.00    -0.358 N 
HETATM    6  C5  UNL     1       6.705 -17.726 -19.338  1.00  0.00     0.222 C 
HETATM    7  O1  UNL     1       6.045 -17.611 -20.389  1.00  0.00    -0.273 OA
ATOM      8  H1  UNL     1       6.720 -17.310 -17.240  1.00  0.00     0.162 HD
BRANCH   6   9
HETATM    9  C6  UNL     1       8.027 -18.381 -19.303  1.00  0.00     0.082 C 
HETATM   10  C7  UNL     1       8.581 -18.284 -20.717  1.00  0.00     0.014 C 
HETATM   11  C8  UNL     1      10.023 -18.662 -20.638  1.00  0.00     0.005 C 
HETATM   12  C9  UNL     1      10.295 -19.996 -19.971  1.00  0.00     0.034 C 
HETATM   13  C10 UNL     1       9.385 -20.378 -18.869  1.00  0.00    -0.078 C 
HETATM   14  C22 UNL     1       7.993 -19.807 -18.913  1.00  0.00     0.048 C 
BRANCH  13  15
HETATM   15  C11 UNL     1       9.947 -20.450 -17.499  1.00  0.00     0.020 C 
BRANCH  15  16
HETATM   16  C12 UNL     1      11.040 -21.367 -17.141  1.00  0.00     0.090 C 
HETATM   17  N2  UNL     1      12.137 -21.687 -17.879  1.00  0.00    -0.370 N 
HETATM   18  C13 UNL     1      12.155 -22.556 -18.978  1.00  0.00     0.065 C 
HETATM   19  C21 UNL     1      13.397 -21.072 -17.668  1.00  0.00     0.129 C 
HETATM   20  C14 UNL     1      13.123 -23.693 -18.672  1.00  0.00     0.070 C 
HETATM   21  C15 UNL     1      14.489 -23.132 -18.426  1.00  0.00     0.093 C 
HETATM   22  C20 UNL     1      14.466 -21.642 -18.611  1.00  0.00     0.045 C 
BRANCH  21  23
HETATM   23  N3  UNL     1      15.449 -23.750 -19.326  1.00  0.00    -0.347 N 
HETATM   24  C16 UNL     1      15.112 -24.188 -20.670  1.00  0.00     0.127 C 
HETATM   25  C17 UNL     1      16.217 -25.108 -21.099  1.00  0.00     0.029 C 
HETATM   26  C18 UNL     1      17.171 -25.205 -19.954  1.00  0.00     0.104 C 
HETATM   27  C19 UNL     1      16.815 -24.046 -19.102  1.00  0.00     0.220 C 
HETATM   28  O2  UNL     1      17.573 -23.436 -18.327  1.00  0.00    -0.273 OA
ENDBRANCH  21  23
ENDBRANCH  15  16
ENDBRANCH  13  15
ENDBRANCH   6   9
ENDBRANCH   4   5
ENDBRANCH   1   4
BRANCH   1  29
HETATM   29  C23 UNL     1       6.198 -14.970 -16.794  1.00  0.00     0.136 C 
BRANCH  29  30
HETATM   30  C24 UNL     1       6.906 -14.899 -15.535  1.00  0.00     0.229 C 
HETATM   31  O3  UNL     1       6.467 -14.198 -14.588  1.00  0.00    -0.273 OA
HETATM   32  N4  UNL     1       8.120 -15.588 -15.250  1.00  0.00    -0.285 N 
HETATM   33  C25 UNL     1       8.744 -15.444 -13.956  1.00  0.00     0.155 C 
HETATM   34  C32 UNL     1       8.756 -16.428 -16.204  1.00  0.00     0.244 C 
HETATM   35  C26 UNL     1       8.939 -16.831 -13.391  1.00  0.00     0.148 C 
HETATM   36  N5  UNL     1       9.787 -17.570 -14.333  1.00  0.00    -0.324 N 
HETATM   37  C27 UNL     1      10.991 -18.141 -13.841  1.00  0.00     0.319 C 
HETATM   38  C31 UNL     1       9.392 -17.699 -15.704  1.00  0.00     0.231 C 
HETATM   39  O4  UNL     1      11.287 -17.971 -12.606  1.00  0.00    -0.247 OA
HETATM   40  N6  UNL     1      11.877 -18.886 -14.642  1.00  0.00    -0.339 N 
ATOM     41  H6  UNL     1      11.664 -19.037 -15.628  1.00  0.00     0.164 HD
HETATM   42  O5  UNL     1       8.774 -16.101 -17.418  1.00  0.00    -0.271 OA
BRANCH  40  43
HETATM   43  C28 UNL     1      13.099 -19.443 -14.070  1.00  0.00     0.078 C 
HETATM   44  C29 UNL     1      14.248 -19.254 -15.055  1.00  0.00     0.032 C 
HETATM   45  C30 UNL     1      12.890 -20.910 -13.770  1.00  0.00     0.032 C 
ENDBRANCH  40  43
ENDBRANCH  29  30
ENDBRANCH   1  29
BRANCH   1  46
HETATM   46  N7  UNL     1       3.822 -14.594 -17.273  1.00  0.00    -0.350 N 
HETATM   47  C33 UNL     1       3.188 -13.665 -16.456  1.00  0.00     0.214 C 
HETATM   48  C34 UNL     1       2.168 -12.764 -17.036  1.00  0.00     0.117 C 
HETATM   49  O6  UNL     1       3.442 -13.559 -15.248  1.00  0.00    -0.274 OA
ATOM     50  H7  UNL     1       3.542 -14.602 -18.255  1.00  0.00     0.163 HD
ENDBRANCH   1  46
TORSDOF 11
ENDMDL
MODEL 3
REMARK VINA RESULT: -9.532003974      2.997      8.567
REMARK  11 active torsions:
REMARK  status: ('A' for Active; 'I' for Inactive)
REMARK    1  A    between atoms: C2_2  and  C3_3 
REMARK    2  A    between atoms: C3_3  and  C4_4 
REMARK    3  A    between atoms: C3_3  and  C23_29 
REMARK    4  A    between atoms: C3_3  and  N7_46 
REMARK    5  A    between atoms: C4_4  and  N1_5 
REMARK       I    between atoms: N1_5  and  C5_7 
REMARK    6  A    between atoms: C5_7  and  C6_9 
REMARK    7  A    between atoms: C10_13  and  C11_14 
REMARK    8  A    between atoms: C11_14  and  C12_15 
REMARK    9  A    between atoms: C15_19  and  N3_20 
REMARK   10  A    between atoms: C23_29  and  C24_30 
REMARK       I    between atoms: C24_30  and  N4_32 
REMARK       I    between atoms: N5_35  and  C27_36 
REMARK       I    between atoms: C27_36  and  N6_38 
REMARK   11  A    between atoms: N6_38  and  C28_40 
REMARK       I    between atoms: N7_46  and  C33_48 
ROOT
HETATM    1  C3  UNL     1       8.575 -17.647 -18.651  1.00  0.00     0.056 C 
ENDROOT
BRANCH   1   2
HETATM    2  C2  UNL     1       8.616 -18.453 -19.916  1.00  0.00     0.028 C 
HETATM    3  C1  UNL     1       7.865 -17.961 -21.095  1.00  0.00     0.007 C 
ENDBRANCH   1   2
BRANCH   1   4
HETATM    4  C4  UNL     1       8.042 -18.578 -17.548  1.00  0.00     0.154 C 
BRANCH   4   5
HETATM    5  N1  UNL     1       9.060 -18.781 -16.537  1.00  0.00    -0.358 N 
HETATM    6  C5  UNL     1       8.795 -18.462 -15.158  1.00  0.00     0.222 C 
HETATM    7  O1  UNL     1       7.686 -17.998 -14.829  1.00  0.00    -0.273 OA
ATOM      8  H1  UNL     1       9.973 -19.151 -16.804  1.00  0.00     0.162 HD
BRANCH   6   9
HETATM    9  C6  UNL     1       9.868 -18.710 -14.177  1.00  0.00     0.082 C 
HETATM   10  C7  UNL     1       9.862 -17.514 -13.235  1.00  0.00     0.014 C 
HETATM   11  C8  UNL     1      10.723 -17.881 -12.072  1.00  0.00     0.005 C 
HETATM   12  C9  UNL     1      12.116 -18.356 -12.436  1.00  0.00     0.034 C 
HETATM   13  C10 UNL     1      12.240 -19.119 -13.698  1.00  0.00    -0.078 C 
HETATM   14  C22 UNL     1      11.220 -18.831 -14.766  1.00  0.00     0.048 C 
BRANCH  13  15
HETATM   15  C11 UNL     1      12.609 -20.551 -13.609  1.00  0.00     0.020 C 
BRANCH  15  16
HETATM   16  C12 UNL     1      13.688 -21.142 -14.415  1.00  0.00     0.090 C 
HETATM   17  N2  UNL     1      13.727 -21.306 -15.765  1.00  0.00    -0.370 N 
HETATM   18  C13 UNL     1      13.040 -22.291 -16.488  1.00  0.00     0.065 C 
HETATM   19  C21 UNL     1      14.408 -20.400 -16.618  1.00  0.00     0.129 C 
HETATM   20  C14 UNL     1      14.064 -23.128 -17.245  1.00  0.00     0.070 C 
HETATM   21  C15 UNL     1      14.842 -22.246 -18.172  1.00  0.00     0.093 C 
HETATM   22  C20 UNL     1      14.324 -20.839 -18.086  1.00  0.00     0.045 C 
BRANCH  21  23
HETATM   23  N3  UNL     1      14.747 -22.749 -19.532  1.00  0.00    -0.347 N 
HETATM   24  C16 UNL     1      13.738 -22.303 -20.478  1.00  0.00     0.127 C 
HETATM   25  C17 UNL     1      13.721 -23.319 -21.582  1.00  0.00     0.029 C 
HETATM   26  C18 UNL     1      14.723 -24.367 -21.223  1.00  0.00     0.104 C 
HETATM   27  C19 UNL     1      15.550 -23.718 -20.180  1.00  0.00     0.220 C 
HETATM   28  O2  UNL     1      16.739 -23.972 -19.914  1.00  0.00    -0.273 OA
ENDBRANCH  21  23
ENDBRANCH  15  16
ENDBRANCH  13  15
ENDBRANCH   6   9
ENDBRANCH   4   5
ENDBRANCH   1   4
BRANCH   1  29
HETATM   29  C23 UNL     1       7.668 -16.478 -18.650  1.00  0.00     0.136 C 
BRANCH  29  30
HETATM   30  C24 UNL     1       7.229 -15.870 -17.413  1.00  0.00     0.229 C 
HETATM   31  O3  UNL     1       8.044 -15.269 -16.667  1.00  0.00    -0.273 OA
HETATM   32  N4  UNL     1       5.888 -15.890 -16.934  1.00  0.00    -0.285 N 
HETATM   33  C25 UNL     1       5.561 -15.252 -15.681  1.00  0.00     0.155 C 
HETATM   34  C32 UNL     1       4.836 -16.523 -17.650  1.00  0.00     0.244 C 
HETATM   35  C26 UNL     1       4.443 -14.273 -15.949  1.00  0.00     0.148 C 
HETATM   36  N5  UNL     1       3.314 -15.040 -16.489  1.00  0.00    -0.324 N 
HETATM   37  C27 UNL     1       2.065 -14.950 -15.819  1.00  0.00     0.319 C 
HETATM   38  C31 UNL     1       3.489 -15.848 -17.659  1.00  0.00     0.231 C 
HETATM   39  O4  UNL     1       1.986 -14.219 -14.769  1.00  0.00    -0.247 OA
HETATM   40  N6  UNL     1       0.906 -15.623 -16.249  1.00  0.00    -0.339 N 
ATOM     41  H6  UNL     1       0.941 -16.210 -17.083  1.00  0.00     0.164 HD
HETATM   42  O5  UNL     1       5.047 -17.608 -18.249  1.00  0.00    -0.271 OA
BRANCH  40  43
HETATM   43  C28 UNL     1      -0.346 -15.487 -15.510  1.00  0.00     0.078 C 
HETATM   44  C29 UNL     1      -0.914 -16.872 -15.222  1.00  0.00     0.032 C 
HETATM   45  C30 UNL     1      -1.323 -14.669 -16.323  1.00  0.00     0.032 C 
ENDBRANCH  40  43
ENDBRANCH  29  30
ENDBRANCH   1  29
BRANCH   1  46
HETATM   46  N7  UNL     1       9.927 -17.322 -18.203  1.00  0.00    -0.350 N 
HETATM   47  C33 UNL     1      11.072 -18.093 -18.366  1.00  0.00     0.214 C 
HETATM   48  C34 UNL     1      12.363 -17.596 -17.838  1.00  0.00     0.117 C 
HETATM   49  O6  UNL     1      11.059 -19.190 -18.939  1.00  0.00    -0.274 OA
ATOM     50  H7  UNL     1      10.043 -16.432 -17.717  1.00  0.00     0.163 HD
ENDBRANCH   1  46
TORSDOF 11
ENDMDL
MODEL 4
REMARK VINA RESULT: -9.191019337      2.759      7.304
REMARK  11 active torsions:
REMARK  status: ('A' for Active; 'I' for Inactive)
REMARK    1  A    between atoms: C2_2  and  C3_3 
REMARK    2  A    between atoms: C3_3  and  C4_4 
REMARK    3  A    between atoms: C3_3  and  C23_29 
REMARK    4  A    between atoms: C3_3  and  N7_46 
REMARK    5  A    between atoms: C4_4  and  N1_5 
REMARK       I    between atoms: N1_5  and  C5_7 
REMARK    6  A    between atoms: C5_7  and  C6_9 
REMARK    7  A    between atoms: C10_13  and  C11_14 
REMARK    8  A    between atoms: C11_14  and  C12_15 
REMARK    9  A    between atoms: C15_19  and  N3_20 
REMARK   10  A    between atoms: C23_29  and  C24_30 
REMARK       I    between atoms: C24_30  and  N4_32 
REMARK       I    between atoms: N5_35  and  C27_36 
REMARK       I    between atoms: C27_36  and  N6_38 
REMARK   11  A    between atoms: N6_38  and  C28_40 
REMARK       I    between atoms: N7_46  and  C33_48 
ROOT
HETATM    1  C3  UNL     1      10.590 -19.671 -18.108  1.00  0.00     0.056 C 
ENDROOT
BRANCH   1   2
HETATM    2  C2  UNL     1      10.521 -18.737 -19.281  1.00  0.00     0.028 C 
HETATM    3  C1  UNL     1       9.575 -19.045 -20.379  1.00  0.00     0.007 C 
ENDBRANCH   1   2
BRANCH   1   4
HETATM    4  C4  UNL     1       9.181 -19.714 -17.490  1.00  0.00     0.154 C 
BRANCH   4   5
HETATM    5  N1  UNL     1       8.754 -18.374 -17.141  1.00  0.00    -0.358 N 
HETATM    6  C5  UNL     1       8.487 -18.027 -15.769  1.00  0.00     0.222 C 
HETATM    7  O1  UNL     1       8.611 -18.885 -14.875  1.00  0.00    -0.273 OA
ATOM      8  H1  UNL     1       8.642 -17.672 -17.873  1.00  0.00     0.162 HD
BRANCH   6   9
HETATM    9  C6  UNL     1       8.074 -16.640 -15.481  1.00  0.00     0.082 C 
HETATM   10  C7  UNL     1       8.894 -16.199 -14.277  1.00  0.00     0.014 C 
HETATM   11  C8  UNL     1       8.717 -14.721 -14.157  1.00  0.00     0.005 C 
HETATM   12  C9  UNL     1       7.275 -14.254 -14.112  1.00  0.00     0.034 C 
HETATM   13  C10 UNL     1       6.305 -15.037 -14.909  1.00  0.00    -0.078 C 
HETATM   14  C22 UNL     1       6.640 -16.484 -15.150  1.00  0.00     0.048 C 
BRANCH  13  15
HETATM   15  C11 UNL     1       5.676 -14.377 -16.077  1.00  0.00     0.020 C 
BRANCH  15  16
HETATM   16  C12 UNL     1       4.391 -14.820 -16.638  1.00  0.00     0.090 C 
HETATM   17  N2  UNL     1       4.008 -16.089 -16.946  1.00  0.00    -0.370 N 
HETATM   18  C13 UNL     1       4.420 -16.815 -18.071  1.00  0.00     0.065 C 
HETATM   19  C21 UNL     1       3.206 -16.870 -16.074  1.00  0.00     0.129 C 
HETATM   20  C14 UNL     1       3.182 -17.192 -18.876  1.00  0.00     0.070 C 
HETATM   21  C15 UNL     1       2.267 -18.019 -18.026  1.00  0.00     0.093 C 
HETATM   22  C20 UNL     1       2.893 -18.245 -16.680  1.00  0.00     0.045 C 
BRANCH  21  23
HETATM   23  N3  UNL     1       1.985 -19.283 -18.684  1.00  0.00    -0.347 N 
HETATM   24  C16 UNL     1       3.007 -20.276 -18.971  1.00  0.00     0.127 C 
HETATM   25  C17 UNL     1       2.411 -21.210 -19.984  1.00  0.00     0.029 C 
HETATM   26  C18 UNL     1       1.039 -20.702 -20.286  1.00  0.00     0.104 C 
HETATM   27  C19 UNL     1       0.750 -19.781 -19.163  1.00  0.00     0.220 C 
HETATM   28  O2  UNL     1      -0.373 -19.491 -18.714  1.00  0.00    -0.273 OA
ENDBRANCH  21  23
ENDBRANCH  15  16
ENDBRANCH  13  15
ENDBRANCH   6   9
ENDBRANCH   4   5
ENDBRANCH   1   4
BRANCH   1  29
HETATM   29  C23 UNL     1      11.491 -19.268 -17.005  1.00  0.00     0.136 C 
BRANCH  29  30
HETATM   30  C24 UNL     1      12.926 -19.412 -17.119  1.00  0.00     0.229 C 
HETATM   31  O3  UNL     1      13.596 -18.627 -17.838  1.00  0.00    -0.273 OA
HETATM   32  N4  UNL     1      13.693 -20.413 -16.458  1.00  0.00    -0.285 N 
HETATM   33  C25 UNL     1      15.123 -20.466 -16.645  1.00  0.00     0.155 C 
HETATM   34  C32 UNL     1      13.099 -21.382 -15.604  1.00  0.00     0.244 C 
HETATM   35  C26 UNL     1      15.761 -20.424 -15.277  1.00  0.00     0.148 C 
HETATM   36  N5  UNL     1      15.260 -21.582 -14.527  1.00  0.00    -0.324 N 
HETATM   37  C27 UNL     1      16.209 -22.490 -13.989  1.00  0.00     0.319 C 
HETATM   38  C31 UNL     1      13.850 -21.769 -14.356  1.00  0.00     0.231 C 
HETATM   39  O4  UNL     1      17.454 -22.266 -14.196  1.00  0.00    -0.247 OA
HETATM   40  N6  UNL     1      15.853 -23.626 -13.238  1.00  0.00    -0.339 N 
ATOM     41  H6  UNL     1      14.870 -23.826 -13.058  1.00  0.00     0.164 HD
HETATM   42  O5  UNL     1      11.985 -21.883 -15.899  1.00  0.00    -0.271 OA
BRANCH  40  43
HETATM   43  C28 UNL     1      16.883 -24.519 -12.715  1.00  0.00     0.078 C 
HETATM   44  C29 UNL     1      16.259 -25.872 -12.390  1.00  0.00     0.032 C 
HETATM   45  C30 UNL     1      17.500 -23.906 -11.478  1.00  0.00     0.032 C 
ENDBRANCH  40  43
ENDBRANCH  29  30
ENDBRANCH   1  29
BRANCH   1  46
HETATM   46  N7  UNL     1      10.812 -21.044 -18.555  1.00  0.00    -0.350 N 
HETATM   47  C33 UNL     1      11.822 -21.499 -19.395  1.00  0.00     0.214 C 
HETATM   48  C34 UNL     1      11.885 -22.937 -19.742  1.00  0.00     0.117 C 
HETATM   49  O6  UNL     1      12.680 -20.745 -19.872  1.00  0.00    -0.274 OA
ATOM     50  H7  UNL     1      10.154 -21.745 -18.213  1.00  0.00     0.163 HD
ENDBRANCH   1  46
TORSDOF 11
ENDMDL
MODEL 5
REMARK VINA RESULT: -9.183455710      2.949      8.048
REMARK  11 active torsions:
REMARK  status: ('A' for Active; 'I' for Inactive)
REMARK    1  A    between atoms: C2_2  and  C3_3 
REMARK    2  A    between atoms: C3_3  and  C4_4 
REMARK    3  A    between atoms: C3_3  and  C23_29 
REMARK    4  A    between atoms: C3_3  and  N7_46 
REMARK    5  A    between atoms: C4_4  and  N1_5 
REMARK       I    between atoms: N1_5  and  C5_7 
REMARK    6  A    between atoms: C5_7  and  C6_9 
REMARK    7  A    between atoms: C10_13  and  C11_14 
REMARK    8  A    between atoms: C11_14  and  C12_15 
REMARK    9  A    between atoms: C15_19  and  N3_20 
REMARK   10  A    between atoms: C23_29  and  C24_30 
REMARK       I    between atoms: C24_30  and  N4_32 
REMARK       I    between atoms: N5_35  and  C27_36 
REMARK       I    between atoms: C27_36  and  N6_38 
REMARK   11  A    between atoms: N6_38  and  C28_40 
REMARK       I    between atoms: N7_46  and  C33_48 
ROOT
HETATM    1  C3  UNL     1       5.682 -15.974 -16.355  1.00  0.00     0.056 C 
ENDROOT
BRANCH   1   2
HETATM    2  C2  UNL     1       6.848 -15.722 -17.267  1.00  0.00     0.028 C 
HETATM    3  C1  UNL     1       7.180 -16.740 -18.291  1.00  0.00     0.007 C 
ENDBRANCH   1   2
BRANCH   1   4
HETATM    4  C4  UNL     1       6.225 -16.747 -15.141  1.00  0.00     0.154 C 
BRANCH   4   5
HETATM    5  N1  UNL     1       7.648 -16.974 -15.296  1.00  0.00    -0.358 N 
HETATM    6  C5  UNL     1       8.275 -18.121 -14.691  1.00  0.00     0.222 C 
HETATM    7  O1  UNL     1       7.595 -18.919 -14.019  1.00  0.00    -0.273 OA
ATOM      8  H1  UNL     1       8.209 -16.317 -15.838  1.00  0.00     0.162 HD
BRANCH   6   9
HETATM    9  C6  UNL     1       9.724 -18.302 -14.905  1.00  0.00     0.082 C 
HETATM   10  C7  UNL     1      10.341 -18.419 -13.518  1.00  0.00     0.014 C 
HETATM   11  C8  UNL     1      11.741 -18.901 -13.713  1.00  0.00     0.005 C 
HETATM   12  C9  UNL     1      12.570 -18.075 -14.677  1.00  0.00     0.034 C 
HETATM   13  C10 UNL     1      11.846 -17.475 -15.819  1.00  0.00    -0.078 C 
HETATM   14  C22 UNL     1      10.383 -17.185 -15.615  1.00  0.00     0.048 C 
BRANCH  13  15
HETATM   15  C11 UNL     1      12.162 -17.973 -17.179  1.00  0.00     0.020 C 
BRANCH  15  16
HETATM   16  C12 UNL     1      12.085 -19.397 -17.537  1.00  0.00     0.090 C 
HETATM   17  N2  UNL     1      13.106 -20.292 -17.621  1.00  0.00    -0.370 N 
HETATM   18  C13 UNL     1      14.034 -20.376 -18.667  1.00  0.00     0.065 C 
HETATM   19  C21 UNL     1      13.409 -21.196 -16.570  1.00  0.00     0.129 C 
HETATM   20  C14 UNL     1      13.939 -21.768 -19.280  1.00  0.00     0.070 C 
HETATM   21  C15 UNL     1      14.237 -22.796 -18.233  1.00  0.00     0.093 C 
HETATM   22  C20 UNL     1      14.581 -22.115 -16.939  1.00  0.00     0.045 C 
BRANCH  21  23
HETATM   23  N3  UNL     1      15.327 -23.651 -18.672  1.00  0.00    -0.347 N 
HETATM   24  C16 UNL     1      16.593 -23.754 -17.965  1.00  0.00     0.127 C 
HETATM   25  C17 UNL     1      17.557 -24.388 -18.924  1.00  0.00     0.029 C 
HETATM   26  C18 UNL     1      16.816 -24.612 -20.201  1.00  0.00     0.104 C 
HETATM   27  C19 UNL     1      15.393 -24.496 -19.805  1.00  0.00     0.220 C 
HETATM   28  O2  UNL     1      14.423 -25.042 -20.361  1.00  0.00    -0.273 OA
ENDBRANCH  21  23
ENDBRANCH  15  16
ENDBRANCH  13  15
ENDBRANCH   6   9
ENDBRANCH   4   5
ENDBRANCH   1   4
BRANCH   1  29
HETATM   29  C23 UNL     1       4.595 -16.816 -16.903  1.00  0.00     0.136 C 
BRANCH  29  30
HETATM   30  C24 UNL     1       3.855 -16.412 -18.079  1.00  0.00     0.229 C 
HETATM   31  O3  UNL     1       3.741 -15.197 -18.382  1.00  0.00    -0.273 OA
HETATM   32  N4  UNL     1       3.209 -17.311 -18.975  1.00  0.00    -0.285 N 
HETATM   33  C25 UNL     1       2.495 -16.798 -20.120  1.00  0.00     0.155 C 
HETATM   34  C32 UNL     1       3.238 -18.720 -18.788  1.00  0.00     0.244 C 
HETATM   35  C26 UNL     1       3.053 -17.481 -21.346  1.00  0.00     0.148 C 
HETATM   36  N5  UNL     1       2.850 -18.924 -21.170  1.00  0.00    -0.324 N 
HETATM   37  C27 UNL     1       2.128 -19.623 -22.174  1.00  0.00     0.319 C 
HETATM   38  C31 UNL     1       3.374 -19.586 -20.014  1.00  0.00     0.231 C 
HETATM   39  O4  UNL     1       1.674 -18.961 -23.173  1.00  0.00    -0.247 OA
HETATM   40  N6  UNL     1       1.883 -21.008 -22.127  1.00  0.00    -0.339 N 
ATOM     41  H6  UNL     1       2.234 -21.559 -21.343  1.00  0.00     0.164 HD
HETATM   42  O5  UNL     1       3.153 -19.203 -17.631  1.00  0.00    -0.271 OA
BRANCH  40  43
HETATM   43  C28 UNL     1       1.131 -21.663 -23.194  1.00  0.00     0.078 C 
HETATM   44  C29 UNL     1      -0.295 -21.921 -22.719  1.00  0.00     0.032 C 
HETATM   45  C30 UNL     1       1.812 -22.960 -23.566  1.00  0.00     0.032 C 
ENDBRANCH  40  43
ENDBRANCH  29  30
ENDBRANCH   1  29
BRANCH   1  46
HETATM   46  N7  UNL     1       5.199 -14.722 -15.778  1.00  0.00    -0.350 N 
HETATM   47  C33 UNL     1       5.964 -13.717 -15.196  1.00  0.00     0.214 C 
HETATM   48  C34 UNL     1       5.293 -12.513 -14.658  1.00  0.00     0.117 C 
HETATM   49  O6  UNL     1       7.197 -13.788 -15.105  1.00  0.00    -0.274 OA
ATOM     50  H7  UNL     1       4.191 -14.568 -15.805  1.00  0.00     0.163 HD
ENDBRANCH   1  46
TORSDOF 11
ENDMDL
