MODEL 1
REMARK VINA RESULT: -7.008653519      0.000      0.000
REMARK  14 active torsions:
REMARK  status: ('A' for Active; 'I' for Inactive)
REMARK    1  A    between atoms: C3_3  and  C4_4 
REMARK    2  A    between atoms: C3_3  and  C28_43 
REMARK    3  A    between atoms: C4_4  and  N1_5 
REMARK    4  A    between atoms: C16_26  and  O4_27 
REMARK    5  A    between atoms: C17_29  and  C18_30 
REMARK    6  A    between atoms: C18_30  and  C19_31 
REMARK    7  A    between atoms: C23_38  and  C24_39 
REMARK    8  A    between atoms: C24_39  and  C25_40 
REMARK    9  A    between atoms: C28_43  and  O6_44 
REMARK   10  A    between atoms: C28_43  and  N7_46 
REMARK   11  A    between atoms: N7_46  and  C29_47 
REMARK   12  A    between atoms: N7_46  and  C32_50 
REMARK   13  A    between atoms: C29_47  and  C30_48 
REMARK   14  A    between atoms: C32_50  and  C33_51 
ROOT
HETATM    1  C1  UNL     1       9.492 -18.374 -13.852  1.00  0.00     0.013 C 
HETATM    2  C2  UNL     1       9.312 -18.492 -15.036  1.00  0.00    -0.103 C 
HETATM    3  C3  UNL     1       9.128 -18.638 -16.525  1.00  0.00     0.153 C 
ENDROOT
BRANCH   3   4
HETATM    4  C4  UNL     1       8.766 -17.286 -17.062  1.00  0.00     0.140 C 
BRANCH   4   5
HETATM    5  N1  UNL     1       7.333 -17.212 -17.381  1.00  0.00    -0.213 NA
HETATM    6  N2  UNL     1       7.278 -16.943 -18.755  1.00  0.00    -0.287 N 
HETATM    7  C5  UNL     1       6.633 -17.625 -19.761  1.00  0.00     0.254 C 
ATOM      8  H2  UNL     1       7.796 -16.117 -19.055  1.00  0.00     0.184 HD
HETATM    9  O1  UNL     1       7.281 -17.876 -20.840  1.00  0.00    -0.270 OA
HETATM   10  C6  UNL     1       5.228 -18.147 -19.804  1.00  0.00     0.174 C 
HETATM   11  C7  UNL     1       5.419 -19.670 -19.909  1.00  0.00     0.042 C 
HETATM   12  N3  UNL     1       4.558 -17.710 -21.018  1.00  0.00    -0.346 N 
HETATM   13  C8  UNL     1       3.178 -17.594 -21.267  1.00  0.00     0.240 C 
ATOM     14  H3  UNL     1       5.169 -17.453 -21.792  1.00  0.00     0.163 HD
HETATM   15  O2  UNL     1       2.799 -16.416 -21.637  1.00  0.00    -0.271 OA
HETATM   16  C9  UNL     1       2.120 -18.591 -21.177  1.00  0.00     0.174 C 
HETATM   17  C10 UNL     1       2.479 -19.833 -22.019  1.00  0.00     0.042 C 
HETATM   18  N4  UNL     1       1.628 -18.944 -19.868  1.00  0.00    -0.342 N 
HETATM   19  C11 UNL     1       1.301 -20.397 -19.760  1.00  0.00     0.153 C 
HETATM   20  C12 UNL     1       1.425 -18.125 -18.740  1.00  0.00     0.242 C 
HETATM   21  O3  UNL     1       1.858 -18.689 -17.668  1.00  0.00    -0.271 OA
HETATM   22  C13 UNL     1       0.837 -16.806 -18.558  1.00  0.00     0.173 C 
HETATM   23  C14 UNL     1      -0.285 -16.552 -19.580  1.00  0.00     0.042 C 
HETATM   24  N5  UNL     1       1.695 -15.669 -18.381  1.00  0.00    -0.355 N 
HETATM   25  C15 UNL     1       1.186 -14.438 -19.067  1.00  0.00     0.152 C 
HETATM   26  C16 UNL     1       2.882 -15.495 -17.702  1.00  0.00     0.137 C 
HETATM   27  C17 UNL     1       3.316 -15.662 -16.295  1.00  0.00     0.159 C 
HETATM   28  N6  UNL     1       4.304 -16.655 -16.051  1.00  0.00    -0.348 N 
HETATM   29  C22 UNL     1       5.666 -16.641 -15.855  1.00  0.00     0.237 C 
ATOM     30  H6  UNL     1       3.913 -17.596 -16.012  1.00  0.00     0.163 HD
HETATM   31  O5  UNL     1       6.093 -17.216 -14.775  1.00  0.00    -0.272 OA
HETATM   32  C23 UNL     1       6.762 -16.070 -16.689  1.00  0.00     0.172 C 
BRANCH  26  33
HETATM   33  O4  UNL     1       3.846 -15.086 -18.474  1.00  0.00    -0.348 OA
ATOM     34  H4  UNL     1       3.964 -14.144 -18.443  1.00  0.00     0.219 HD
ENDBRANCH  26  33
BRANCH  27  35
HETATM   35  C18 UNL     1       2.130 -15.775 -15.337  1.00  0.00     0.037 C 
BRANCH  35  36
HETATM   36  C19 UNL     1       1.621 -14.446 -14.857  1.00  0.00    -0.020 C 
HETATM   37  C20 UNL     1       0.167 -14.369 -15.366  1.00  0.00     0.009 C 
HETATM   38  C21 UNL     1       2.363 -13.355 -15.575  1.00  0.00     0.009 C 
ENDBRANCH  35  36
ENDBRANCH  27  35
BRANCH  32  39
HETATM   39  C24 UNL     1       7.718 -15.435 -15.686  1.00  0.00     0.035 C 
BRANCH  39  40
HETATM   40  C25 UNL     1       6.884 -14.729 -14.614  1.00  0.00    -0.021 C 
HETATM   41  C26 UNL     1       6.258 -13.469 -15.193  1.00  0.00     0.009 C 
HETATM   42  C27 UNL     1       7.848 -14.265 -13.542  1.00  0.00     0.009 C 
ENDBRANCH  39  40
ENDBRANCH  32  39
ENDBRANCH   4   5
ENDBRANCH   3   4
BRANCH   3  43
HETATM   43  C28 UNL     1      10.416 -19.095 -17.039  1.00  0.00     0.130 C 
BRANCH  43  44
HETATM   44  O6  UNL     1      10.943 -18.250 -17.932  1.00  0.00    -0.348 OA
ATOM     45  H6  UNL     1      11.670 -17.750 -17.579  1.00  0.00     0.219 HD
ENDBRANCH  43  44
BRANCH  43  46
HETATM   46  N7  UNL     1      11.192 -20.230 -16.775  1.00  0.00    -0.364 N 
BRANCH  46  47
HETATM   47  C29 UNL     1      10.664 -21.563 -16.828  1.00  0.00     0.124 C 
BRANCH  47  48
HETATM   48  C30 UNL     1      11.132 -22.405 -17.979  1.00  0.00     0.015 C 
HETATM   49  C31 UNL     1      10.506 -22.121 -19.296  1.00  0.00     0.006 C 
ENDBRANCH  47  48
ENDBRANCH  46  47
BRANCH  46  50
HETATM   50  C32 UNL     1      12.603 -20.034 -16.438  1.00  0.00     0.124 C 
BRANCH  50  51
HETATM   51  C33 UNL     1      12.878 -19.466 -15.106  1.00  0.00     0.015 C 
HETATM   52  C34 UNL     1      12.669 -20.323 -13.913  1.00  0.00     0.006 C 
ENDBRANCH  50  51
ENDBRANCH  46  50
ENDBRANCH  43  46
ENDBRANCH   3  43
TORSDOF 14
ENDMDL
MODEL 2
REMARK VINA RESULT: -7.002293899      0.052      1.640
REMARK  14 active torsions:
REMARK  status: ('A' for Active; 'I' for Inactive)
REMARK    1  A    between atoms: C3_3  and  C4_4 
REMARK    2  A    between atoms: C3_3  and  C28_43 
REMARK    3  A    between atoms: C4_4  and  N1_5 
REMARK    4  A    between atoms: C16_26  and  O4_27 
REMARK    5  A    between atoms: C17_29  and  C18_30 
REMARK    6  A    between atoms: C18_30  and  C19_31 
REMARK    7  A    between atoms: C23_38  and  C24_39 
REMARK    8  A    between atoms: C24_39  and  C25_40 
REMARK    9  A    between atoms: C28_43  and  O6_44 
REMARK   10  A    between atoms: C28_43  and  N7_46 
REMARK   11  A    between atoms: N7_46  and  C29_47 
REMARK   12  A    between atoms: N7_46  and  C32_50 
REMARK   13  A    between atoms: C29_47  and  C30_48 
REMARK   14  A    between atoms: C32_50  and  C33_51 
ROOT
HETATM    1  C1  UNL     1       9.481 -18.362 -13.878  1.00  0.00     0.013 C 
HETATM    2  C2  UNL     1       9.307 -18.472 -15.064  1.00  0.00    -0.103 C 
HETATM    3  C3  UNL     1       9.129 -18.606 -16.555  1.00  0.00     0.153 C 
ENDROOT
BRANCH   3   4
HETATM    4  C4  UNL     1       8.755 -17.253 -17.081  1.00  0.00     0.140 C 
BRANCH   4   5
HETATM    5  N1  UNL     1       7.321 -17.187 -17.394  1.00  0.00    -0.213 NA
HETATM    6  N2  UNL     1       7.258 -16.903 -18.765  1.00  0.00    -0.287 N 
HETATM    7  C5  UNL     1       6.615 -17.578 -19.777  1.00  0.00     0.254 C 
ATOM      8  H2  UNL     1       7.768 -16.069 -19.056  1.00  0.00     0.184 HD
HETATM    9  O1  UNL     1       7.262 -17.811 -20.861  1.00  0.00    -0.270 OA
HETATM   10  C6  UNL     1       5.214 -18.111 -19.821  1.00  0.00     0.174 C 
HETATM   11  C7  UNL     1       5.418 -19.631 -19.945  1.00  0.00     0.042 C 
HETATM   12  N3  UNL     1       4.536 -17.666 -21.027  1.00  0.00    -0.346 N 
HETATM   13  C8  UNL     1       3.155 -17.558 -21.269  1.00  0.00     0.240 C 
ATOM     14  H3  UNL     1       5.143 -17.394 -21.800  1.00  0.00     0.163 HD
HETATM   15  O2  UNL     1       2.764 -16.379 -21.624  1.00  0.00    -0.271 OA
HETATM   16  C9  UNL     1       2.105 -18.566 -21.188  1.00  0.00     0.174 C 
HETATM   17  C10 UNL     1       2.472 -19.794 -22.047  1.00  0.00     0.042 C 
HETATM   18  N4  UNL     1       1.621 -18.938 -19.882  1.00  0.00    -0.342 N 
HETATM   19  C11 UNL     1       1.307 -20.395 -19.790  1.00  0.00     0.153 C 
HETATM   20  C12 UNL     1       1.416 -18.135 -18.743  1.00  0.00     0.242 C 
HETATM   21  O3  UNL     1       1.857 -18.708 -17.679  1.00  0.00    -0.271 OA
HETATM   22  C13 UNL     1       0.817 -16.823 -18.543  1.00  0.00     0.173 C 
HETATM   23  C14 UNL     1      -0.311 -16.566 -19.558  1.00  0.00     0.042 C 
HETATM   24  N5  UNL     1       1.666 -15.681 -18.355  1.00  0.00    -0.355 N 
HETATM   25  C15 UNL     1       1.144 -14.446 -19.025  1.00  0.00     0.152 C 
HETATM   26  C16 UNL     1       2.854 -15.505 -17.678  1.00  0.00     0.137 C 
HETATM   27  C17 UNL     1       3.295 -15.685 -16.275  1.00  0.00     0.159 C 
HETATM   28  N6  UNL     1       4.292 -16.673 -16.047  1.00  0.00    -0.348 N 
HETATM   29  C22 UNL     1       5.654 -16.650 -15.855  1.00  0.00     0.237 C 
ATOM     30  H6  UNL     1       3.909 -17.617 -16.018  1.00  0.00     0.163 HD
HETATM   31  O5  UNL     1       6.090 -17.233 -14.784  1.00  0.00    -0.272 OA
HETATM   32  C23 UNL     1       6.742 -16.059 -16.686  1.00  0.00     0.172 C 
BRANCH  26  33
HETATM   33  O4  UNL     1       3.811 -15.079 -18.448  1.00  0.00    -0.348 OA
ATOM     34  H4  UNL     1       3.525 -14.396 -19.044  1.00  0.00     0.219 HD
ENDBRANCH  26  33
BRANCH  27  35
HETATM   35  C18 UNL     1       2.113 -15.820 -15.315  1.00  0.00     0.037 C 
BRANCH  35  36
HETATM   36  C19 UNL     1       1.597 -14.501 -14.814  1.00  0.00    -0.020 C 
HETATM   37  C20 UNL     1       0.138 -14.430 -15.310  1.00  0.00     0.009 C 
HETATM   38  C21 UNL     1       2.323 -13.395 -15.524  1.00  0.00     0.009 C 
ENDBRANCH  35  36
ENDBRANCH  27  35
BRANCH  32  39
HETATM   39  C24 UNL     1       7.696 -15.428 -15.679  1.00  0.00     0.035 C 
BRANCH  39  40
HETATM   40  C25 UNL     1       6.861 -14.729 -14.605  1.00  0.00    -0.021 C 
HETATM   41  C26 UNL     1       6.225 -13.472 -15.180  1.00  0.00     0.009 C 
HETATM   42  C27 UNL     1       7.824 -14.260 -13.534  1.00  0.00     0.009 C 
ENDBRANCH  39  40
ENDBRANCH  32  39
ENDBRANCH   4   5
ENDBRANCH   3   4
BRANCH   3  43
HETATM   43  C28 UNL     1      10.424 -19.046 -17.069  1.00  0.00     0.130 C 
BRANCH  43  44
HETATM   44  O6  UNL     1      10.919 -18.215 -17.993  1.00  0.00    -0.348 OA
ATOM     45  H6  UNL     1      11.173 -17.374 -17.630  1.00  0.00     0.219 HD
ENDBRANCH  43  44
BRANCH  43  46
HETATM   46  N7  UNL     1      11.232 -20.152 -16.778  1.00  0.00    -0.364 N 
BRANCH  46  47
HETATM   47  C29 UNL     1      12.622 -20.032 -16.443  1.00  0.00     0.124 C 
BRANCH  47  48
HETATM   48  C30 UNL     1      12.919 -19.399 -15.114  1.00  0.00     0.015 C 
HETATM   49  C31 UNL     1      12.674 -20.243 -13.917  1.00  0.00     0.006 C 
ENDBRANCH  47  48
ENDBRANCH  46  47
BRANCH  46  50
HETATM   50  C32 UNL     1      10.617 -21.480 -16.816  1.00  0.00     0.124 C 
BRANCH  50  51
HETATM   51  C33 UNL     1      11.044 -22.360 -17.919  1.00  0.00     0.015 C 
HETATM   52  C34 UNL     1      10.503 -22.107 -19.277  1.00  0.00     0.006 C 
ENDBRANCH  50  51
ENDBRANCH  46  50
ENDBRANCH  43  46
ENDBRANCH   3  43
TORSDOF 14
ENDMDL
MODEL 3
REMARK VINA RESULT: -6.687846041      1.048      1.779
REMARK  14 active torsions:
REMARK  status: ('A' for Active; 'I' for Inactive)
REMARK    1  A    between atoms: C3_3  and  C4_4 
REMARK    2  A    between atoms: C3_3  and  C28_43 
REMARK    3  A    between atoms: C4_4  and  N1_5 
REMARK    4  A    between atoms: C16_26  and  O4_27 
REMARK    5  A    between atoms: C17_29  and  C18_30 
REMARK    6  A    between atoms: C18_30  and  C19_31 
REMARK    7  A    between atoms: C23_38  and  C24_39 
REMARK    8  A    between atoms: C24_39  and  C25_40 
REMARK    9  A    between atoms: C28_43  and  O6_44 
REMARK   10  A    between atoms: C28_43  and  N7_46 
REMARK   11  A    between atoms: N7_46  and  C29_47 
REMARK   12  A    between atoms: N7_46  and  C32_50 
REMARK   13  A    between atoms: C29_47  and  C30_48 
REMARK   14  A    between atoms: C32_50  and  C33_51 
ROOT
HETATM    1  C1  UNL     1       8.190 -18.772 -14.148  1.00  0.00     0.013 C 
HETATM    2  C2  UNL     1       8.520 -18.551 -15.283  1.00  0.00    -0.103 C 
HETATM    3  C3  UNL     1       8.971 -18.264 -16.693  1.00  0.00     0.153 C 
ENDROOT
BRANCH   3   4
HETATM    4  C4  UNL     1       8.500 -16.884 -17.037  1.00  0.00     0.140 C 
BRANCH   4   5
HETATM    5  N1  UNL     1       7.071 -16.885 -17.381  1.00  0.00    -0.213 NA
HETATM    6  N2  UNL     1       7.030 -16.730 -18.773  1.00  0.00    -0.287 N 
HETATM    7  C5  UNL     1       6.424 -17.512 -19.730  1.00  0.00     0.254 C 
ATOM      8  H2  UNL     1       7.524 -15.913 -19.131  1.00  0.00     0.184 HD
HETATM    9  O1  UNL     1       7.099 -17.826 -20.776  1.00  0.00    -0.270 OA
HETATM   10  C6  UNL     1       5.039 -18.084 -19.750  1.00  0.00     0.174 C 
HETATM   11  C7  UNL     1       5.282 -19.603 -19.729  1.00  0.00     0.042 C 
HETATM   12  N3  UNL     1       4.374 -17.769 -21.004  1.00  0.00    -0.346 N 
HETATM   13  C8  UNL     1       2.996 -17.721 -21.281  1.00  0.00     0.240 C 
ATOM     14  H3  UNL     1       4.990 -17.554 -21.788  1.00  0.00     0.163 HD
HETATM   15  O2  UNL     1       2.584 -16.591 -21.750  1.00  0.00    -0.271 OA
HETATM   16  C9  UNL     1       1.970 -18.744 -21.125  1.00  0.00     0.174 C 
HETATM   17  C10 UNL     1       2.385 -20.036 -21.860  1.00  0.00     0.042 C 
HETATM   18  N4  UNL     1       1.468 -19.008 -19.799  1.00  0.00    -0.342 N 
HETATM   19  C11 UNL     1       1.189 -20.458 -19.579  1.00  0.00     0.153 C 
HETATM   20  C12 UNL     1       1.220 -18.109 -18.744  1.00  0.00     0.242 C 
HETATM   21  O3  UNL     1       1.654 -18.569 -17.624  1.00  0.00    -0.271 OA
HETATM   22  C13 UNL     1       0.586 -16.800 -18.677  1.00  0.00     0.173 C 
HETATM   23  C14 UNL     1      -0.528 -16.668 -19.731  1.00  0.00     0.042 C 
HETATM   24  N5  UNL     1       1.402 -15.624 -18.580  1.00  0.00    -0.355 N 
HETATM   25  C15 UNL     1       0.863 -14.470 -19.371  1.00  0.00     0.152 C 
HETATM   26  C16 UNL     1       2.571 -15.355 -17.901  1.00  0.00     0.137 C 
HETATM   27  C17 UNL     1       2.987 -15.393 -16.479  1.00  0.00     0.159 C 
HETATM   28  N6  UNL     1       4.003 -16.329 -16.142  1.00  0.00    -0.348 N 
HETATM   29  C22 UNL     1       5.360 -16.252 -15.929  1.00  0.00     0.237 C 
ATOM     30  H6  UNL     1       3.643 -17.277 -16.033  1.00  0.00     0.163 HD
HETATM   31  O5  UNL     1       5.789 -16.723 -14.801  1.00  0.00    -0.272 OA
HETATM   32  C23 UNL     1       6.450 -15.712 -16.791  1.00  0.00     0.172 C 
BRANCH  26  33
HETATM   33  O4  UNL     1       3.533 -14.976 -18.690  1.00  0.00    -0.348 OA
ATOM     34  H4  UNL     1       3.794 -14.074 -18.542  1.00  0.00     0.219 HD
ENDBRANCH  26  33
BRANCH  27  35
HETATM   35  C18 UNL     1       1.789 -15.471 -15.532  1.00  0.00     0.037 C 
BRANCH  35  36
HETATM   36  C19 UNL     1       1.254 -14.124 -15.136  1.00  0.00    -0.020 C 
HETATM   37  C20 UNL     1      -0.169 -14.071 -15.729  1.00  0.00     0.009 C 
HETATM   38  C21 UNL     1       2.035 -13.061 -15.854  1.00  0.00     0.009 C 
ENDBRANCH  35  36
ENDBRANCH  27  35
BRANCH  32  39
HETATM   39  C24 UNL     1       7.367 -14.965 -15.830  1.00  0.00     0.035 C 
BRANCH  39  40
HETATM   40  C25 UNL     1       6.512 -14.412 -14.688  1.00  0.00    -0.021 C 
HETATM   41  C26 UNL     1       5.922 -13.068 -15.090  1.00  0.00     0.009 C 
HETATM   42  C27 UNL     1       7.450 -14.130 -13.533  1.00  0.00     0.009 C 
ENDBRANCH  39  40
ENDBRANCH  32  39
ENDBRANCH   4   5
ENDBRANCH   3   4
BRANCH   3  43
HETATM   43  C28 UNL     1      10.429 -18.345 -16.665  1.00  0.00     0.130 C 
BRANCH  43  44
HETATM   44  O6  UNL     1      10.991 -17.911 -17.799  1.00  0.00    -0.348 OA
ATOM     45  H6  UNL     1      11.387 -17.053 -17.706  1.00  0.00     0.219 HD
ENDBRANCH  43  44
BRANCH  43  46
HETATM   46  N7  UNL     1      11.335 -18.780 -15.689  1.00  0.00    -0.364 N 
BRANCH  46  47
HETATM   47  C29 UNL     1      12.119 -17.876 -14.898  1.00  0.00     0.124 C 
BRANCH  47  48
HETATM   48  C30 UNL     1      11.381 -17.158 -13.806  1.00  0.00     0.015 C 
HETATM   49  C31 UNL     1      11.181 -17.914 -12.543  1.00  0.00     0.006 C 
ENDBRANCH  47  48
ENDBRANCH  46  47
BRANCH  46  50
HETATM   50  C32 UNL     1      11.473 -20.221 -15.474  1.00  0.00     0.124 C 
BRANCH  50  51
HETATM   51  C33 UNL     1      12.602 -20.645 -14.627  1.00  0.00     0.015 C 
HETATM   52  C34 UNL     1      13.592 -21.596 -15.190  1.00  0.00     0.006 C 
ENDBRANCH  50  51
ENDBRANCH  46  50
ENDBRANCH  43  46
ENDBRANCH   3  43
TORSDOF 14
ENDMDL
MODEL 4
REMARK VINA RESULT: -6.671050994      1.060      1.321
REMARK  14 active torsions:
REMARK  status: ('A' for Active; 'I' for Inactive)
REMARK    1  A    between atoms: C3_3  and  C4_4 
REMARK    2  A    between atoms: C3_3  and  C28_43 
REMARK    3  A    between atoms: C4_4  and  N1_5 
REMARK    4  A    between atoms: C16_26  and  O4_27 
REMARK    5  A    between atoms: C17_29  and  C18_30 
REMARK    6  A    between atoms: C18_30  and  C19_31 
REMARK    7  A    between atoms: C23_38  and  C24_39 
REMARK    8  A    between atoms: C24_39  and  C25_40 
REMARK    9  A    between atoms: C28_43  and  O6_44 
REMARK   10  A    between atoms: C28_43  and  N7_46 
REMARK   11  A    between atoms: N7_46  and  C29_47 
REMARK   12  A    between atoms: N7_46  and  C32_50 
REMARK   13  A    between atoms: C29_47  and  C30_48 
REMARK   14  A    between atoms: C32_50  and  C33_51 
ROOT
HETATM    1  C1  UNL     1       9.574 -20.545 -16.269  1.00  0.00     0.013 C 
HETATM    2  C2  UNL     1       9.479 -19.616 -17.029  1.00  0.00    -0.103 C 
HETATM    3  C3  UNL     1       9.398 -18.444 -17.973  1.00  0.00     0.153 C 
ENDROOT
BRANCH   3   4
HETATM    4  C4  UNL     1       8.769 -17.311 -17.221  1.00  0.00     0.140 C 
BRANCH   4   5
HETATM    5  N1  UNL     1       7.328 -17.229 -17.501  1.00  0.00    -0.213 NA
HETATM    6  N2  UNL     1       7.238 -16.903 -18.861  1.00  0.00    -0.287 N 
HETATM    7  C5  UNL     1       6.569 -17.543 -19.879  1.00  0.00     0.254 C 
ATOM      8  H2  UNL     1       7.745 -16.062 -19.138  1.00  0.00     0.184 HD
HETATM    9  O1  UNL     1       7.192 -17.746 -20.983  1.00  0.00    -0.270 OA
HETATM   10  C6  UNL     1       5.165 -18.068 -19.909  1.00  0.00     0.174 C 
HETATM   11  C7  UNL     1       5.358 -19.584 -20.084  1.00  0.00     0.042 C 
HETATM   12  N3  UNL     1       4.464 -17.583 -21.086  1.00  0.00    -0.346 N 
HETATM   13  C8  UNL     1       3.078 -17.462 -21.296  1.00  0.00     0.240 C 
ATOM     14  H3  UNL     1       5.055 -17.290 -21.864  1.00  0.00     0.163 HD
HETATM   15  O2  UNL     1       2.687 -16.271 -21.606  1.00  0.00    -0.271 OA
HETATM   16  C9  UNL     1       2.025 -18.466 -21.222  1.00  0.00     0.174 C 
HETATM   17  C10 UNL     1       2.367 -19.669 -22.126  1.00  0.00     0.042 C 
HETATM   18  N4  UNL     1       1.567 -18.876 -19.918  1.00  0.00    -0.342 N 
HETATM   19  C11 UNL     1       1.247 -20.333 -19.863  1.00  0.00     0.153 C 
HETATM   20  C12 UNL     1       1.390 -18.107 -18.751  1.00  0.00     0.242 C 
HETATM   21  O3  UNL     1       1.852 -18.714 -17.715  1.00  0.00    -0.271 OA
HETATM   22  C13 UNL     1       0.803 -16.799 -18.499  1.00  0.00     0.173 C 
HETATM   23  C14 UNL     1      -0.345 -16.506 -19.480  1.00  0.00     0.042 C 
HETATM   24  N5  UNL     1       1.662 -15.667 -18.294  1.00  0.00    -0.355 N 
HETATM   25  C15 UNL     1       1.132 -14.410 -18.915  1.00  0.00     0.152 C 
HETATM   26  C16 UNL     1       2.865 -15.518 -17.638  1.00  0.00     0.137 C 
HETATM   27  C17 UNL     1       3.335 -15.742 -16.251  1.00  0.00     0.159 C 
HETATM   28  N6  UNL     1       4.331 -16.741 -16.074  1.00  0.00    -0.348 N 
HETATM   29  C22 UNL     1       5.697 -16.730 -15.911  1.00  0.00     0.237 C 
ATOM     30  H6  UNL     1       3.944 -17.684 -16.066  1.00  0.00     0.163 HD
HETATM   31  O5  UNL     1       6.153 -17.349 -14.868  1.00  0.00    -0.272 OA
HETATM   32  C23 UNL     1       6.771 -16.120 -16.747  1.00  0.00     0.172 C 
BRANCH  26  33
HETATM   33  O4  UNL     1       3.808 -15.072 -18.415  1.00  0.00    -0.348 OA
ATOM     34  H4  UNL     1       4.430 -15.748 -18.660  1.00  0.00     0.219 HD
ENDBRANCH  26  33
BRANCH  27  35
HETATM   35  C18 UNL     1       2.173 -15.901 -15.270  1.00  0.00     0.037 C 
BRANCH  35  36
HETATM   36  C19 UNL     1       1.648 -14.593 -14.750  1.00  0.00    -0.020 C 
HETATM   37  C20 UNL     1       0.172 -14.550 -15.199  1.00  0.00     0.009 C 
HETATM   38  C21 UNL     1       2.329 -13.472 -15.481  1.00  0.00     0.009 C 
ENDBRANCH  35  36
ENDBRANCH  27  35
BRANCH  32  39
HETATM   39  C24 UNL     1       7.749 -15.524 -15.741  1.00  0.00     0.035 C 
BRANCH  39  40
HETATM   40  C25 UNL     1       6.942 -14.809 -14.657  1.00  0.00    -0.021 C 
HETATM   41  C26 UNL     1       6.320 -13.542 -15.225  1.00  0.00     0.009 C 
HETATM   42  C27 UNL     1       7.928 -14.356 -13.601  1.00  0.00     0.009 C 
ENDBRANCH  39  40
ENDBRANCH  32  39
ENDBRANCH   4   5
ENDBRANCH   3   4
BRANCH   3  43
HETATM   43  C28 UNL     1      10.778 -18.143 -18.346  1.00  0.00     0.130 C 
BRANCH  43  44
HETATM   44  O6  UNL     1      10.897 -17.789 -19.631  1.00  0.00    -0.348 OA
ATOM     45  H6  UNL     1      11.627 -18.218 -20.062  1.00  0.00     0.219 HD
ENDBRANCH  43  44
BRANCH  43  46
HETATM   46  N7  UNL     1      11.977 -18.151 -17.624  1.00  0.00    -0.364 N 
BRANCH  46  47
HETATM   47  C29 UNL     1      13.088 -18.989 -17.971  1.00  0.00     0.124 C 
BRANCH  47  48
HETATM   48  C30 UNL     1      12.753 -20.418 -18.286  1.00  0.00     0.015 C 
HETATM   49  C31 UNL     1      13.419 -21.001 -19.478  1.00  0.00     0.006 C 
ENDBRANCH  47  48
ENDBRANCH  46  47
BRANCH  46  50
HETATM   50  C32 UNL     1      12.091 -17.255 -16.472  1.00  0.00     0.124 C 
BRANCH  50  51
HETATM   51  C33 UNL     1      12.110 -17.902 -15.148  1.00  0.00     0.015 C 
HETATM   52  C34 UNL     1      11.093 -17.497 -14.146  1.00  0.00     0.006 C 
ENDBRANCH  50  51
ENDBRANCH  46  50
ENDBRANCH  43  46
ENDBRANCH   3  43
TORSDOF 14
ENDMDL
MODEL 5
REMARK VINA RESULT: -6.278354211      0.891      1.247
REMARK  14 active torsions:
REMARK  status: ('A' for Active; 'I' for Inactive)
REMARK    1  A    between atoms: C3_3  and  C4_4 
REMARK    2  A    between atoms: C3_3  and  C28_43 
REMARK    3  A    between atoms: C4_4  and  N1_5 
REMARK    4  A    between atoms: C16_26  and  O4_27 
REMARK    5  A    between atoms: C17_29  and  C18_30 
REMARK    6  A    between atoms: C18_30  and  C19_31 
REMARK    7  A    between atoms: C23_38  and  C24_39 
REMARK    8  A    between atoms: C24_39  and  C25_40 
REMARK    9  A    between atoms: C28_43  and  O6_44 
REMARK   10  A    between atoms: C28_43  and  N7_46 
REMARK   11  A    between atoms: N7_46  and  C29_47 
REMARK   12  A    between atoms: N7_46  and  C32_50 
REMARK   13  A    between atoms: C29_47  and  C30_48 
REMARK   14  A    between atoms: C32_50  and  C33_51 
ROOT
HETATM    1  C1  UNL     1       9.688 -18.432 -14.203  1.00  0.00     0.013 C 
HETATM    2  C2  UNL     1       9.499 -18.339 -15.388  1.00  0.00    -0.103 C 
HETATM    3  C3  UNL     1       9.301 -18.215 -16.877  1.00  0.00     0.153 C 
ENDROOT
BRANCH   3   4
HETATM    4  C4  UNL     1       8.757 -16.843 -17.139  1.00  0.00     0.140 C 
BRANCH   4   5
HETATM    5  N1  UNL     1       7.315 -16.893 -17.419  1.00  0.00    -0.213 NA
HETATM    6  N2  UNL     1       7.197 -16.594 -18.783  1.00  0.00    -0.287 N 
HETATM    7  C5  UNL     1       6.589 -17.306 -19.793  1.00  0.00     0.254 C 
ATOM      8  H2  UNL     1       7.628 -15.716 -19.072  1.00  0.00     0.184 HD
HETATM    9  O1  UNL     1       7.228 -17.467 -20.895  1.00  0.00    -0.270 OA
HETATM   10  C6  UNL     1       5.237 -17.954 -19.816  1.00  0.00     0.174 C 
HETATM   11  C7  UNL     1       5.564 -19.449 -19.970  1.00  0.00     0.042 C 
HETATM   12  N3  UNL     1       4.496 -17.548 -20.998  1.00  0.00    -0.346 N 
HETATM   13  C8  UNL     1       3.106 -17.553 -21.209  1.00  0.00     0.240 C 
ATOM     14  H3  UNL     1       5.060 -17.214 -21.780  1.00  0.00     0.163 HD
HETATM   15  O2  UNL     1       2.610 -16.406 -21.535  1.00  0.00    -0.271 OA
HETATM   16  C9  UNL     1       2.146 -18.646 -21.122  1.00  0.00     0.174 C 
HETATM   17  C10 UNL     1       2.594 -19.826 -22.010  1.00  0.00     0.042 C 
HETATM   18  N4  UNL     1       1.725 -19.078 -19.812  1.00  0.00    -0.342 N 
HETATM   19  C11 UNL     1       1.535 -20.557 -19.738  1.00  0.00     0.153 C 
HETATM   20  C12 UNL     1       1.480 -18.312 -18.656  1.00  0.00     0.242 C 
HETATM   21  O3  UNL     1       1.992 -18.862 -17.612  1.00  0.00    -0.271 OA
HETATM   22  C13 UNL     1       0.779 -17.058 -18.421  1.00  0.00     0.173 C 
HETATM   23  C14 UNL     1      -0.391 -16.881 -19.406  1.00  0.00     0.042 C 
HETATM   24  N5  UNL     1       1.533 -15.852 -18.231  1.00  0.00    -0.355 N 
HETATM   25  C15 UNL     1       0.895 -14.655 -18.869  1.00  0.00     0.152 C 
HETATM   26  C16 UNL     1       2.718 -15.587 -17.578  1.00  0.00     0.137 C 
HETATM   27  C17 UNL     1       3.204 -15.751 -16.188  1.00  0.00     0.159 C 
HETATM   28  N6  UNL     1       4.285 -16.655 -15.998  1.00  0.00    -0.348 N 
HETATM   29  C22 UNL     1       5.645 -16.521 -15.836  1.00  0.00     0.237 C 
ATOM     30  H6  UNL     1       3.983 -17.629 -15.977  1.00  0.00     0.163 HD
HETATM   31  O5  UNL     1       6.153 -17.082 -14.785  1.00  0.00    -0.272 OA
HETATM   32  C23 UNL     1       6.661 -15.829 -16.680  1.00  0.00     0.172 C 
BRANCH  26  33
HETATM   33  O4  UNL     1       3.618 -15.070 -18.361  1.00  0.00    -0.348 OA
ATOM     34  H4  UNL     1       4.458 -14.962 -17.932  1.00  0.00     0.219 HD
ENDBRANCH  26  33
BRANCH  27  35
HETATM   35  C18 UNL     1       2.060 -15.999 -15.205  1.00  0.00     0.037 C 
BRANCH  35  36
HETATM   36  C19 UNL     1       1.429 -14.736 -14.692  1.00  0.00    -0.020 C 
HETATM   37  C20 UNL     1      -0.042 -14.812 -15.151  1.00  0.00     0.009 C 
HETATM   38  C21 UNL     1       2.024 -13.566 -15.421  1.00  0.00     0.009 C 
ENDBRANCH  35  36
ENDBRANCH  27  35
BRANCH  32  39
HETATM   39  C24 UNL     1       7.581 -15.135 -15.683  1.00  0.00     0.035 C 
BRANCH  39  40
HETATM   40  C25 UNL     1       6.716 -14.523 -14.580  1.00  0.00    -0.021 C 
HETATM   41  C26 UNL     1       6.089 -13.228 -15.073  1.00  0.00     0.009 C 
HETATM   42  C27 UNL     1       7.649 -14.136 -13.452  1.00  0.00     0.009 C 
ENDBRANCH  39  40
ENDBRANCH  32  39
ENDBRANCH   4   5
ENDBRANCH   3   4
BRANCH   3  43
HETATM   43  C28 UNL     1      10.625 -18.392 -17.467  1.00  0.00     0.130 C 
BRANCH  43  44
HETATM   44  O6  UNL     1      11.314 -17.247 -17.536  1.00  0.00    -0.348 OA
ATOM     45  H6  UNL     1      12.223 -17.352 -17.279  1.00  0.00     0.219 HD
ENDBRANCH  43  44
BRANCH  43  46
HETATM   46  N7  UNL     1      11.299 -19.515 -17.962  1.00  0.00    -0.364 N 
BRANCH  46  47
HETATM   47  C29 UNL     1      11.124 -20.000 -19.301  1.00  0.00     0.124 C 
BRANCH  47  48
HETATM   48  C30 UNL     1       9.911 -19.491 -20.024  1.00  0.00     0.015 C 
HETATM   49  C31 UNL     1      10.144 -18.408 -21.013  1.00  0.00     0.006 C 
ENDBRANCH  47  48
ENDBRANCH  46  47
BRANCH  46  50
HETATM   50  C32 UNL     1      12.224 -20.211 -17.065  1.00  0.00     0.124 C 
BRANCH  50  51
HETATM   51  C33 UNL     1      11.960 -21.644 -16.848  1.00  0.00     0.015 C 
HETATM   52  C34 UNL     1      10.556 -22.121 -16.885  1.00  0.00     0.006 C 
ENDBRANCH  50  51
ENDBRANCH  46  50
ENDBRANCH  43  46
ENDBRANCH   3  43
TORSDOF 14
ENDMDL
