MODEL 1
REMARK VINA RESULT: -8.776819333      0.000      0.000
REMARK  14 active torsions:
REMARK  status: ('A' for Active; 'I' for Inactive)
REMARK    1  A    between atoms: C3_3  and  C4_4 
REMARK    2  A    between atoms: C5_5  and  C6_6 
REMARK    3  A    between atoms: C6_6  and  N1_7 
REMARK    4  A    between atoms: N1_7  and  C7_8 
REMARK       I    between atoms: N1_7  and  C9_10 
REMARK    5  A    between atoms: C9_10  and  C10_12 
REMARK    6  A    between atoms: C10_12  and  C11_13 
REMARK    7  A    between atoms: C10_12  and  N5_41 
REMARK    8  A    between atoms: C11_13  and  C12_14 
REMARK    9  A    between atoms: C15_17  and  C16_18 
REMARK   10  A    between atoms: C15_17  and  C17_21 
REMARK       I    between atoms: C17_21  and  N2_23 
REMARK   11  A    between atoms: N3_28  and  C22_29 
REMARK   12  A    between atoms: C22_29  and  C23_30 
REMARK       I    between atoms: C23_30  and  N4_32 
REMARK       I    between atoms: N5_41  and  C31_43 
REMARK   13  A    between atoms: C31_43  and  C32_45 
REMARK   14  A    between atoms: C32_45  and  N6_47 
ROOT
HETATM    1  C1  UNL     1       0.046 -22.941 -19.285  1.00  0.00     0.113 C 
HETATM    2  C2  UNL     1       1.002 -21.883 -19.652  1.00  0.00    -0.097 C 
HETATM    3  C3  UNL     1       1.782 -21.006 -19.931  1.00  0.00    -0.015 C 
ENDROOT
BRANCH   3   4
HETATM    4  C4  UNL     1       2.707 -19.958 -20.234  1.00  0.00    -0.013 C 
HETATM    5  C5  UNL     1       3.506 -19.092 -20.491  1.00  0.00    -0.073 C 
BRANCH   5   6
HETATM    6  C6  UNL     1       4.494 -18.066 -20.814  1.00  0.00     0.221 C 
BRANCH   6   7
HETATM    7  N1  UNL     1       5.410 -17.974 -19.680  1.00  0.00    -0.340 N 
HETATM    8  C9  UNL     1       6.786 -17.884 -19.951  1.00  0.00     0.243 C 
HETATM    9  O1  UNL     1       7.140 -17.933 -21.183  1.00  0.00    -0.271 OA
BRANCH   7  10
HETATM   10  C7  UNL     1       4.830 -18.010 -18.367  1.00  0.00     0.122 C 
HETATM   11  C8  UNL     1       3.926 -16.800 -18.126  1.00  0.00     0.026 C 
ENDBRANCH   7  10
BRANCH   8  12
HETATM   12  C10 UNL     1       7.871 -17.742 -18.990  1.00  0.00     0.177 C 
BRANCH  12  13
HETATM   13  C11 UNL     1       8.727 -18.942 -18.818  1.00  0.00     0.049 C 
BRANCH  13  14
HETATM   14  C12 UNL     1       9.308 -19.258 -17.497  1.00  0.00     0.080 C 
HETATM   15  C13 UNL     1      10.219 -18.253 -16.867  1.00  0.00     0.017 C 
HETATM   16  C14 UNL     1      11.594 -18.475 -17.455  1.00  0.00     0.054 C 
HETATM   17  C15 UNL     1      12.172 -19.734 -16.844  1.00  0.00     0.205 C 
HETATM   18  N3  UNL     1      11.387 -20.815 -17.477  1.00  0.00    -0.316 N 
HETATM   19  C30 UNL     1      10.001 -20.584 -17.653  1.00  0.00     0.226 C 
HETATM   20  O6  UNL     1       9.215 -21.541 -17.973  1.00  0.00    -0.273 OA
BRANCH  17  21
HETATM   21  C16 UNL     1      13.610 -19.808 -17.142  1.00  0.00     0.212 C 
HETATM   22  O2  UNL     1      14.033 -19.380 -18.280  1.00  0.00    -0.646 OA
HETATM   23  O3  UNL     1      14.617 -20.289 -16.343  1.00  0.00    -0.646 OA
ENDBRANCH  17  21
BRANCH  17  24
HETATM   24  C17 UNL     1      11.964 -19.834 -15.379  1.00  0.00     0.259 C 
HETATM   25  O4  UNL     1      11.838 -21.024 -14.901  1.00  0.00    -0.270 OA
HETATM   26  N2  UNL     1      11.897 -18.750 -14.485  1.00  0.00    -0.349 N 
HETATM   27  C18 UNL     1      11.953 -17.325 -14.632  1.00  0.00     0.126 C 
HETATM   28  C21 UNL     1      11.767 -18.986 -13.019  1.00  0.00     0.126 C 
HETATM   29  C19 UNL     1      11.132 -16.719 -13.480  1.00  0.00     0.021 C 
HETATM   30  C20 UNL     1      11.413 -17.693 -12.389  1.00  0.00     0.021 C 
ENDBRANCH  17  24
BRANCH  18  31
HETATM   31  C22 UNL     1      11.892 -22.083 -17.904  1.00  0.00     0.230 C 
BRANCH  31  32
HETATM   32  C23 UNL     1      12.216 -22.123 -19.359  1.00  0.00     0.237 C 
HETATM   33  O5  UNL     1      11.339 -21.845 -20.211  1.00  0.00    -0.272 OA
HETATM   34  N4  UNL     1      13.514 -22.476 -19.758  1.00  0.00    -0.351 N 
HETATM   35  C24 UNL     1      13.711 -22.465 -21.211  1.00  0.00     0.126 C 
HETATM   36  C29 UNL     1      14.532 -22.815 -18.798  1.00  0.00     0.126 C 
HETATM   37  C25 UNL     1      14.841 -23.378 -21.612  1.00  0.00     0.020 C 
HETATM   38  C26 UNL     1      14.595 -24.786 -21.086  1.00  0.00     0.002 C 
HETATM   39  C27 UNL     1      15.350 -24.948 -19.800  1.00  0.00     0.002 C 
HETATM   40  C28 UNL     1      14.575 -24.339 -18.654  1.00  0.00     0.020 C 
ENDBRANCH  31  32
ENDBRANCH  18  31
ENDBRANCH  13  14
ENDBRANCH  12  13
BRANCH  12  41
HETATM   41  N5  UNL     1       7.463 -17.128 -17.749  1.00  0.00    -0.346 N 
HETATM   42  C31 UNL     1       7.437 -15.697 -17.578  1.00  0.00     0.240 C 
HETATM   43  O7  UNL     1       7.776 -14.982 -18.541  1.00  0.00    -0.271 OA
ATOM     44  H5  UNL     1       7.185 -17.724 -16.970  1.00  0.00     0.163 HD
BRANCH  42  45
HETATM   45  C32 UNL     1       7.021 -15.082 -16.300  1.00  0.00     0.165 C 
HETATM   46  C33 UNL     1       7.015 -16.037 -15.140  1.00  0.00     0.042 C 
BRANCH  45  47
HETATM   47  N6  UNL     1       5.801 -14.358 -16.406  1.00  0.00    -0.414 N 
HETATM   48  C34 UNL     1       5.211 -13.908 -15.192  1.00  0.00     0.140 C 
ATOM     49  H6  UNL     1       5.369 -14.171 -17.310  1.00  0.00     0.153 HD
ENDBRANCH  45  47
ENDBRANCH  42  45
ENDBRANCH  12  41
ENDBRANCH   8  12
ENDBRANCH   6   7
ENDBRANCH   5   6
ENDBRANCH   3   4
TORSDOF 14
ENDMDL
MODEL 2
REMARK VINA RESULT: -8.600270485      1.370      2.038
REMARK  14 active torsions:
REMARK  status: ('A' for Active; 'I' for Inactive)
REMARK    1  A    between atoms: C3_3  and  C4_4 
REMARK    2  A    between atoms: C5_5  and  C6_6 
REMARK    3  A    between atoms: C6_6  and  N1_7 
REMARK    4  A    between atoms: N1_7  and  C7_8 
REMARK       I    between atoms: N1_7  and  C9_10 
REMARK    5  A    between atoms: C9_10  and  C10_12 
REMARK    6  A    between atoms: C10_12  and  C11_13 
REMARK    7  A    between atoms: C10_12  and  N5_41 
REMARK    8  A    between atoms: C11_13  and  C12_14 
REMARK    9  A    between atoms: C15_17  and  C16_18 
REMARK   10  A    between atoms: C15_17  and  C17_21 
REMARK       I    between atoms: C17_21  and  N2_23 
REMARK   11  A    between atoms: N3_28  and  C22_29 
REMARK   12  A    between atoms: C22_29  and  C23_30 
REMARK       I    between atoms: C23_30  and  N4_32 
REMARK       I    between atoms: N5_41  and  C31_43 
REMARK   13  A    between atoms: C31_43  and  C32_45 
REMARK   14  A    between atoms: C32_45  and  N6_47 
ROOT
HETATM    1  C1  UNL     1      -0.521 -13.939 -20.983  1.00  0.00     0.113 C 
HETATM    2  C2  UNL     1       0.626 -14.861 -21.038  1.00  0.00    -0.097 C 
HETATM    3  C3  UNL     1       1.554 -15.630 -21.100  1.00  0.00    -0.015 C 
ENDROOT
BRANCH   3   4
HETATM    4  C4  UNL     1       2.640 -16.555 -21.195  1.00  0.00    -0.013 C 
HETATM    5  C5  UNL     1       3.540 -17.354 -21.268  1.00  0.00    -0.073 C 
BRANCH   5   6
HETATM    6  C6  UNL     1       4.608 -18.347 -21.360  1.00  0.00     0.221 C 
BRANCH   6   7
HETATM    7  N1  UNL     1       5.402 -18.242 -20.137  1.00  0.00    -0.340 N 
HETATM    8  C9  UNL     1       6.776 -17.978 -20.266  1.00  0.00     0.243 C 
HETATM    9  O1  UNL     1       7.242 -17.890 -21.458  1.00  0.00    -0.271 OA
BRANCH   7  10
HETATM   10  C7  UNL     1       4.715 -18.446 -18.893  1.00  0.00     0.122 C 
HETATM   11  C8  UNL     1       3.917 -19.751 -18.908  1.00  0.00     0.026 C 
ENDBRANCH   7  10
BRANCH   8  12
HETATM   12  C10 UNL     1       7.747 -17.790 -19.197  1.00  0.00     0.177 C 
BRANCH  12  13
HETATM   13  C11 UNL     1       8.706 -18.907 -19.008  1.00  0.00     0.049 C 
BRANCH  13  14
HETATM   14  C12 UNL     1       9.240 -19.210 -17.665  1.00  0.00     0.080 C 
HETATM   15  C13 UNL     1      10.141 -18.205 -17.020  1.00  0.00     0.017 C 
HETATM   16  C14 UNL     1      11.532 -18.449 -17.559  1.00  0.00     0.054 C 
HETATM   17  C15 UNL     1      12.076 -19.705 -16.912  1.00  0.00     0.205 C 
HETATM   18  N3  UNL     1      11.301 -20.787 -17.554  1.00  0.00    -0.316 N 
HETATM   19  C30 UNL     1       9.924 -20.545 -17.780  1.00  0.00     0.226 C 
HETATM   20  O6  UNL     1       9.138 -21.498 -18.111  1.00  0.00    -0.273 OA
BRANCH  17  21
HETATM   21  C16 UNL     1      13.522 -19.798 -17.162  1.00  0.00     0.212 C 
HETATM   22  O2  UNL     1      13.994 -19.341 -18.268  1.00  0.00    -0.646 OA
HETATM   23  O3  UNL     1      14.491 -20.326 -16.344  1.00  0.00    -0.646 OA
ENDBRANCH  17  21
BRANCH  17  24
HETATM   24  C17 UNL     1      11.819 -19.782 -15.453  1.00  0.00     0.259 C 
HETATM   25  O4  UNL     1      11.594 -20.957 -14.975  1.00  0.00    -0.270 OA
HETATM   26  N2  UNL     1      11.807 -18.692 -14.565  1.00  0.00    -0.349 N 
HETATM   27  C18 UNL     1      11.970 -17.275 -14.714  1.00  0.00     0.126 C 
HETATM   28  C21 UNL     1      11.617 -18.909 -13.102  1.00  0.00     0.126 C 
HETATM   29  C19 UNL     1      11.164 -16.605 -13.589  1.00  0.00     0.021 C 
HETATM   30  C20 UNL     1      11.341 -17.591 -12.487  1.00  0.00     0.021 C 
ENDBRANCH  17  24
BRANCH  18  31
HETATM   31  C22 UNL     1      11.806 -22.066 -17.947  1.00  0.00     0.230 C 
BRANCH  31  32
HETATM   32  C23 UNL     1      12.139 -22.143 -19.399  1.00  0.00     0.237 C 
HETATM   33  O5  UNL     1      11.264 -21.900 -20.263  1.00  0.00    -0.272 OA
HETATM   34  N4  UNL     1      13.444 -22.490 -19.780  1.00  0.00    -0.351 N 
HETATM   35  C24 UNL     1      13.650 -22.517 -21.231  1.00  0.00     0.126 C 
HETATM   36  C29 UNL     1      14.460 -22.789 -18.805  1.00  0.00     0.126 C 
HETATM   37  C25 UNL     1      14.794 -23.426 -21.600  1.00  0.00     0.020 C 
HETATM   38  C26 UNL     1      14.563 -24.822 -21.037  1.00  0.00     0.002 C 
HETATM   39  C27 UNL     1      15.312 -24.938 -19.742  1.00  0.00     0.002 C 
HETATM   40  C28 UNL     1      14.522 -24.308 -18.618  1.00  0.00     0.020 C 
ENDBRANCH  31  32
ENDBRANCH  18  31
ENDBRANCH  13  14
ENDBRANCH  12  13
BRANCH  12  41
HETATM   41  N5  UNL     1       7.163 -17.304 -17.969  1.00  0.00    -0.346 N 
HETATM   42  C31 UNL     1       7.151 -15.902 -17.634  1.00  0.00     0.240 C 
HETATM   43  O7  UNL     1       7.660 -15.099 -18.439  1.00  0.00    -0.271 OA
ATOM     44  H5  UNL     1       6.746 -17.971 -17.320  1.00  0.00     0.163 HD
BRANCH  42  45
HETATM   45  C32 UNL     1       6.553 -15.419 -16.372  1.00  0.00     0.165 C 
HETATM   46  C33 UNL     1       6.327 -16.499 -15.353  1.00  0.00     0.042 C 
BRANCH  45  47
HETATM   47  N6  UNL     1       5.391 -14.624 -16.579  1.00  0.00    -0.414 N 
HETATM   48  C34 UNL     1       4.888 -13.913 -15.455  1.00  0.00     0.140 C 
ATOM     49  H6  UNL     1       4.939 -14.567 -17.491  1.00  0.00     0.153 HD
ENDBRANCH  45  47
ENDBRANCH  42  45
ENDBRANCH  12  41
ENDBRANCH   8  12
ENDBRANCH   6   7
ENDBRANCH   5   6
ENDBRANCH   3   4
TORSDOF 14
ENDMDL
MODEL 3
REMARK VINA RESULT: -8.495037097      3.063     10.158
REMARK  14 active torsions:
REMARK  status: ('A' for Active; 'I' for Inactive)
REMARK    1  A    between atoms: C3_3  and  C4_4 
REMARK    2  A    between atoms: C5_5  and  C6_6 
REMARK    3  A    between atoms: C6_6  and  N1_7 
REMARK    4  A    between atoms: N1_7  and  C7_8 
REMARK       I    between atoms: N1_7  and  C9_10 
REMARK    5  A    between atoms: C9_10  and  C10_12 
REMARK    6  A    between atoms: C10_12  and  C11_13 
REMARK    7  A    between atoms: C10_12  and  N5_41 
REMARK    8  A    between atoms: C11_13  and  C12_14 
REMARK    9  A    between atoms: C15_17  and  C16_18 
REMARK   10  A    between atoms: C15_17  and  C17_21 
REMARK       I    between atoms: C17_21  and  N2_23 
REMARK   11  A    between atoms: N3_28  and  C22_29 
REMARK   12  A    between atoms: C22_29  and  C23_30 
REMARK       I    between atoms: C23_30  and  N4_32 
REMARK       I    between atoms: N5_41  and  C31_43 
REMARK   13  A    between atoms: C31_43  and  C32_45 
REMARK   14  A    between atoms: C32_45  and  N6_47 
ROOT
HETATM    1  C1  UNL     1      15.420 -20.500 -15.472  1.00  0.00     0.113 C 
HETATM    2  C2  UNL     1      14.218 -19.850 -14.922  1.00  0.00    -0.097 C 
HETATM    3  C3  UNL     1      13.219 -19.329 -14.490  1.00  0.00    -0.015 C 
ENDROOT
BRANCH   3   4
HETATM    4  C4  UNL     1      12.020 -18.728 -13.994  1.00  0.00    -0.013 C 
HETATM    5  C5  UNL     1      10.997 -18.226 -13.599  1.00  0.00    -0.073 C 
BRANCH   5   6
HETATM    6  C6  UNL     1       9.742 -17.632 -13.145  1.00  0.00     0.221 C 
BRANCH   6   7
HETATM    7  N1  UNL     1       9.136 -16.966 -14.296  1.00  0.00    -0.340 N 
HETATM    8  C9  UNL     1       8.439 -17.759 -15.222  1.00  0.00     0.243 C 
HETATM    9  O1  UNL     1       8.422 -19.024 -15.009  1.00  0.00    -0.271 OA
BRANCH   7  10
HETATM   10  C7  UNL     1       9.326 -15.547 -14.405  1.00  0.00     0.122 C 
HETATM   11  C8  UNL     1       8.067 -14.786 -13.989  1.00  0.00     0.026 C 
ENDBRANCH   7  10
BRANCH   8  12
HETATM   12  C10 UNL     1       7.724 -17.314 -16.410  1.00  0.00     0.177 C 
BRANCH  12  13
HETATM   13  C11 UNL     1       6.253 -17.190 -16.256  1.00  0.00     0.049 C 
BRANCH  13  14
HETATM   14  C12 UNL     1       5.514 -16.141 -16.986  1.00  0.00     0.080 C 
HETATM   15  C13 UNL     1       4.476 -15.361 -16.244  1.00  0.00     0.017 C 
HETATM   16  C14 UNL     1       3.206 -16.182 -16.267  1.00  0.00     0.054 C 
HETATM   17  C15 UNL     1       2.615 -16.099 -17.658  1.00  0.00     0.205 C 
HETATM   18  N3  UNL     1       3.533 -16.924 -18.472  1.00  0.00    -0.316 N 
HETATM   19  C30 UNL     1       4.917 -16.814 -18.191  1.00  0.00     0.226 C 
HETATM   20  O6  UNL     1       5.786 -17.306 -18.990  1.00  0.00    -0.273 OA
BRANCH  17  21
HETATM   21  C16 UNL     1       1.237 -16.611 -17.636  1.00  0.00     0.212 C 
HETATM   22  O2  UNL     1       0.877 -17.388 -16.676  1.00  0.00    -0.646 OA
HETATM   23  O3  UNL     1       0.228 -16.366 -18.534  1.00  0.00    -0.646 OA
ENDBRANCH  17  21
BRANCH  17  24
HETATM   24  C17 UNL     1       2.626 -14.730 -18.229  1.00  0.00     0.259 C 
HETATM   25  O4  UNL     1       3.208 -14.593 -19.370  1.00  0.00    -0.270 OA
HETATM   26  N2  UNL     1       2.057 -13.590 -17.634  1.00  0.00    -0.349 N 
HETATM   27  C18 UNL     1       1.380 -13.338 -16.396  1.00  0.00     0.126 C 
HETATM   28  C21 UNL     1       2.061 -12.282 -18.348  1.00  0.00     0.126 C 
HETATM   29  C19 UNL     1       1.652 -11.871 -16.021  1.00  0.00     0.021 C 
HETATM   30  C20 UNL     1       1.689 -11.237 -17.368  1.00  0.00     0.021 C 
ENDBRANCH  17  24
BRANCH  18  31
HETATM   31  C22 UNL     1       3.156 -17.805 -19.534  1.00  0.00     0.230 C 
BRANCH  31  32
HETATM   32  C23 UNL     1       2.743 -19.156 -19.054  1.00  0.00     0.237 C 
HETATM   33  O5  UNL     1       3.214 -19.621 -17.989  1.00  0.00    -0.272 OA
HETATM   34  N4  UNL     1       1.822 -19.896 -19.811  1.00  0.00    -0.351 N 
HETATM   35  C24 UNL     1       1.487 -21.199 -19.230  1.00  0.00     0.126 C 
HETATM   36  C29 UNL     1       1.282 -19.389 -21.046  1.00  0.00     0.126 C 
HETATM   37  C25 UNL     1       1.015 -22.161 -20.289  1.00  0.00     0.020 C 
HETATM   38  C26 UNL     1       2.058 -22.287 -21.391  1.00  0.00     0.002 C 
HETATM   39  C27 UNL     1       1.674 -21.368 -22.513  1.00  0.00     0.002 C 
HETATM   40  C28 UNL     1       2.107 -19.953 -22.206  1.00  0.00     0.020 C 
ENDBRANCH  31  32
ENDBRANCH  18  31
ENDBRANCH  13  14
ENDBRANCH  12  13
BRANCH  12  41
HETATM   41  N5  UNL     1       8.133 -17.994 -17.616  1.00  0.00    -0.346 N 
HETATM   42  C31 UNL     1       9.467 -17.869 -18.147  1.00  0.00     0.240 C 
HETATM   43  O7  UNL     1      10.281 -17.151 -17.534  1.00  0.00    -0.271 OA
ATOM     44  H5  UNL     1       7.459 -18.581 -18.107  1.00  0.00     0.163 HD
BRANCH  42  45
HETATM   45  C32 UNL     1       9.871 -18.568 -19.385  1.00  0.00     0.165 C 
HETATM   46  C33 UNL     1       8.995 -18.267 -20.567  1.00  0.00     0.042 C 
BRANCH  45  47
HETATM   47  N6  UNL     1      10.055 -19.967 -19.195  1.00  0.00    -0.414 N 
HETATM   48  C34 UNL     1      11.388 -20.457 -19.271  1.00  0.00     0.140 C 
ATOM     49  H6  UNL     1       9.268 -20.588 -19.014  1.00  0.00     0.153 HD
ENDBRANCH  45  47
ENDBRANCH  42  45
ENDBRANCH  12  41
ENDBRANCH   8  12
ENDBRANCH   6   7
ENDBRANCH   5   6
ENDBRANCH   3   4
TORSDOF 14
ENDMDL
MODEL 4
REMARK VINA RESULT: -8.458606952      1.766      3.949
REMARK  14 active torsions:
REMARK  status: ('A' for Active; 'I' for Inactive)
REMARK    1  A    between atoms: C3_3  and  C4_4 
REMARK    2  A    between atoms: C5_5  and  C6_6 
REMARK    3  A    between atoms: C6_6  and  N1_7 
REMARK    4  A    between atoms: N1_7  and  C7_8 
REMARK       I    between atoms: N1_7  and  C9_10 
REMARK    5  A    between atoms: C9_10  and  C10_12 
REMARK    6  A    between atoms: C10_12  and  C11_13 
REMARK    7  A    between atoms: C10_12  and  N5_41 
REMARK    8  A    between atoms: C11_13  and  C12_14 
REMARK    9  A    between atoms: C15_17  and  C16_18 
REMARK   10  A    between atoms: C15_17  and  C17_21 
REMARK       I    between atoms: C17_21  and  N2_23 
REMARK   11  A    between atoms: N3_28  and  C22_29 
REMARK   12  A    between atoms: C22_29  and  C23_30 
REMARK       I    between atoms: C23_30  and  N4_32 
REMARK       I    between atoms: N5_41  and  C31_43 
REMARK   13  A    between atoms: C31_43  and  C32_45 
REMARK   14  A    between atoms: C32_45  and  N6_47 
ROOT
HETATM    1  C1  UNL     1       1.180 -12.864 -15.856  1.00  0.00     0.113 C 
HETATM    2  C2  UNL     1       2.573 -13.337 -15.921  1.00  0.00    -0.097 C 
HETATM    3  C3  UNL     1       3.707 -13.748 -15.972  1.00  0.00    -0.015 C 
ENDROOT
BRANCH   3   4
HETATM    4  C4  UNL     1       5.039 -14.262 -16.034  1.00  0.00    -0.013 C 
HETATM    5  C5  UNL     1       6.154 -14.717 -16.099  1.00  0.00    -0.073 C 
BRANCH   5   6
HETATM    6  C6  UNL     1       7.496 -15.287 -16.202  1.00  0.00     0.221 C 
BRANCH   6   7
HETATM    7  N1  UNL     1       7.341 -16.699 -16.543  1.00  0.00    -0.340 N 
HETATM    8  C9  UNL     1       7.668 -17.100 -17.849  1.00  0.00     0.243 C 
HETATM    9  O1  UNL     1       8.041 -16.181 -18.663  1.00  0.00    -0.271 OA
BRANCH   7  10
HETATM   10  C7  UNL     1       6.836 -17.568 -15.517  1.00  0.00     0.122 C 
HETATM   11  C8  UNL     1       7.878 -17.794 -14.421  1.00  0.00     0.026 C 
ENDBRANCH   7  10
BRANCH   8  12
HETATM   12  C10 UNL     1       7.634 -18.449 -18.397  1.00  0.00     0.177 C 
BRANCH  12  13
HETATM   13  C11 UNL     1       8.932 -19.170 -18.388  1.00  0.00     0.049 C 
BRANCH  13  14
HETATM   14  C12 UNL     1       9.597 -19.488 -17.108  1.00  0.00     0.080 C 
HETATM   15  C13 UNL     1      10.521 -18.470 -16.520  1.00  0.00     0.017 C 
HETATM   16  C14 UNL     1      11.864 -18.654 -17.190  1.00  0.00     0.054 C 
HETATM   17  C15 UNL     1      12.504 -19.907 -16.631  1.00  0.00     0.205 C 
HETATM   18  N3  UNL     1      11.706 -20.998 -17.230  1.00  0.00    -0.316 N 
HETATM   19  C30 UNL     1      10.307 -20.796 -17.322  1.00  0.00     0.226 C 
HETATM   20  O6  UNL     1       9.524 -21.766 -17.607  1.00  0.00    -0.273 OA
BRANCH  17  21
HETATM   21  C16 UNL     1      13.923 -19.947 -17.014  1.00  0.00     0.212 C 
HETATM   22  O2  UNL     1      14.271 -19.478 -18.161  1.00  0.00    -0.646 OA
HETATM   23  O3  UNL     1      14.983 -20.432 -16.290  1.00  0.00    -0.646 OA
ENDBRANCH  17  21
BRANCH  17  24
HETATM   24  C17 UNL     1      12.385 -20.030 -15.157  1.00  0.00     0.259 C 
HETATM   25  O4  UNL     1      12.450 -21.223 -14.677  1.00  0.00    -0.270 OA
HETATM   26  N2  UNL     1      12.212 -18.961 -14.259  1.00  0.00    -0.349 N 
HETATM   27  C18 UNL     1      12.061 -17.543 -14.404  1.00  0.00     0.126 C 
HETATM   28  C21 UNL     1      12.189 -19.206 -12.788  1.00  0.00     0.126 C 
HETATM   29  C19 UNL     1      11.222 -17.052 -13.212  1.00  0.00     0.021 C 
HETATM   30  C20 UNL     1      11.690 -17.973 -12.139  1.00  0.00     0.021 C 
ENDBRANCH  17  24
BRANCH  18  31
HETATM   31  C22 UNL     1      12.212 -22.250 -17.702  1.00  0.00     0.230 C 
BRANCH  31  32
HETATM   32  C23 UNL     1      12.404 -22.282 -19.181  1.00  0.00     0.237 C 
HETATM   33  O5  UNL     1      11.442 -22.053 -19.951  1.00  0.00    -0.272 OA
HETATM   34  N4  UNL     1      13.678 -22.571 -19.696  1.00  0.00    -0.351 N 
HETATM   35  C24 UNL     1      13.742 -22.558 -21.160  1.00  0.00     0.126 C 
HETATM   36  C29 UNL     1      14.794 -22.853 -18.831  1.00  0.00     0.126 C 
HETATM   37  C25 UNL     1      14.876 -23.415 -21.661  1.00  0.00     0.020 C 
HETATM   38  C26 UNL     1      14.750 -24.831 -21.113  1.00  0.00     0.002 C 
HETATM   39  C27 UNL     1      15.625 -24.948 -19.900  1.00  0.00     0.002 C 
HETATM   40  C28 UNL     1      14.927 -24.372 -18.690  1.00  0.00     0.020 C 
ENDBRANCH  31  32
ENDBRANCH  18  31
ENDBRANCH  13  14
ENDBRANCH  12  13
BRANCH  12  41
HETATM   41  N5  UNL     1       6.919 -18.543 -19.648  1.00  0.00    -0.346 N 
HETATM   42  C31 UNL     1       5.496 -18.329 -19.730  1.00  0.00     0.240 C 
HETATM   43  O7  UNL     1       4.880 -18.050 -18.683  1.00  0.00    -0.271 OA
ATOM     44  H5  UNL     1       7.435 -18.768 -20.498  1.00  0.00     0.163 HD
BRANCH  42  45
HETATM   45  C32 UNL     1       4.776 -18.433 -21.017  1.00  0.00     0.165 C 
HETATM   46  C33 UNL     1       5.638 -18.173 -22.219  1.00  0.00     0.042 C 
BRANCH  45  47
HETATM   47  N6  UNL     1       3.575 -17.669 -21.042  1.00  0.00    -0.414 N 
HETATM   48  C34 UNL     1       3.076 -17.294 -22.320  1.00  0.00     0.140 C 
ATOM     49  H6  UNL     1       3.094 -17.402 -20.183  1.00  0.00     0.153 HD
ENDBRANCH  45  47
ENDBRANCH  42  45
ENDBRANCH  12  41
ENDBRANCH   8  12
ENDBRANCH   6   7
ENDBRANCH   5   6
ENDBRANCH   3   4
TORSDOF 14
ENDMDL
MODEL 5
REMARK VINA RESULT: -8.381829898      3.896     10.690
REMARK  14 active torsions:
REMARK  status: ('A' for Active; 'I' for Inactive)
REMARK    1  A    between atoms: C3_3  and  C4_4 
REMARK    2  A    between atoms: C5_5  and  C6_6 
REMARK    3  A    between atoms: C6_6  and  N1_7 
REMARK    4  A    between atoms: N1_7  and  C7_8 
REMARK       I    between atoms: N1_7  and  C9_10 
REMARK    5  A    between atoms: C9_10  and  C10_12 
REMARK    6  A    between atoms: C10_12  and  C11_13 
REMARK    7  A    between atoms: C10_12  and  N5_41 
REMARK    8  A    between atoms: C11_13  and  C12_14 
REMARK    9  A    between atoms: C15_17  and  C16_18 
REMARK   10  A    between atoms: C15_17  and  C17_21 
REMARK       I    between atoms: C17_21  and  N2_23 
REMARK   11  A    between atoms: N3_28  and  C22_29 
REMARK   12  A    between atoms: C22_29  and  C23_30 
REMARK       I    between atoms: C23_30  and  N4_32 
REMARK       I    between atoms: N5_41  and  C31_43 
REMARK   13  A    between atoms: C31_43  and  C32_45 
REMARK   14  A    between atoms: C32_45  and  N6_47 
ROOT
HETATM    1  C1  UNL     1      15.127 -20.063 -15.405  1.00  0.00     0.113 C 
HETATM    2  C2  UNL     1      13.823 -19.542 -14.961  1.00  0.00    -0.097 C 
HETATM    3  C3  UNL     1      12.766 -19.099 -14.583  1.00  0.00    -0.015 C 
ENDROOT
BRANCH   3   4
HETATM    4  C4  UNL     1      11.528 -18.553 -14.122  1.00  0.00    -0.013 C 
HETATM    5  C5  UNL     1      10.492 -18.094 -13.708  1.00  0.00    -0.073 C 
BRANCH   5   6
HETATM    6  C6  UNL     1       9.252 -17.532 -13.178  1.00  0.00     0.221 C 
BRANCH   6   7
HETATM    7  N1  UNL     1       8.672 -16.698 -14.228  1.00  0.00    -0.340 N 
HETATM    8  C9  UNL     1       7.710 -17.277 -15.072  1.00  0.00     0.243 C 
HETATM    9  O1  UNL     1       7.442 -18.517 -14.882  1.00  0.00    -0.271 OA
BRANCH   7  10
HETATM   10  C7  UNL     1       9.154 -15.349 -14.333  1.00  0.00     0.122 C 
HETATM   11  C8  UNL     1       8.084 -14.343 -13.908  1.00  0.00     0.026 C 
ENDBRANCH   7  10
BRANCH   8  12
HETATM   12  C10 UNL     1       6.971 -16.633 -16.149  1.00  0.00     0.177 C 
BRANCH  12  13
HETATM   13  C11 UNL     1       5.547 -16.337 -15.852  1.00  0.00     0.049 C 
BRANCH  13  14
HETATM   14  C12 UNL     1       4.970 -15.024 -16.205  1.00  0.00     0.080 C 
HETATM   15  C13 UNL     1       4.419 -14.175 -15.104  1.00  0.00     0.017 C 
HETATM   16  C14 UNL     1       3.008 -14.653 -14.842  1.00  0.00     0.054 C 
HETATM   17  C15 UNL     1       2.129 -14.171 -15.976  1.00  0.00     0.205 C 
HETATM   18  N3  UNL     1       2.538 -15.021 -17.115  1.00  0.00    -0.316 N 
HETATM   19  C30 UNL     1       3.921 -15.296 -17.247  1.00  0.00     0.226 C 
HETATM   20  O6  UNL     1       4.383 -15.821 -18.318  1.00  0.00    -0.273 OA
BRANCH  17  21
HETATM   21  C16 UNL     1       0.716 -14.337 -15.605  1.00  0.00     0.212 C 
HETATM   22  O2  UNL     1       0.398 -15.251 -14.757  1.00  0.00    -0.646 OA
HETATM   23  O3  UNL     1      -0.367 -13.621 -16.051  1.00  0.00    -0.646 OA
ENDBRANCH  17  21
BRANCH  17  24
HETATM   24  C17 UNL     1       2.377 -12.761 -16.365  1.00  0.00     0.259 C 
HETATM   25  O4  UNL     1       2.872 -11.997 -15.455  1.00  0.00    -0.270 OA
HETATM   26  N2  UNL     1       2.119 -12.204 -17.631  1.00  0.00    -0.349 N 
HETATM   27  C18 UNL     1       1.555 -12.703 -18.850  1.00  0.00     0.126 C 
HETATM   28  C21 UNL     1       2.490 -10.790 -17.924  1.00  0.00     0.126 C 
HETATM   29  C19 UNL     1       0.899 -11.511 -19.567  1.00  0.00     0.021 C 
HETATM   30  C20 UNL     1       1.826 -10.409 -19.191  1.00  0.00     0.021 C 
ENDBRANCH  17  24
BRANCH  18  31
HETATM   31  C22 UNL     1       1.670 -15.571 -18.110  1.00  0.00     0.230 C 
BRANCH  31  32
HETATM   32  C23 UNL     1       1.441 -17.035 -17.942  1.00  0.00     0.237 C 
HETATM   33  O5  UNL     1       1.417 -17.545 -16.797  1.00  0.00    -0.272 OA
HETATM   34  N4  UNL     1       1.253 -17.830 -19.082  1.00  0.00    -0.351 N 
HETATM   35  C24 UNL     1       1.023 -19.247 -18.786  1.00  0.00     0.126 C 
HETATM   36  C29 UNL     1       1.293 -17.269 -20.407  1.00  0.00     0.126 C 
HETATM   37  C25 UNL     1       1.415 -20.116 -19.953  1.00  0.00     0.020 C 
HETATM   38  C26 UNL     1       2.861 -19.849 -20.349  1.00  0.00     0.002 C 
HETATM   39  C27 UNL     1       2.866 -18.874 -21.489  1.00  0.00     0.002 C 
HETATM   40  C28 UNL     1       2.702 -17.462 -20.975  1.00  0.00     0.020 C 
ENDBRANCH  31  32
ENDBRANCH  18  31
ENDBRANCH  13  14
ENDBRANCH  12  13
BRANCH  12  41
HETATM   41  N5  UNL     1       7.188 -17.242 -17.440  1.00  0.00    -0.346 N 
HETATM   42  C31 UNL     1       7.583 -16.469 -18.590  1.00  0.00     0.240 C 
HETATM   43  O7  UNL     1       7.741 -15.241 -18.450  1.00  0.00    -0.271 OA
ATOM     44  H5  UNL     1       7.058 -18.248 -17.541  1.00  0.00     0.163 HD
BRANCH  42  45
HETATM   45  C32 UNL     1       7.797 -17.105 -19.907  1.00  0.00     0.165 C 
HETATM   46  C33 UNL     1       6.833 -18.216 -20.209  1.00  0.00     0.042 C 
BRANCH  45  47
HETATM   47  N6  UNL     1       9.150 -17.494 -20.119  1.00  0.00    -0.414 N 
HETATM   48  C34 UNL     1       9.371 -18.620 -20.960  1.00  0.00     0.140 C 
ATOM     49  H6  UNL     1       9.924 -16.990 -19.689  1.00  0.00     0.153 HD
ENDBRANCH  45  47
ENDBRANCH  42  45
ENDBRANCH  12  41
ENDBRANCH   8  12
ENDBRANCH   6   7
ENDBRANCH   5   6
ENDBRANCH   3   4
TORSDOF 14
ENDMDL
