MODEL 1
REMARK VINA RESULT: -9.917026080      0.000      0.000
REMARK  14 active torsions:
REMARK  status: ('A' for Active; 'I' for Inactive)
REMARK    1  A    between atoms: C3_3  and  N1_4 
REMARK       I    between atoms: N1_4  and  C4_6 
REMARK    2  A    between atoms: C4_6  and  C5_8 
REMARK    3  A    between atoms: C5_8  and  N2_9 
REMARK    4  A    between atoms: C5_8  and  C33_47 
REMARK       I    between atoms: N2_9  and  C6_11 
REMARK    5  A    between atoms: C6_11  and  C7_13 
REMARK       I    between atoms: N3_17  and  C11_18 
REMARK    6  A    between atoms: C11_18  and  C12_20 
REMARK       I    between atoms: N4_23  and  C15_24 
REMARK    7  A    between atoms: C15_24  and  C16_26 
REMARK    8  A    between atoms: C16_26  and  N5_27 
REMARK    9  A    between atoms: C16_26  and  C29_43 
REMARK       I    between atoms: N5_27  and  C17_29 
REMARK   10  A    between atoms: C17_29  and  C18_31 
REMARK   11  A    between atoms: C18_31  and  C19_32 
REMARK   12  A    between atoms: C19_32  and  N6_33 
REMARK   13  A    between atoms: C25_39  and  C26_40 
REMARK   14  A    between atoms: C26_40  and  C27_41 
ROOT
HETATM    1  C1  UNL     1      16.074 -24.426 -21.388  1.00  0.00     0.014 C 
HETATM    2  C2  UNL     1      15.965 -24.697 -20.230  1.00  0.00    -0.098 C 
HETATM    3  C3  UNL     1      15.805 -25.022 -18.807  1.00  0.00     0.216 C 
ENDROOT
BRANCH   3   4
HETATM    4  N1  UNL     1      15.160 -23.889 -18.139  1.00  0.00    -0.349 N 
HETATM    5  C4  UNL     1      15.907 -22.793 -17.641  1.00  0.00     0.241 C 
HETATM    6  O1  UNL     1      17.166 -22.853 -17.796  1.00  0.00    -0.271 OA
ATOM      7  H1  UNL     1      14.146 -23.889 -18.030  1.00  0.00     0.163 HD
BRANCH   5   8
HETATM    8  C5  UNL     1      15.252 -21.662 -16.983  1.00  0.00     0.184 C 
BRANCH   8   9
HETATM    9  N2  UNL     1      13.787 -21.728 -17.098  1.00  0.00    -0.345 N 
HETATM   10  C6  UNL     1      13.089 -20.977 -18.054  1.00  0.00     0.241 C 
HETATM   11  O2  UNL     1      13.769 -20.234 -18.835  1.00  0.00    -0.271 OA
ATOM     12  H2  UNL     1      13.265 -22.336 -16.465  1.00  0.00     0.163 HD
BRANCH  10  13
HETATM   13  C7  UNL     1      11.654 -20.983 -18.209  1.00  0.00     0.179 C 
HETATM   14  C8  UNL     1      11.260 -20.722 -19.675  1.00  0.00     0.037 C 
HETATM   15  C9  UNL     1       9.887 -20.118 -19.574  1.00  0.00     0.022 C 
HETATM   16  C10 UNL     1       9.540 -20.183 -18.078  1.00  0.00     0.127 C 
HETATM   17  N3  UNL     1      10.864 -20.017 -17.522  1.00  0.00    -0.338 N 
HETATM   18  C11 UNL     1      11.226 -19.142 -16.506  1.00  0.00     0.226 C 
HETATM   19  O3  UNL     1      12.451 -19.222 -16.104  1.00  0.00    -0.273 OA
BRANCH  18  20
HETATM   20  C12 UNL     1      10.422 -18.129 -15.811  1.00  0.00     0.097 C 
HETATM   21  C13 UNL     1       9.443 -18.671 -14.816  1.00  0.00     0.035 C 
HETATM   22  C14 UNL     1       8.143 -17.909 -14.979  1.00  0.00     0.127 C 
HETATM   23  N4  UNL     1       8.374 -16.904 -15.978  1.00  0.00    -0.350 N 
HETATM   24  C15 UNL     1       7.564 -15.756 -16.192  1.00  0.00     0.243 C 
HETATM   25  C32 UNL     1       9.581 -17.279 -16.721  1.00  0.00     0.139 C 
HETATM   26  O4  UNL     1       7.891 -15.012 -17.165  1.00  0.00    -0.271 OA
BRANCH  24  27
HETATM   27  C16 UNL     1       6.392 -15.371 -15.385  1.00  0.00     0.180 C 
BRANCH  27  28
HETATM   28  N5  UNL     1       5.250 -15.212 -16.309  1.00  0.00    -0.347 N 
HETATM   29  C17 UNL     1       4.312 -16.255 -16.483  1.00  0.00     0.219 C 
HETATM   30  O5  UNL     1       4.481 -17.325 -15.824  1.00  0.00    -0.274 OA
ATOM     31  H5  UNL     1       5.137 -14.340 -16.826  1.00  0.00     0.163 HD
BRANCH  29  32
HETATM   32  C18 UNL     1       3.139 -16.183 -17.388  1.00  0.00     0.130 C 
BRANCH  32  33
HETATM   33  C19 UNL     1       2.501 -17.539 -17.563  1.00  0.00     0.246 C 
BRANCH  33  34
HETATM   34  N6  UNL     1       2.213 -17.836 -18.934  1.00  0.00    -0.066 N 
HETATM   35  C20 UNL     1       0.800 -17.941 -19.233  1.00  0.00     0.273 C 
HETATM   36  C21 UNL     1       2.663 -16.649 -19.692  1.00  0.00     0.237 C 
HETATM   37  C22 UNL     1       2.776 -17.030 -21.148  1.00  0.00     0.028 C 
HETATM   38  C23 UNL     1       4.048 -17.857 -21.356  1.00  0.00     0.004 C 
HETATM   39  C24 UNL     1       4.315 -18.520 -20.022  1.00  0.00     0.034 C 
HETATM   40  C25 UNL     1       2.953 -18.925 -19.470  1.00  0.00     0.193 C 
BRANCH  40  41
HETATM   41  C26 UNL     1       3.141 -20.121 -18.605  1.00  0.00     0.059 C 
BRANCH  41  42
HETATM   42  C27 UNL     1       2.808 -21.401 -19.250  1.00  0.00    -0.035 C 
HETATM   43  C28 UNL     1       3.455 -22.503 -18.930  1.00  0.00     0.007 C 
ENDBRANCH  41  42
ENDBRANCH  40  41
ENDBRANCH  33  34
ENDBRANCH  32  33
ENDBRANCH  29  32
ENDBRANCH  27  28
BRANCH  27  44
HETATM   44  C29 UNL     1       6.653 -13.957 -14.828  1.00  0.00     0.009 C 
HETATM   45  C30 UNL     1       5.352 -13.249 -14.573  1.00  0.00     0.012 C 
HETATM   46  C31 UNL     1       7.402 -14.033 -13.502  1.00  0.00     0.012 C 
ENDBRANCH  27  44
ENDBRANCH  24  27
ENDBRANCH  18  20
ENDBRANCH  10  13
ENDBRANCH   8   9
BRANCH   8  47
HETATM   47  C33 UNL     1      15.535 -21.655 -15.488  1.00  0.00    -0.022 C 
HETATM   48  C34 UNL     1      14.271 -22.071 -14.781  1.00  0.00     0.017 C 
HETATM   49  C35 UNL     1      16.702 -22.517 -15.144  1.00  0.00     0.017 C 
HETATM   50  C36 UNL     1      15.857 -20.206 -15.108  1.00  0.00     0.017 C 
ENDBRANCH   8  47
ENDBRANCH   5   8
ENDBRANCH   3   4
TORSDOF 14
ENDMDL
MODEL 2
REMARK VINA RESULT: -9.339169236      1.716      3.707
REMARK  14 active torsions:
REMARK  status: ('A' for Active; 'I' for Inactive)
REMARK    1  A    between atoms: C3_3  and  N1_4 
REMARK       I    between atoms: N1_4  and  C4_6 
REMARK    2  A    between atoms: C4_6  and  C5_8 
REMARK    3  A    between atoms: C5_8  and  N2_9 
REMARK    4  A    between atoms: C5_8  and  C33_47 
REMARK       I    between atoms: N2_9  and  C6_11 
REMARK    5  A    between atoms: C6_11  and  C7_13 
REMARK       I    between atoms: N3_17  and  C11_18 
REMARK    6  A    between atoms: C11_18  and  C12_20 
REMARK       I    between atoms: N4_23  and  C15_24 
REMARK    7  A    between atoms: C15_24  and  C16_26 
REMARK    8  A    between atoms: C16_26  and  N5_27 
REMARK    9  A    between atoms: C16_26  and  C29_43 
REMARK       I    between atoms: N5_27  and  C17_29 
REMARK   10  A    between atoms: C17_29  and  C18_31 
REMARK   11  A    between atoms: C18_31  and  C19_32 
REMARK   12  A    between atoms: C19_32  and  N6_33 
REMARK   13  A    between atoms: C25_39  and  C26_40 
REMARK   14  A    between atoms: C26_40  and  C27_41 
ROOT
HETATM    1  C1  UNL     1       7.982 -18.451 -18.866  1.00  0.00     0.014 C 
HETATM    2  C2  UNL     1       8.843 -18.749 -19.639  1.00  0.00    -0.098 C 
HETATM    3  C3  UNL     1       9.907 -19.137 -20.573  1.00  0.00     0.216 C 
ENDROOT
BRANCH   3   4
HETATM    4  N1  UNL     1      11.096 -19.505 -19.800  1.00  0.00    -0.349 N 
HETATM    5  C4  UNL     1      11.458 -20.857 -19.587  1.00  0.00     0.241 C 
HETATM    6  O1  UNL     1      10.689 -21.733 -20.093  1.00  0.00    -0.271 OA
ATOM      7  H1  UNL     1      11.679 -18.767 -19.405  1.00  0.00     0.163 HD
BRANCH   5   8
HETATM    8  C5  UNL     1      12.652 -21.213 -18.821  1.00  0.00     0.184 C 
BRANCH   8   9
HETATM    9  N2  UNL     1      12.533 -20.839 -17.403  1.00  0.00    -0.345 N 
HETATM   10  C6  UNL     1      13.460 -19.988 -16.786  1.00  0.00     0.241 C 
HETATM   11  O2  UNL     1      14.416 -19.537 -17.499  1.00  0.00    -0.271 OA
ATOM     12  H2  UNL     1      11.755 -21.208 -16.855  1.00  0.00     0.163 HD
BRANCH  10  13
HETATM   13  C7  UNL     1      13.411 -19.595 -15.399  1.00  0.00     0.179 C 
HETATM   14  C8  UNL     1      13.215 -20.821 -14.488  1.00  0.00     0.037 C 
HETATM   15  C9  UNL     1      12.546 -20.257 -13.266  1.00  0.00     0.022 C 
HETATM   16  C10 UNL     1      12.510 -18.739 -13.505  1.00  0.00     0.127 C 
HETATM   17  N3  UNL     1      12.372 -18.731 -14.944  1.00  0.00    -0.338 N 
HETATM   18  C11 UNL     1      11.458 -17.988 -15.680  1.00  0.00     0.226 C 
HETATM   19  O3  UNL     1      11.570 -18.068 -16.964  1.00  0.00    -0.273 OA
BRANCH  18  20
HETATM   20  C12 UNL     1      10.372 -17.115 -15.216  1.00  0.00     0.097 C 
HETATM   21  C13 UNL     1       9.361 -17.778 -14.332  1.00  0.00     0.035 C 
HETATM   22  C14 UNL     1       7.987 -17.308 -14.763  1.00  0.00     0.127 C 
HETATM   23  N4  UNL     1       8.186 -16.344 -15.807  1.00  0.00    -0.350 N 
HETATM   24  C15 UNL     1       7.222 -15.399 -16.251  1.00  0.00     0.243 C 
HETATM   25  C32 UNL     1       9.550 -16.514 -16.320  1.00  0.00     0.139 C 
HETATM   26  O4  UNL     1       7.560 -14.670 -17.231  1.00  0.00    -0.271 OA
BRANCH  24  27
HETATM   27  C16 UNL     1       5.880 -15.207 -15.672  1.00  0.00     0.180 C 
BRANCH  27  28
HETATM   28  N5  UNL     1       4.912 -15.197 -16.787  1.00  0.00    -0.347 N 
HETATM   29  C17 UNL     1       3.952 -16.227 -16.921  1.00  0.00     0.219 C 
HETATM   30  O5  UNL     1       3.949 -17.154 -16.056  1.00  0.00    -0.274 OA
ATOM     31  H5  UNL     1       4.935 -14.439 -17.469  1.00  0.00     0.163 HD
BRANCH  29  32
HETATM   32  C18 UNL     1       2.946 -16.298 -18.007  1.00  0.00     0.130 C 
BRANCH  32  33
HETATM   33  C19 UNL     1       2.360 -17.683 -18.120  1.00  0.00     0.246 C 
BRANCH  33  34
HETATM   34  N6  UNL     1       2.240 -18.120 -19.478  1.00  0.00    -0.066 N 
HETATM   35  C20 UNL     1       0.888 -18.458 -19.875  1.00  0.00     0.273 C 
HETATM   36  C21 UNL     1       2.579 -16.936 -20.297  1.00  0.00     0.237 C 
HETATM   37  C22 UNL     1       2.873 -17.401 -21.704  1.00  0.00     0.028 C 
HETATM   38  C23 UNL     1       4.264 -18.040 -21.743  1.00  0.00     0.004 C 
HETATM   39  C24 UNL     1       4.505 -18.556 -20.341  1.00  0.00     0.034 C 
HETATM   40  C25 UNL     1       3.173 -19.121 -19.862  1.00  0.00     0.193 C 
BRANCH  40  41
HETATM   41  C26 UNL     1       3.455 -20.208 -18.887  1.00  0.00     0.059 C 
BRANCH  41  42
HETATM   42  C27 UNL     1       2.887 -21.517 -19.249  1.00  0.00    -0.035 C 
HETATM   43  C28 UNL     1       3.478 -22.632 -18.874  1.00  0.00     0.007 C 
ENDBRANCH  41  42
ENDBRANCH  40  41
ENDBRANCH  33  34
ENDBRANCH  32  33
ENDBRANCH  29  32
ENDBRANCH  27  28
BRANCH  27  44
HETATM   44  C29 UNL     1       5.824 -13.784 -15.083  1.00  0.00     0.009 C 
HETATM   45  C30 UNL     1       4.402 -13.394 -14.797  1.00  0.00     0.012 C 
HETATM   46  C31 UNL     1       6.593 -13.716 -13.769  1.00  0.00     0.012 C 
ENDBRANCH  27  44
ENDBRANCH  24  27
ENDBRANCH  18  20
ENDBRANCH  10  13
ENDBRANCH   8   9
BRANCH   8  47
HETATM   47  C33 UNL     1      12.877 -22.719 -18.818  1.00  0.00    -0.022 C 
HETATM   48  C34 UNL     1      11.737 -23.350 -18.062  1.00  0.00     0.017 C 
HETATM   49  C35 UNL     1      13.025 -23.256 -20.200  1.00  0.00     0.017 C 
HETATM   50  C36 UNL     1      14.177 -22.968 -18.045  1.00  0.00     0.017 C 
ENDBRANCH   8  47
ENDBRANCH   5   8
ENDBRANCH   3   4
TORSDOF 14
ENDMDL
MODEL 3
REMARK VINA RESULT: -9.263658661      1.591      3.659
REMARK  14 active torsions:
REMARK  status: ('A' for Active; 'I' for Inactive)
REMARK    1  A    between atoms: C3_3  and  N1_4 
REMARK       I    between atoms: N1_4  and  C4_6 
REMARK    2  A    between atoms: C4_6  and  C5_8 
REMARK    3  A    between atoms: C5_8  and  N2_9 
REMARK    4  A    between atoms: C5_8  and  C33_47 
REMARK       I    between atoms: N2_9  and  C6_11 
REMARK    5  A    between atoms: C6_11  and  C7_13 
REMARK       I    between atoms: N3_17  and  C11_18 
REMARK    6  A    between atoms: C11_18  and  C12_20 
REMARK       I    between atoms: N4_23  and  C15_24 
REMARK    7  A    between atoms: C15_24  and  C16_26 
REMARK    8  A    between atoms: C16_26  and  N5_27 
REMARK    9  A    between atoms: C16_26  and  C29_43 
REMARK       I    between atoms: N5_27  and  C17_29 
REMARK   10  A    between atoms: C17_29  and  C18_31 
REMARK   11  A    between atoms: C18_31  and  C19_32 
REMARK   12  A    between atoms: C19_32  and  N6_33 
REMARK   13  A    between atoms: C25_39  and  C26_40 
REMARK   14  A    between atoms: C26_40  and  C27_41 
ROOT
HETATM    1  C1  UNL     1       9.089 -20.026 -18.503  1.00  0.00     0.014 C 
HETATM    2  C2  UNL     1       9.660 -20.943 -19.013  1.00  0.00    -0.098 C 
HETATM    3  C3  UNL     1      10.369 -22.079 -19.616  1.00  0.00     0.216 C 
ENDROOT
BRANCH   3   4
HETATM    4  N1  UNL     1      11.712 -22.151 -19.036  1.00  0.00    -0.349 N 
HETATM    5  C4  UNL     1      12.846 -22.480 -19.820  1.00  0.00     0.241 C 
HETATM    6  O1  UNL     1      12.631 -22.720 -21.048  1.00  0.00    -0.271 OA
ATOM      7  H1  UNL     1      11.835 -21.958 -18.042  1.00  0.00     0.163 HD
BRANCH   5   8
HETATM    8  C5  UNL     1      14.185 -22.540 -19.233  1.00  0.00     0.184 C 
BRANCH   8   9
HETATM    9  N2  UNL     1      14.174 -22.224 -17.796  1.00  0.00    -0.345 N 
HETATM   10  C6  UNL     1      14.397 -20.922 -17.327  1.00  0.00     0.241 C 
HETATM   11  O2  UNL     1      14.604 -20.008 -18.191  1.00  0.00    -0.271 OA
ATOM     12  H2  UNL     1      14.000 -22.972 -17.124  1.00  0.00     0.163 HD
BRANCH  10  13
HETATM   13  C7  UNL     1      14.416 -20.548 -15.933  1.00  0.00     0.179 C 
HETATM   14  C8  UNL     1      14.134 -21.767 -15.035  1.00  0.00     0.037 C 
HETATM   15  C9  UNL     1      13.547 -21.166 -13.788  1.00  0.00     0.022 C 
HETATM   16  C10 UNL     1      13.640 -19.647 -14.006  1.00  0.00     0.127 C 
HETATM   17  N3  UNL     1      13.469 -19.604 -15.441  1.00  0.00    -0.338 N 
HETATM   18  C11 UNL     1      12.607 -18.771 -16.142  1.00  0.00     0.226 C 
HETATM   19  O3  UNL     1      12.680 -18.840 -17.430  1.00  0.00    -0.273 OA
BRANCH  18  20
HETATM   20  C12 UNL     1      11.614 -17.814 -15.639  1.00  0.00     0.097 C 
HETATM   21  C13 UNL     1      10.766 -18.315 -14.511  1.00  0.00     0.035 C 
HETATM   22  C14 UNL     1       9.339 -17.879 -14.772  1.00  0.00     0.127 C 
HETATM   23  N4  UNL     1       9.359 -17.084 -15.967  1.00  0.00    -0.350 N 
HETATM   24  C15 UNL     1       8.333 -16.191 -16.379  1.00  0.00     0.243 C 
HETATM   25  C32 UNL     1      10.617 -17.361 -16.668  1.00  0.00     0.139 C 
HETATM   26  O4  UNL     1       8.501 -15.622 -17.500  1.00  0.00    -0.271 OA
BRANCH  24  27
HETATM   27  C16 UNL     1       7.108 -15.884 -15.620  1.00  0.00     0.180 C 
BRANCH  27  28
HETATM   28  N5  UNL     1       6.006 -15.742 -16.593  1.00  0.00    -0.347 N 
HETATM   29  C17 UNL     1       4.816 -16.493 -16.452  1.00  0.00     0.219 C 
HETATM   30  O5  UNL     1       4.726 -17.286 -15.466  1.00  0.00    -0.274 OA
ATOM     31  H5  UNL     1       6.104 -15.096 -17.376  1.00  0.00     0.163 HD
BRANCH  29  32
HETATM   32  C18 UNL     1       3.662 -16.416 -17.379  1.00  0.00     0.130 C 
BRANCH  32  33
HETATM   33  C19 UNL     1       4.099 -16.607 -18.811  1.00  0.00     0.246 C 
BRANCH  33  34
HETATM   34  N6  UNL     1       3.719 -17.885 -19.334  1.00  0.00    -0.066 N 
HETATM   35  C20 UNL     1       3.274 -18.828 -18.328  1.00  0.00     0.273 C 
HETATM   36  C21 UNL     1       2.517 -17.627 -20.155  1.00  0.00     0.237 C 
HETATM   37  C22 UNL     1       2.293 -18.817 -21.056  1.00  0.00     0.028 C 
HETATM   38  C23 UNL     1       3.300 -18.774 -22.209  1.00  0.00     0.004 C 
HETATM   39  C24 UNL     1       4.490 -18.011 -21.669  1.00  0.00     0.034 C 
HETATM   40  C25 UNL     1       4.664 -18.463 -20.225  1.00  0.00     0.193 C 
BRANCH  40  41
HETATM   41  C26 UNL     1       6.104 -18.344 -19.871  1.00  0.00     0.059 C 
BRANCH  41  42
HETATM   42  C27 UNL     1       6.988 -18.022 -21.004  1.00  0.00    -0.035 C 
HETATM   43  C28 UNL     1       8.136 -17.408 -20.807  1.00  0.00     0.007 C 
ENDBRANCH  41  42
ENDBRANCH  40  41
ENDBRANCH  33  34
ENDBRANCH  32  33
ENDBRANCH  29  32
ENDBRANCH  27  28
BRANCH  27  44
HETATM   44  C29 UNL     1       7.279 -14.480 -15.005  1.00  0.00     0.009 C 
HETATM   45  C30 UNL     1       5.951 -13.783 -14.923  1.00  0.00     0.012 C 
HETATM   46  C31 UNL     1       7.835 -14.579 -13.589  1.00  0.00     0.012 C 
ENDBRANCH  27  44
ENDBRANCH  24  27
ENDBRANCH  18  20
ENDBRANCH  10  13
ENDBRANCH   8   9
BRANCH   8  47
HETATM   47  C33 UNL     1      14.766 -23.943 -19.328  1.00  0.00    -0.022 C 
HETATM   48  C34 UNL     1      13.756 -24.897 -18.745  1.00  0.00     0.017 C 
HETATM   49  C35 UNL     1      15.149 -24.287 -20.727  1.00  0.00     0.017 C 
HETATM   50  C36 UNL     1      16.022 -23.961 -18.450  1.00  0.00     0.017 C 
ENDBRANCH   8  47
ENDBRANCH   5   8
ENDBRANCH   3   4
TORSDOF 14
ENDMDL
MODEL 4
REMARK VINA RESULT: -9.212223152      2.259     10.979
REMARK  14 active torsions:
REMARK  status: ('A' for Active; 'I' for Inactive)
REMARK    1  A    between atoms: C3_3  and  N1_4 
REMARK       I    between atoms: N1_4  and  C4_6 
REMARK    2  A    between atoms: C4_6  and  C5_8 
REMARK    3  A    between atoms: C5_8  and  N2_9 
REMARK    4  A    between atoms: C5_8  and  C33_47 
REMARK       I    between atoms: N2_9  and  C6_11 
REMARK    5  A    between atoms: C6_11  and  C7_13 
REMARK       I    between atoms: N3_17  and  C11_18 
REMARK    6  A    between atoms: C11_18  and  C12_20 
REMARK       I    between atoms: N4_23  and  C15_24 
REMARK    7  A    between atoms: C15_24  and  C16_26 
REMARK    8  A    between atoms: C16_26  and  N5_27 
REMARK    9  A    between atoms: C16_26  and  C29_43 
REMARK       I    between atoms: N5_27  and  C17_29 
REMARK   10  A    between atoms: C17_29  and  C18_31 
REMARK   11  A    between atoms: C18_31  and  C19_32 
REMARK   12  A    between atoms: C19_32  and  N6_33 
REMARK   13  A    between atoms: C25_39  and  C26_40 
REMARK   14  A    between atoms: C26_40  and  C27_41 
ROOT
HETATM    1  C1  UNL     1       7.289 -17.817 -19.245  1.00  0.00     0.014 C 
HETATM    2  C2  UNL     1       6.125 -18.080 -19.283  1.00  0.00    -0.098 C 
HETATM    3  C3  UNL     1       4.689 -18.383 -19.346  1.00  0.00     0.216 C 
ENDROOT
BRANCH   3   4
HETATM    4  N1  UNL     1       3.941 -17.143 -19.124  1.00  0.00    -0.349 N 
HETATM    5  C4  UNL     1       2.531 -17.092 -19.242  1.00  0.00     0.241 C 
HETATM    6  O1  UNL     1       1.952 -18.176 -19.561  1.00  0.00    -0.271 OA
ATOM      7  H1  UNL     1       4.450 -16.293 -18.877  1.00  0.00     0.163 HD
BRANCH   5   8
HETATM    8  C5  UNL     1       1.793 -15.849 -19.009  1.00  0.00     0.184 C 
BRANCH   8   9
HETATM    9  N2  UNL     1       2.507 -14.943 -18.096  1.00  0.00    -0.345 N 
HETATM   10  C6  UNL     1       2.172 -14.853 -16.738  1.00  0.00     0.241 C 
HETATM   11  O2  UNL     1       1.226 -15.593 -16.311  1.00  0.00    -0.271 OA
ATOM     12  H2  UNL     1       3.265 -14.366 -18.461  1.00  0.00     0.163 HD
BRANCH  10  13
HETATM   13  C7  UNL     1       2.820 -13.976 -15.794  1.00  0.00     0.179 C 
HETATM   14  C8  UNL     1       2.908 -12.542 -16.349  1.00  0.00     0.037 C 
HETATM   15  C9  UNL     1       4.101 -11.957 -15.645  1.00  0.00     0.022 C 
HETATM   16  C10 UNL     1       4.541 -13.047 -14.653  1.00  0.00     0.127 C 
HETATM   17  N3  UNL     1       4.171 -14.220 -15.412  1.00  0.00    -0.338 N 
HETATM   18  C11 UNL     1       4.965 -15.336 -15.642  1.00  0.00     0.226 C 
HETATM   19  O3  UNL     1       4.399 -16.309 -16.275  1.00  0.00    -0.273 OA
BRANCH  18  20
HETATM   20  C12 UNL     1       6.364 -15.582 -15.272  1.00  0.00     0.097 C 
HETATM   21  C13 UNL     1       7.377 -14.885 -16.126  1.00  0.00     0.035 C 
HETATM   22  C14 UNL     1       8.498 -15.863 -16.412  1.00  0.00     0.127 C 
HETATM   23  N4  UNL     1       8.195 -17.064 -15.688  1.00  0.00    -0.350 N 
HETATM   24  C15 UNL     1       9.123 -18.096 -15.381  1.00  0.00     0.243 C 
HETATM   25  C32 UNL     1       6.773 -17.027 -15.331  1.00  0.00     0.139 C 
HETATM   26  O4  UNL     1       8.654 -19.114 -14.787  1.00  0.00    -0.271 OA
BRANCH  24  27
HETATM   27  C16 UNL     1      10.563 -18.077 -15.696  1.00  0.00     0.180 C 
BRANCH  27  28
HETATM   28  N5  UNL     1      10.839 -19.225 -16.583  1.00  0.00    -0.347 N 
HETATM   29  C17 UNL     1      10.994 -19.041 -17.976  1.00  0.00     0.219 C 
HETATM   30  O5  UNL     1      10.891 -17.864 -18.437  1.00  0.00    -0.274 OA
ATOM     31  H5  UNL     1      10.919 -20.161 -16.186  1.00  0.00     0.163 HD
BRANCH  29  32
HETATM   32  C18 UNL     1      11.271 -20.134 -18.939  1.00  0.00     0.130 C 
BRANCH  32  33
HETATM   33  C19 UNL     1      12.705 -20.593 -18.846  1.00  0.00     0.246 C 
BRANCH  33  34
HETATM   34  N6  UNL     1      12.820 -22.016 -18.742  1.00  0.00    -0.066 N 
HETATM   35  C20 UNL     1      11.558 -22.721 -18.838  1.00  0.00     0.273 C 
HETATM   36  C21 UNL     1      13.569 -22.434 -19.947  1.00  0.00     0.237 C 
HETATM   37  C22 UNL     1      14.084 -23.836 -19.723  1.00  0.00     0.028 C 
HETATM   38  C23 UNL     1      15.290 -23.785 -18.781  1.00  0.00     0.004 C 
HETATM   39  C24 UNL     1      15.091 -22.540 -17.945  1.00  0.00     0.034 C 
HETATM   40  C25 UNL     1      13.599 -22.467 -17.642  1.00  0.00     0.193 C 
BRANCH  40  41
HETATM   41  C26 UNL     1      13.424 -21.765 -16.342  1.00  0.00     0.059 C 
BRANCH  41  42
HETATM   42  C27 UNL     1      14.465 -22.057 -15.344  1.00  0.00    -0.035 C 
HETATM   43  C28 UNL     1      14.176 -22.083 -14.059  1.00  0.00     0.007 C 
ENDBRANCH  41  42
ENDBRANCH  40  41
ENDBRANCH  33  34
ENDBRANCH  32  33
ENDBRANCH  29  32
ENDBRANCH  27  28
BRANCH  27  44
HETATM   44  C29 UNL     1      11.330 -18.385 -14.395  1.00  0.00     0.009 C 
HETATM   45  C30 UNL     1      12.788 -18.596 -14.687  1.00  0.00     0.012 C 
HETATM   46  C31 UNL     1      11.222 -17.219 -13.419  1.00  0.00     0.012 C 
ENDBRANCH  27  44
ENDBRANCH  24  27
ENDBRANCH  18  20
ENDBRANCH  10  13
ENDBRANCH   8   9
BRANCH   8  47
HETATM   47  C33 UNL     1       1.620 -15.060 -20.299  1.00  0.00    -0.022 C 
HETATM   48  C34 UNL     1       2.320 -13.737 -20.123  1.00  0.00     0.017 C 
HETATM   49  C35 UNL     1       2.113 -15.823 -21.481  1.00  0.00     0.017 C 
HETATM   50  C36 UNL     1       0.118 -14.805 -20.462  1.00  0.00     0.017 C 
ENDBRANCH   8  47
ENDBRANCH   5   8
ENDBRANCH   3   4
TORSDOF 14
ENDMDL
MODEL 5
REMARK VINA RESULT: -9.151122192      1.318      3.312
REMARK  14 active torsions:
REMARK  status: ('A' for Active; 'I' for Inactive)
REMARK    1  A    between atoms: C3_3  and  N1_4 
REMARK       I    between atoms: N1_4  and  C4_6 
REMARK    2  A    between atoms: C4_6  and  C5_8 
REMARK    3  A    between atoms: C5_8  and  N2_9 
REMARK    4  A    between atoms: C5_8  and  C33_47 
REMARK       I    between atoms: N2_9  and  C6_11 
REMARK    5  A    between atoms: C6_11  and  C7_13 
REMARK       I    between atoms: N3_17  and  C11_18 
REMARK    6  A    between atoms: C11_18  and  C12_20 
REMARK       I    between atoms: N4_23  and  C15_24 
REMARK    7  A    between atoms: C15_24  and  C16_26 
REMARK    8  A    between atoms: C16_26  and  N5_27 
REMARK    9  A    between atoms: C16_26  and  C29_43 
REMARK       I    between atoms: N5_27  and  C17_29 
REMARK   10  A    between atoms: C17_29  and  C18_31 
REMARK   11  A    between atoms: C18_31  and  C19_32 
REMARK   12  A    between atoms: C19_32  and  N6_33 
REMARK   13  A    between atoms: C25_39  and  C26_40 
REMARK   14  A    between atoms: C26_40  and  C27_41 
ROOT
HETATM    1  C1  UNL     1       9.029 -19.776 -18.668  1.00  0.00     0.014 C 
HETATM    2  C2  UNL     1       9.575 -20.757 -19.076  1.00  0.00    -0.098 C 
HETATM    3  C3  UNL     1      10.253 -21.969 -19.552  1.00  0.00     0.216 C 
ENDROOT
BRANCH   3   4
HETATM    4  N1  UNL     1      11.576 -22.040 -18.928  1.00  0.00    -0.349 N 
HETATM    5  C4  UNL     1      12.736 -22.367 -19.673  1.00  0.00     0.241 C 
HETATM    6  O1  UNL     1      12.563 -22.606 -20.908  1.00  0.00    -0.271 OA
ATOM      7  H1  UNL     1      11.665 -21.848 -17.930  1.00  0.00     0.163 HD
BRANCH   5   8
HETATM    8  C5  UNL     1      14.054 -22.426 -19.041  1.00  0.00     0.184 C 
BRANCH   8   9
HETATM    9  N2  UNL     1      13.992 -22.134 -17.600  1.00  0.00    -0.345 N 
HETATM   10  C6  UNL     1      14.259 -20.853 -17.097  1.00  0.00     0.241 C 
HETATM   11  O2  UNL     1      14.554 -19.937 -17.933  1.00  0.00    -0.271 OA
ATOM     12  H2  UNL     1      13.747 -22.882 -16.952  1.00  0.00     0.163 HD
BRANCH  10  13
HETATM   13  C7  UNL     1      14.231 -20.504 -15.697  1.00  0.00     0.179 C 
HETATM   14  C8  UNL     1      13.955 -21.745 -14.828  1.00  0.00     0.037 C 
HETATM   15  C9  UNL     1      13.319 -21.180 -13.588  1.00  0.00     0.022 C 
HETATM   16  C10 UNL     1      13.382 -19.656 -13.777  1.00  0.00     0.127 C 
HETATM   17  N3  UNL     1      13.249 -19.591 -15.215  1.00  0.00    -0.338 N 
HETATM   18  C11 UNL     1      12.386 -18.767 -15.926  1.00  0.00     0.226 C 
HETATM   19  O3  UNL     1      12.496 -18.811 -17.212  1.00  0.00    -0.273 OA
BRANCH  18  20
HETATM   20  C12 UNL     1      11.357 -17.842 -15.434  1.00  0.00     0.097 C 
HETATM   21  C13 UNL     1      10.390 -18.434 -14.455  1.00  0.00     0.035 C 
HETATM   22  C14 UNL     1       9.003 -17.944 -14.816  1.00  0.00     0.127 C 
HETATM   23  N4  UNL     1       9.157 -17.035 -15.916  1.00  0.00    -0.350 N 
HETATM   24  C15 UNL     1       8.190 -16.084 -16.341  1.00  0.00     0.243 C 
HETATM   25  C32 UNL     1      10.478 -17.269 -16.509  1.00  0.00     0.139 C 
HETATM   26  O4  UNL     1       8.481 -15.411 -17.375  1.00  0.00    -0.271 OA
BRANCH  24  27
HETATM   27  C16 UNL     1       6.896 -15.827 -15.684  1.00  0.00     0.180 C 
BRANCH  27  28
HETATM   28  N5  UNL     1       5.880 -15.677 -16.747  1.00  0.00    -0.347 N 
HETATM   29  C17 UNL     1       4.693 -16.444 -16.726  1.00  0.00     0.219 C 
HETATM   30  O5  UNL     1       4.528 -17.259 -15.768  1.00  0.00    -0.274 OA
ATOM     31  H5  UNL     1       6.038 -15.013 -17.505  1.00  0.00     0.163 HD
BRANCH  29  32
HETATM   32  C18 UNL     1       3.624 -16.360 -17.749  1.00  0.00     0.130 C 
BRANCH  32  33
HETATM   33  C19 UNL     1       2.769 -17.603 -17.749  1.00  0.00     0.246 C 
BRANCH  33  34
HETATM   34  N6  UNL     1       2.363 -17.990 -19.067  1.00  0.00    -0.066 N 
HETATM   35  C20 UNL     1       0.939 -18.225 -19.203  1.00  0.00     0.273 C 
HETATM   36  C21 UNL     1       2.623 -16.807 -19.915  1.00  0.00     0.237 C 
HETATM   37  C22 UNL     1       2.611 -17.247 -21.360  1.00  0.00     0.028 C 
HETATM   38  C23 UNL     1       3.921 -17.976 -21.676  1.00  0.00     0.004 C 
HETATM   39  C24 UNL     1       4.386 -18.549 -20.354  1.00  0.00     0.034 C 
HETATM   40  C25 UNL     1       3.132 -19.038 -19.640  1.00  0.00     0.193 C 
BRANCH  40  41
HETATM   41  C26 UNL     1       3.516 -20.171 -18.755  1.00  0.00     0.059 C 
BRANCH  41  42
HETATM   42  C27 UNL     1       2.976 -21.478 -19.165  1.00  0.00    -0.035 C 
HETATM   43  C28 UNL     1       2.230 -21.588 -20.244  1.00  0.00     0.007 C 
ENDBRANCH  41  42
ENDBRANCH  40  41
ENDBRANCH  33  34
ENDBRANCH  32  33
ENDBRANCH  29  32
ENDBRANCH  27  28
BRANCH  27  44
HETATM   44  C29 UNL     1       6.978 -14.440 -15.015  1.00  0.00     0.009 C 
HETATM   45  C30 UNL     1       5.600 -13.889 -14.786  1.00  0.00     0.012 C 
HETATM   46  C31 UNL     1       7.665 -14.540 -13.658  1.00  0.00     0.012 C 
ENDBRANCH  27  44
ENDBRANCH  24  27
ENDBRANCH  18  20
ENDBRANCH  10  13
ENDBRANCH   8   9
BRANCH   8  47
HETATM   47  C33 UNL     1      14.651 -23.823 -19.139  1.00  0.00    -0.022 C 
HETATM   48  C34 UNL     1      15.924 -23.834 -18.333  1.00  0.00     0.017 C 
HETATM   49  C35 UNL     1      13.680 -24.867 -18.704  1.00  0.00     0.017 C 
HETATM   50  C36 UNL     1      15.000 -24.050 -20.613  1.00  0.00     0.017 C 
ENDBRANCH   8  47
ENDBRANCH   5   8
ENDBRANCH   3   4
TORSDOF 14
ENDMDL
