MODEL 1
REMARK VINA RESULT: -4.246083894      0.000      0.000
REMARK  16 active torsions:
REMARK  status: ('A' for Active; 'I' for Inactive)
REMARK    1  A    between atoms: C2_2  and  C17_44 
REMARK    2  A    between atoms: N1_3  and  C3_5 
REMARK    3  A    between atoms: C3_5  and  O1_6 
REMARK    4  A    between atoms: C3_5  and  C4_8 
REMARK    5  A    between atoms: C4_8  and  O2_9 
REMARK    6  A    between atoms: C4_8  and  C5_11 
REMARK    7  A    between atoms: C5_11  and  O3_12 
REMARK    8  A    between atoms: C5_11  and  C6_14 
REMARK    9  A    between atoms: N2_17  and  C8_19 
REMARK   10  A    between atoms: C8_19  and  C9_20 
REMARK   11  A    between atoms: C9_20  and  O5_21 
REMARK   12  A    between atoms: C11_25  and  O6_26 
REMARK   13  A    between atoms: C12_28  and  C13_29 
REMARK   14  A    between atoms: C16_38  and  N7_39 
REMARK   15  A    between atoms: C17_44  and  O8_45 
REMARK   16  A    between atoms: C17_44  and  O9_47 
ROOT
HETATM    1  C6  UNL     1       7.124   3.275  45.512  1.00  0.00     0.127 A 
HETATM    2  O4  UNL     1       7.046   1.951  45.207  1.00  0.00    -0.288 OA
HETATM    3  C7  UNL     1       6.977   1.006  46.086  1.00  0.00     0.175 A 
HETATM    4  N2  UNL     1       6.904  -0.240  45.741  1.00  0.00    -0.346 N 
ATOM      5  H2  UNL     1       6.858  -0.907  46.511  1.00  0.00     0.167 HD
HETATM    6  C10 UNL     1       6.976   1.304  47.429  1.00  0.00     0.131 A 
HETATM    7  N3  UNL     1       6.889   0.262  48.382  1.00  0.00    -0.095 NA
HETATM    8  C11 UNL     1       7.056   2.624  47.779  1.00  0.00     0.111 A 
HETATM    9  C12 UNL     1       7.137   3.671  46.816  1.00  0.00     0.089 A 
ENDROOT
BRANCH   1  10
HETATM   10  C5  UNL     1       7.161   4.201  44.399  1.00  0.00     0.111 C 
BRANCH  10  11
HETATM   11  C4  UNL     1       7.587   5.605  44.541  1.00  0.00     0.225 C 
BRANCH  11  12
HETATM   12  C3  UNL     1       7.068   6.642  43.592  1.00  0.00     0.253 C 
BRANCH  12  13
HETATM   13  N1  UNL     1       7.397   7.911  44.168  1.00  0.00    -0.364 N 
HETATM   14  C2  UNL     1       7.088   9.061  43.859  1.00  0.00     0.035 C 
HETATM   15  C1  UNL     1       6.223   9.453  42.725  1.00  0.00     0.068 C 
ATOM     16  H1  UNL     1       8.001   7.850  44.987  1.00  0.00     0.162 HD
BRANCH  14  17
HETATM   17  C17 UNL     1       7.634  10.178  44.721  1.00  0.00     0.300 C 
BRANCH  17  18
HETATM   18  O8  UNL     1       8.496   9.695  45.690  1.00  0.00    -0.366 OA
ATOM     19  H8  UNL     1       8.641  10.335  46.376  1.00  0.00     0.213 HD
ENDBRANCH  17  18
BRANCH  17  20
HETATM   20  O9  UNL     1       8.241  11.069  43.833  1.00  0.00    -0.366 OA
ATOM     21  H9  UNL     1       9.171  10.882  43.886  1.00  0.00     0.213 HD
ENDBRANCH  17  20
ENDBRANCH  14  17
ENDBRANCH  12  13
BRANCH  12  22
HETATM   22  O1  UNL     1       7.715   6.609  42.361  1.00  0.00    -0.374 OA
ATOM     23  H1  UNL     1       7.025   6.603  41.709  1.00  0.00     0.212 HD
ENDBRANCH  12  22
ENDBRANCH  11  12
BRANCH  11  24
HETATM   24  O2  UNL     1       9.006   5.722  44.433  1.00  0.00    -0.384 OA
ATOM     25  H2  UNL     1       9.172   5.635  43.502  1.00  0.00     0.210 HD
ENDBRANCH  11  24
ENDBRANCH  10  11
BRANCH  10  26
HETATM   26  O3  UNL     1       6.490   3.960  43.245  1.00  0.00    -0.359 OA
ATOM     27  H3  UNL     1       6.658   3.095  42.887  1.00  0.00     0.217 HD
ENDBRANCH  10  26
ENDBRANCH   1  10
BRANCH   9  28
HETATM   28  C13 UNL     1       7.359   5.022  47.312  1.00  0.00     0.184 A 
HETATM   29  N4  UNL     1       6.284   5.695  47.649  1.00  0.00    -0.361 N 
HETATM   30  C14 UNL     1       6.233   7.022  48.160  1.00  0.00     0.203 A 
ATOM     31  H4  UNL     1       5.391   5.217  47.532  1.00  0.00     0.162 HD
HETATM   32  C15 UNL     1       7.547   7.657  48.295  1.00  0.00     0.161 A 
HETATM   33  N5  UNL     1       7.909   8.891  48.731  1.00  0.00    -0.271 N 
HETATM   34  N8  UNL     1       8.654   6.994  47.964  1.00  0.00    -0.026 N 
HETATM   35  N6  UNL     1       9.223   8.947  48.654  1.00  0.00    -0.129 N 
ATOM     36  H5  UNL     1       7.285   9.630  49.054  1.00  0.00     0.189 HD
HETATM   37  C16 UNL     1       9.713   7.798  48.186  1.00  0.00     0.719 A 
ATOM     38  H6  UNL     1       9.787   9.756  48.915  1.00  0.00     0.205 HD
HETATM   39  O7  UNL     1       8.508   5.716  47.491  1.00  0.00    -0.196 OA
BRANCH  37  40
HETATM   40  N7  UNL     1      10.936   7.481  47.973  1.00  0.00    -0.231 N 
ATOM     41  H72 UNL     1      11.737   7.871  48.469  1.00  0.00     0.174 HD
ATOM     42  H71 UNL     1      11.310   6.811  47.301  1.00  0.00     0.174 HD
ENDBRANCH  37  40
ENDBRANCH   9  28
BRANCH   8  43
HETATM   43  O6  UNL     1       7.060   3.017  49.109  1.00  0.00    -0.358 OA
ATOM     44  H6  UNL     1       7.827   3.418  49.503  1.00  0.00     0.217 HD
ENDBRANCH   8  43
BRANCH   4  45
HETATM   45  C8  UNL     1       6.881  -0.802  44.454  1.00  0.00     0.089 C 
BRANCH  45  46
HETATM   46  C9  UNL     1       8.241  -1.256  43.937  1.00  0.00     0.208 C 
BRANCH  46  47
HETATM   47  O5  UNL     1       8.952  -1.688  45.059  1.00  0.00    -0.396 OA
ATOM     48  H5  UNL     1       9.869  -1.653  44.815  1.00  0.00     0.209 HD
ENDBRANCH  46  47
ENDBRANCH  45  46
ENDBRANCH   4  45
TORSDOF 16
ENDMDL
MODEL 2
REMARK VINA RESULT: -2.942623139      2.581      3.243
REMARK  16 active torsions:
REMARK  status: ('A' for Active; 'I' for Inactive)
REMARK    1  A    between atoms: C2_2  and  C17_44 
REMARK    2  A    between atoms: N1_3  and  C3_5 
REMARK    3  A    between atoms: C3_5  and  O1_6 
REMARK    4  A    between atoms: C3_5  and  C4_8 
REMARK    5  A    between atoms: C4_8  and  O2_9 
REMARK    6  A    between atoms: C4_8  and  C5_11 
REMARK    7  A    between atoms: C5_11  and  O3_12 
REMARK    8  A    between atoms: C5_11  and  C6_14 
REMARK    9  A    between atoms: N2_17  and  C8_19 
REMARK   10  A    between atoms: C8_19  and  C9_20 
REMARK   11  A    between atoms: C9_20  and  O5_21 
REMARK   12  A    between atoms: C11_25  and  O6_26 
REMARK   13  A    between atoms: C12_28  and  C13_29 
REMARK   14  A    between atoms: C16_38  and  N7_39 
REMARK   15  A    between atoms: C17_44  and  O8_45 
REMARK   16  A    between atoms: C17_44  and  O9_47 
ROOT
HETATM    1  C6  UNL     1       6.845   3.425  43.106  1.00  0.00     0.127 A 
HETATM    2  O4  UNL     1       6.648   2.635  42.015  1.00  0.00    -0.288 OA
HETATM    3  C7  UNL     1       6.558   1.347  42.058  1.00  0.00     0.175 A 
HETATM    4  N2  UNL     1       6.369   0.641  40.989  1.00  0.00    -0.346 N 
ATOM      5  H2  UNL     1       6.316  -0.367  41.132  1.00  0.00     0.167 HD
HETATM    6  C10 UNL     1       6.657   0.683  43.259  1.00  0.00     0.131 A 
HETATM    7  N3  UNL     1       6.545  -0.727  43.296  1.00  0.00    -0.095 NA
HETATM    8  C11 UNL     1       6.858   1.440  44.380  1.00  0.00     0.111 A 
HETATM    9  C12 UNL     1       6.963   2.860  44.340  1.00  0.00     0.089 A 
ENDROOT
BRANCH   1  10
HETATM   10  C5  UNL     1       6.889   4.856  42.877  1.00  0.00     0.111 C 
BRANCH  10  11
HETATM   11  C4  UNL     1       7.072   5.832  43.965  1.00  0.00     0.225 C 
BRANCH  11  12
HETATM   12  C3  UNL     1       6.441   7.188  43.864  1.00  0.00     0.253 C 
BRANCH  12  13
HETATM   13  N1  UNL     1       6.554   7.780  45.163  1.00  0.00    -0.364 N 
HETATM   14  C2  UNL     1       6.482   8.947  45.545  1.00  0.00     0.035 C 
HETATM   15  C1  UNL     1       6.237  10.128  44.689  1.00  0.00     0.068 C 
ATOM     16  H1  UNL     1       6.726   7.108  45.910  1.00  0.00     0.162 HD
BRANCH  14  17
HETATM   17  C17 UNL     1       6.653   9.199  47.027  1.00  0.00     0.300 C 
BRANCH  17  18
HETATM   18  O8  UNL     1       7.448   8.234  47.617  1.00  0.00    -0.366 OA
ATOM     19  H8  UNL     1       7.184   8.066  48.514  1.00  0.00     0.213 HD
ENDBRANCH  17  18
BRANCH  17  20
HETATM   20  O9  UNL     1       7.181  10.488  47.125  1.00  0.00    -0.366 OA
ATOM     21  H9  UNL     1       8.083  10.371  47.401  1.00  0.00     0.213 HD
ENDBRANCH  17  20
ENDBRANCH  14  17
ENDBRANCH  12  13
BRANCH  12  22
HETATM   22  O1  UNL     1       7.134   8.034  43.004  1.00  0.00    -0.374 OA
ATOM     23  H1  UNL     1       6.526   8.730  42.783  1.00  0.00     0.212 HD
ENDBRANCH  12  22
ENDBRANCH  11  12
BRANCH  11  24
HETATM   24  O2  UNL     1       8.456   6.113  44.175  1.00  0.00    -0.384 OA
ATOM     25  H2  UNL     1       8.785   6.302  43.303  1.00  0.00     0.210 HD
ENDBRANCH  11  24
ENDBRANCH  10  11
BRANCH  10  26
HETATM   26  O3  UNL     1       6.426   5.411  41.730  1.00  0.00    -0.359 OA
ATOM     27  H3  UNL     1       6.760   4.989  40.947  1.00  0.00     0.217 HD
ENDBRANCH  10  26
ENDBRANCH   1  10
BRANCH   9  28
HETATM   28  C13 UNL     1       7.317   3.542  45.578  1.00  0.00     0.184 A 
HETATM   29  N4  UNL     1       6.312   3.952  46.316  1.00  0.00    -0.361 N 
HETATM   30  C14 UNL     1       6.391   4.635  47.561  1.00  0.00     0.203 A 
ATOM     31  H4  UNL     1       5.376   3.761  45.958  1.00  0.00     0.162 HD
HETATM   32  C15 UNL     1       7.762   4.887  48.014  1.00  0.00     0.161 A 
HETATM   33  N5  UNL     1       8.243   5.503  49.124  1.00  0.00    -0.271 N 
HETATM   34  N8  UNL     1       8.799   4.478  47.286  1.00  0.00    -0.026 N 
HETATM   35  N6  UNL     1       9.558   5.453  49.043  1.00  0.00    -0.129 N 
ATOM     36  H5  UNL     1       7.695   5.924  49.874  1.00  0.00     0.189 HD
HETATM   37  C16 UNL     1       9.932   4.830  47.925  1.00  0.00     0.719 A 
ATOM     38  H6  UNL     1      10.199   5.837  49.738  1.00  0.00     0.205 HD
HETATM   39  O7  UNL     1       8.529   3.828  46.110  1.00  0.00    -0.196 OA
BRANCH  37  40
HETATM   40  N7  UNL     1      11.119   4.593  47.504  1.00  0.00    -0.231 N 
ATOM     41  H72 UNL     1      11.954   4.561  48.090  1.00  0.00     0.174 HD
ATOM     42  H71 UNL     1      11.429   4.402  46.551  1.00  0.00     0.174 HD
ENDBRANCH  37  40
ENDBRANCH   9  28
BRANCH   8  43
HETATM   43  O6  UNL     1       6.968   0.855  45.634  1.00  0.00    -0.358 OA
ATOM     44  H6  UNL     1       7.752   0.963  46.161  1.00  0.00     0.217 HD
ENDBRANCH   8  43
BRANCH   4  45
HETATM   45  C8  UNL     1       6.229   1.070  39.660  1.00  0.00     0.089 C 
BRANCH  45  46
HETATM   46  C9  UNL     1       7.438   0.793  38.774  1.00  0.00     0.208 C 
BRANCH  46  47
HETATM   47  O5  UNL     1       8.080  -0.312  39.339  1.00  0.00    -0.396 OA
ATOM     48  H5  UNL     1       8.867  -0.447  38.824  1.00  0.00     0.209 HD
ENDBRANCH  46  47
ENDBRANCH  45  46
ENDBRANCH   4  45
TORSDOF 16
ENDMDL
MODEL 3
REMARK VINA RESULT: -2.530989425      9.731     12.359
REMARK  16 active torsions:
REMARK  status: ('A' for Active; 'I' for Inactive)
REMARK    1  A    between atoms: C2_2  and  C17_44 
REMARK    2  A    between atoms: N1_3  and  C3_5 
REMARK    3  A    between atoms: C3_5  and  O1_6 
REMARK    4  A    between atoms: C3_5  and  C4_8 
REMARK    5  A    between atoms: C4_8  and  O2_9 
REMARK    6  A    between atoms: C4_8  and  C5_11 
REMARK    7  A    between atoms: C5_11  and  O3_12 
REMARK    8  A    between atoms: C5_11  and  C6_14 
REMARK    9  A    between atoms: N2_17  and  C8_19 
REMARK   10  A    between atoms: C8_19  and  C9_20 
REMARK   11  A    between atoms: C9_20  and  O5_21 
REMARK   12  A    between atoms: C11_25  and  O6_26 
REMARK   13  A    between atoms: C12_28  and  C13_29 
REMARK   14  A    between atoms: C16_38  and  N7_39 
REMARK   15  A    between atoms: C17_44  and  O8_45 
REMARK   16  A    between atoms: C17_44  and  O9_47 
ROOT
HETATM    1  C6  UNL     1      15.952  10.457  40.021  1.00  0.00     0.127 A 
HETATM    2  O4  UNL     1      15.347   9.308  39.610  1.00  0.00    -0.288 OA
HETATM    3  C7  UNL     1      14.093   9.216  39.312  1.00  0.00     0.175 A 
HETATM    4  N2  UNL     1      13.566   8.098  38.925  1.00  0.00    -0.346 N 
ATOM      5  H2  UNL     1      12.568   8.131  38.719  1.00  0.00     0.167 HD
HETATM    6  C10 UNL     1      13.274  10.318  39.398  1.00  0.00     0.131 A 
HETATM    7  N3  UNL     1      11.905  10.207  39.060  1.00  0.00    -0.095 NA
HETATM    8  C11 UNL     1      13.843  11.492  39.811  1.00  0.00     0.111 A 
HETATM    9  C12 UNL     1      15.224  11.601  40.144  1.00  0.00     0.089 A 
ENDROOT
BRANCH   1  10
HETATM   10  C5  UNL     1      17.377  10.387  40.280  1.00  0.00     0.111 C 
BRANCH  10  11
HETATM   11  C4  UNL     1      18.332   9.788  39.332  1.00  0.00     0.225 C 
BRANCH  11  12
HETATM   12  C3  UNL     1      18.166   8.360  38.909  1.00  0.00     0.253 C 
BRANCH  12  13
HETATM   13  N1  UNL     1      17.507   7.696  39.993  1.00  0.00    -0.364 N 
HETATM   14  C2  UNL     1      17.519   6.525  40.372  1.00  0.00     0.035 C 
HETATM   15  C1  UNL     1      18.285   5.421  39.754  1.00  0.00     0.068 C 
ATOM     16  H1  UNL     1      16.916   8.308  40.556  1.00  0.00     0.162 HD
BRANCH  14  17
HETATM   17  C17 UNL     1      16.682   6.184  41.585  1.00  0.00     0.300 C 
BRANCH  17  18
HETATM   18  O8  UNL     1      15.661   7.098  41.769  1.00  0.00    -0.366 OA
ATOM     19  H8  UNL     1      14.815   6.669  41.822  1.00  0.00     0.213 HD
ENDBRANCH  17  18
BRANCH  17  20
HETATM   20  O9  UNL     1      16.227   4.881  41.366  1.00  0.00    -0.366 OA
ATOM     21  H9  UNL     1      16.677   4.346  42.009  1.00  0.00     0.213 HD
ENDBRANCH  17  20
ENDBRANCH  14  17
ENDBRANCH  12  13
BRANCH  12  22
HETATM   22  O1  UNL     1      17.318   8.224  37.815  1.00  0.00    -0.374 OA
ATOM     23  H1  UNL     1      17.136   9.109  37.520  1.00  0.00     0.212 HD
ENDBRANCH  12  22
ENDBRANCH  11  12
BRANCH  11  24
HETATM   24  O2  UNL     1      19.664   9.840  39.845  1.00  0.00    -0.384 OA
ATOM     25  H2  UNL     1      19.947  10.727  39.655  1.00  0.00     0.210 HD
ENDBRANCH  11  24
ENDBRANCH  10  11
BRANCH  10  26
HETATM   26  O3  UNL     1      17.885  10.542  41.528  1.00  0.00    -0.359 OA
ATOM     27  H3  UNL     1      17.223  10.742  42.180  1.00  0.00     0.217 HD
ENDBRANCH  10  26
ENDBRANCH   1  10
BRANCH   9  28
HETATM   28  C13 UNL     1      15.680  12.866  40.704  1.00  0.00     0.184 A 
HETATM   29  N4  UNL     1      16.164  13.734  39.846  1.00  0.00    -0.361 N 
HETATM   30  C14 UNL     1      16.667  15.032  40.137  1.00  0.00     0.203 A 
ATOM     31  H4  UNL     1      16.180  13.446  38.867  1.00  0.00     0.162 HD
HETATM   32  C15 UNL     1      16.625  15.380  41.560  1.00  0.00     0.161 A 
HETATM   33  N5  UNL     1      17.011  16.499  42.224  1.00  0.00    -0.271 N 
HETATM   34  N8  UNL     1      16.136  14.519  42.451  1.00  0.00    -0.026 N 
HETATM   35  N6  UNL     1      16.747  16.291  43.498  1.00  0.00    -0.129 N 
ATOM     36  H5  UNL     1      17.425  17.337  41.816  1.00  0.00     0.189 HD
HETATM   37  C16 UNL     1      16.209  15.084  43.672  1.00  0.00     0.719 A 
ATOM     38  H6  UNL     1      16.929  16.961  44.247  1.00  0.00     0.205 HD
HETATM   39  O7  UNL     1      15.689  13.311  41.983  1.00  0.00    -0.196 OA
BRANCH  37  40
HETATM   40  N7  UNL     1      15.826  14.532  44.763  1.00  0.00    -0.231 N 
ATOM     41  H72 UNL     1      15.614  15.028  45.629  1.00  0.00     0.174 HD
ATOM     42  H71 UNL     1      15.670  13.542  44.953  1.00  0.00     0.174 HD
ENDBRANCH  37  40
ENDBRANCH   9  28
BRANCH   8  43
HETATM   43  O6  UNL     1      13.094  12.654  39.925  1.00  0.00    -0.358 OA
ATOM     44  H6  UNL     1      13.479  13.459  40.249  1.00  0.00     0.217 HD
ENDBRANCH   8  43
BRANCH   4  45
HETATM   45  C8  UNL     1      14.178   6.846  38.750  1.00  0.00     0.089 C 
BRANCH  45  46
HETATM   46  C9  UNL     1      13.667   5.756  39.685  1.00  0.00     0.208 C 
BRANCH  46  47
HETATM   47  O5  UNL     1      14.149   4.551  39.168  1.00  0.00    -0.396 OA
ATOM     48  H5  UNL     1      13.382   4.053  38.910  1.00  0.00     0.209 HD
ENDBRANCH  46  47
ENDBRANCH  45  46
ENDBRANCH   4  45
TORSDOF 16
ENDMDL
MODEL 4
REMARK VINA RESULT: -2.167931135      9.948     12.547
REMARK  16 active torsions:
REMARK  status: ('A' for Active; 'I' for Inactive)
REMARK    1  A    between atoms: C2_2  and  C17_44 
REMARK    2  A    between atoms: N1_3  and  C3_5 
REMARK    3  A    between atoms: C3_5  and  O1_6 
REMARK    4  A    between atoms: C3_5  and  C4_8 
REMARK    5  A    between atoms: C4_8  and  O2_9 
REMARK    6  A    between atoms: C4_8  and  C5_11 
REMARK    7  A    between atoms: C5_11  and  O3_12 
REMARK    8  A    between atoms: C5_11  and  C6_14 
REMARK    9  A    between atoms: N2_17  and  C8_19 
REMARK   10  A    between atoms: C8_19  and  C9_20 
REMARK   11  A    between atoms: C9_20  and  O5_21 
REMARK   12  A    between atoms: C11_25  and  O6_26 
REMARK   13  A    between atoms: C12_28  and  C13_29 
REMARK   14  A    between atoms: C16_38  and  N7_39 
REMARK   15  A    between atoms: C17_44  and  O8_45 
REMARK   16  A    between atoms: C17_44  and  O9_47 
ROOT
HETATM    1  C6  UNL     1      15.780  10.504  39.907  1.00  0.00     0.127 A 
HETATM    2  O4  UNL     1      15.115   9.379  39.525  1.00  0.00    -0.288 OA
HETATM    3  C7  UNL     1      13.835   9.314  39.358  1.00  0.00     0.175 A 
HETATM    4  N2  UNL     1      13.252   8.217  38.992  1.00  0.00    -0.346 N 
ATOM      5  H2  UNL     1      12.238   8.271  38.892  1.00  0.00     0.167 HD
HETATM    6  C10 UNL     1      13.049  10.424  39.563  1.00  0.00     0.131 A 
HETATM    7  N3  UNL     1      11.651  10.344  39.366  1.00  0.00    -0.095 NA
HETATM    8  C11 UNL     1      13.678  11.575  39.952  1.00  0.00     0.111 A 
HETATM    9  C12 UNL     1      15.088  11.654  40.142  1.00  0.00     0.089 A 
ENDROOT
BRANCH   1  10
HETATM   10  C5  UNL     1      17.222  10.406  40.014  1.00  0.00     0.111 C 
BRANCH  10  11
HETATM   11  C4  UNL     1      17.946   9.128  39.896  1.00  0.00     0.225 C 
BRANCH  11  12
HETATM   12  C3  UNL     1      17.209   7.835  40.076  1.00  0.00     0.253 C 
BRANCH  12  13
HETATM   13  N1  UNL     1      17.439   7.076  38.884  1.00  0.00    -0.364 N 
HETATM   14  C2  UNL     1      17.386   7.378  37.692  1.00  0.00     0.035 C 
HETATM   15  C1  UNL     1      17.049   8.712  37.148  1.00  0.00     0.068 C 
ATOM     16  H1  UNL     1      17.693   6.104  39.054  1.00  0.00     0.162 HD
BRANCH  14  17
HETATM   17  C17 UNL     1      17.702   6.290  36.689  1.00  0.00     0.300 C 
BRANCH  17  18
HETATM   18  O8  UNL     1      16.566   5.587  36.331  1.00  0.00    -0.366 OA
ATOM     19  H8  UNL     1      16.390   4.878  36.938  1.00  0.00     0.213 HD
ENDBRANCH  17  18
BRANCH  17  20
HETATM   20  O9  UNL     1      18.312   6.941  35.615  1.00  0.00    -0.366 OA
ATOM     21  H9  UNL     1      19.226   6.685  35.652  1.00  0.00     0.213 HD
ENDBRANCH  17  20
ENDBRANCH  14  17
ENDBRANCH  12  13
BRANCH  12  22
HETATM   22  O1  UNL     1      17.727   7.068  41.114  1.00  0.00    -0.374 OA
ATOM     23  H1  UNL     1      17.713   6.171  40.803  1.00  0.00     0.212 HD
ENDBRANCH  12  22
ENDBRANCH  11  12
BRANCH  11  24
HETATM   24  O2  UNL     1      19.008   9.052  40.847  1.00  0.00    -0.384 OA
ATOM     25  H2  UNL     1      19.258   8.135  40.837  1.00  0.00     0.210 HD
ENDBRANCH  11  24
ENDBRANCH  10  11
BRANCH  10  26
HETATM   26  O3  UNL     1      17.967  11.396  40.566  1.00  0.00    -0.359 OA
ATOM     27  H3  UNL     1      17.968  12.195  40.053  1.00  0.00     0.217 HD
ENDBRANCH  10  26
ENDBRANCH   1  10
BRANCH   9  28
HETATM   28  C13 UNL     1      15.622  12.893  40.691  1.00  0.00     0.184 A 
HETATM   29  N4  UNL     1      16.159  13.721  39.826  1.00  0.00    -0.361 N 
HETATM   30  C14 UNL     1      16.743  14.988  40.106  1.00  0.00     0.203 A 
ATOM     31  H4  UNL     1      16.159  13.424  38.850  1.00  0.00     0.162 HD
HETATM   32  C15 UNL     1      16.721  15.351  41.525  1.00  0.00     0.161 A 
HETATM   33  N5  UNL     1      17.176  16.449  42.180  1.00  0.00    -0.271 N 
HETATM   34  N8  UNL     1      16.178  14.530  42.424  1.00  0.00    -0.026 N 
HETATM   35  N6  UNL     1      16.899  16.270  43.456  1.00  0.00    -0.129 N 
ATOM     36  H5  UNL     1      17.642  17.256  41.765  1.00  0.00     0.189 HD
HETATM   37  C16 UNL     1      16.286  15.101  43.640  1.00  0.00     0.719 A 
ATOM     38  H6  UNL     1      17.122  16.934  44.198  1.00  0.00     0.205 HD
HETATM   39  O7  UNL     1      15.657  13.348  41.966  1.00  0.00    -0.196 OA
BRANCH  37  40
HETATM   40  N7  UNL     1      15.868  14.583  44.735  1.00  0.00    -0.231 N 
ATOM     41  H72 UNL     1      15.520  15.109  45.537  1.00  0.00     0.174 HD
ATOM     42  H71 UNL     1      15.810  13.597  44.990  1.00  0.00     0.174 HD
ENDBRANCH  37  40
ENDBRANCH   9  28
BRANCH   8  43
HETATM   43  O6  UNL     1      12.965  12.743  40.180  1.00  0.00    -0.358 OA
ATOM     44  H6  UNL     1      13.389  13.594  40.151  1.00  0.00     0.217 HD
ENDBRANCH   8  43
BRANCH   4  45
HETATM   45  C8  UNL     1      13.819   6.963  38.715  1.00  0.00     0.089 C 
BRANCH  45  46
HETATM   46  C9  UNL     1      14.001   6.067  39.934  1.00  0.00     0.208 C 
BRANCH  46  47
HETATM   47  O5  UNL     1      12.887   5.223  39.957  1.00  0.00    -0.396 OA
ATOM     48  H5  UNL     1      13.170   4.408  39.561  1.00  0.00     0.209 HD
ENDBRANCH  46  47
ENDBRANCH  45  46
ENDBRANCH   4  45
TORSDOF 16
ENDMDL
MODEL 5
REMARK VINA RESULT: -1.751163239     10.292     13.465
REMARK  16 active torsions:
REMARK  status: ('A' for Active; 'I' for Inactive)
REMARK    1  A    between atoms: C2_2  and  C17_44 
REMARK    2  A    between atoms: N1_3  and  C3_5 
REMARK    3  A    between atoms: C3_5  and  O1_6 
REMARK    4  A    between atoms: C3_5  and  C4_8 
REMARK    5  A    between atoms: C4_8  and  O2_9 
REMARK    6  A    between atoms: C4_8  and  C5_11 
REMARK    7  A    between atoms: C5_11  and  O3_12 
REMARK    8  A    between atoms: C5_11  and  C6_14 
REMARK    9  A    between atoms: N2_17  and  C8_19 
REMARK   10  A    between atoms: C8_19  and  C9_20 
REMARK   11  A    between atoms: C9_20  and  O5_21 
REMARK   12  A    between atoms: C11_25  and  O6_26 
REMARK   13  A    between atoms: C12_28  and  C13_29 
REMARK   14  A    between atoms: C16_38  and  N7_39 
REMARK   15  A    between atoms: C17_44  and  O8_45 
REMARK   16  A    between atoms: C17_44  and  O9_47 
ROOT
HETATM    1  C6  UNL     1      16.312   8.682  39.319  1.00  0.00     0.127 A 
HETATM    2  O4  UNL     1      15.704   9.800  39.801  1.00  0.00    -0.288 OA
HETATM    3  C7  UNL     1      14.709  10.391  39.226  1.00  0.00     0.175 A 
HETATM    4  N2  UNL     1      14.166  11.454  39.728  1.00  0.00    -0.346 N 
ATOM      5  H2  UNL     1      13.389  11.845  39.194  1.00  0.00     0.167 HD
HETATM    6  C10 UNL     1      14.192   9.897  38.050  1.00  0.00     0.131 A 
HETATM    7  N3  UNL     1      13.096  10.546  37.435  1.00  0.00    -0.095 NA
HETATM    8  C11 UNL     1      14.777   8.776  37.530  1.00  0.00     0.111 A 
HETATM    9  C12 UNL     1      15.876   8.121  38.156  1.00  0.00     0.089 A 
ENDROOT
BRANCH   1  10
HETATM   10  C5  UNL     1      17.393   8.132  40.112  1.00  0.00     0.111 C 
BRANCH  10  11
HETATM   11  C4  UNL     1      17.381   6.753  40.630  1.00  0.00     0.225 C 
BRANCH  11  12
HETATM   12  C3  UNL     1      16.433   6.377  41.729  1.00  0.00     0.253 C 
BRANCH  12  13
HETATM   13  N1  UNL     1      15.509   5.445  41.158  1.00  0.00    -0.364 N 
HETATM   14  C2  UNL     1      14.443   5.601  40.562  1.00  0.00     0.035 C 
HETATM   15  C1  UNL     1      13.800   6.898  40.259  1.00  0.00     0.068 C 
ATOM     16  H1  UNL     1      15.785   4.470  41.265  1.00  0.00     0.162 HD
BRANCH  14  17
HETATM   17  C17 UNL     1      13.727   4.355  40.090  1.00  0.00     0.300 C 
BRANCH  17  18
HETATM   18  O8  UNL     1      14.067   4.040  38.786  1.00  0.00    -0.366 OA
ATOM     19  H8  UNL     1      15.006   4.078  38.652  1.00  0.00     0.213 HD
ENDBRANCH  17  18
BRANCH  17  20
HETATM   20  O9  UNL     1      14.070   3.360  41.008  1.00  0.00    -0.366 OA
ATOM     21  H9  UNL     1      13.492   3.493  41.750  1.00  0.00     0.213 HD
ENDBRANCH  17  20
ENDBRANCH  14  17
ENDBRANCH  12  13
BRANCH  12  22
HETATM   22  O1  UNL     1      17.063   5.695  42.765  1.00  0.00    -0.374 OA
ATOM     23  H1  UNL     1      16.932   6.228  43.540  1.00  0.00     0.212 HD
ENDBRANCH  12  22
ENDBRANCH  11  12
BRANCH  11  24
HETATM   24  O2  UNL     1      18.662   6.387  41.144  1.00  0.00    -0.384 OA
ATOM     25  H2  UNL     1      19.073   7.220  41.346  1.00  0.00     0.210 HD
ENDBRANCH  11  24
ENDBRANCH  10  11
BRANCH  10  26
HETATM   26  O3  UNL     1      18.308   8.926  40.721  1.00  0.00    -0.359 OA
ATOM     27  H3  UNL     1      19.106   9.033  40.217  1.00  0.00     0.217 HD
ENDBRANCH  10  26
ENDBRANCH   1  10
BRANCH   9  28
HETATM   28  C13 UNL     1      16.501   7.021  37.434  1.00  0.00     0.184 A 
HETATM   29  N4  UNL     1      17.359   7.360  36.500  1.00  0.00    -0.361 N 
HETATM   30  C14 UNL     1      18.100   6.481  35.661  1.00  0.00     0.203 A 
ATOM     31  H4  UNL     1      17.510   8.359  36.361  1.00  0.00     0.162 HD
HETATM   32  C15 UNL     1      17.830   5.062  35.905  1.00  0.00     0.161 A 
HETATM   33  N5  UNL     1      18.322   3.939  35.320  1.00  0.00    -0.271 N 
HETATM   34  N8  UNL     1      16.967   4.691  36.849  1.00  0.00    -0.026 N 
HETATM   35  N6  UNL     1      17.748   2.918  35.922  1.00  0.00    -0.129 N 
ATOM     36  H5  UNL     1      19.004   3.896  34.562  1.00  0.00     0.189 HD
HETATM   37  C16 UNL     1      16.909   3.344  36.867  1.00  0.00     0.719 A 
ATOM     38  H6  UNL     1      17.921   1.937  35.697  1.00  0.00     0.205 HD
HETATM   39  O7  UNL     1      16.348   5.682  37.564  1.00  0.00    -0.196 OA
BRANCH  37  40
HETATM   40  N7  UNL     1      16.175   2.649  37.654  1.00  0.00    -0.231 N 
ATOM     41  H72 UNL     1      15.940   1.665  37.520  1.00  0.00     0.174 HD
ATOM     42  H71 UNL     1      15.716   2.940  38.517  1.00  0.00     0.174 HD
ENDBRANCH  37  40
ENDBRANCH   9  28
BRANCH   8  43
HETATM   43  O6  UNL     1      14.320   8.208  36.349  1.00  0.00    -0.358 OA
ATOM     44  H6  UNL     1      14.884   8.134  35.587  1.00  0.00     0.217 HD
ENDBRANCH   8  43
BRANCH   4  45
HETATM   45  C8  UNL     1      14.496  12.144  40.905  1.00  0.00     0.089 C 
BRANCH  45  46
HETATM   46  C9  UNL     1      15.550  13.232  40.726  1.00  0.00     0.208 C 
BRANCH  46  47
HETATM   47  O5  UNL     1      16.749  12.563  40.467  1.00  0.00    -0.396 OA
ATOM     48  H5  UNL     1      17.387  13.240  40.273  1.00  0.00     0.209 HD
ENDBRANCH  46  47
ENDBRANCH  45  46
ENDBRANCH   4  45
TORSDOF 16
ENDMDL
