MODEL 1
REMARK VINA RESULT: -2.146387440      0.000      0.000
REMARK  15 active torsions:
REMARK  status: ('A' for Active; 'I' for Inactive)
REMARK    1  A    between atoms: C5_10  and  N4_11 
REMARK    2  A    between atoms: N4_11  and  N5_13 
REMARK    3  A    between atoms: C6_15  and  C7_16 
REMARK    4  A    between atoms: C6_15  and  C8_21 
REMARK    5  A    between atoms: C7_16  and  N6_17 
REMARK    6  A    between atoms: C10_23  and  C11_24 
REMARK       I    between atoms: C11_24  and  N7_26 
REMARK    7  A    between atoms: N7_26  and  C12_28 
REMARK    8  A    between atoms: C12_28  and  C13_29 
REMARK    9  A    between atoms: C13_29  and  O2_30 
REMARK       I    between atoms: N9_34  and  C14_35 
REMARK   10  A    between atoms: C14_35  and  O4_37 
REMARK   11  A    between atoms: O4_37  and  C15_38 
REMARK   12  A    between atoms: C15_38  and  C16_39 
REMARK   13  A    between atoms: C15_38  and  C17_42 
REMARK   14  A    between atoms: C16_39  and  O5_40 
REMARK   15  A    between atoms: C17_42  and  O6_43 
ROOT
HETATM    1  C8  UNL     1      15.410   9.680  38.818  1.00  0.00     0.090 A 
HETATM    2  C9  UNL     1      16.352   9.432  37.795  1.00  0.00     0.070 A 
HETATM    3  C10 UNL     1      16.603   8.097  37.808  1.00  0.00     0.118 A 
HETATM    4  N8  UNL     1      15.866   7.587  38.765  1.00  0.00    -0.284 N 
ATOM      5  H8  UNL     1      15.848   6.596  39.007  1.00  0.00     0.188 HD
HETATM    6  N9  UNL     1      15.132   8.534  39.393  1.00  0.00    -0.197 N 
HETATM    7  C14 UNL     1      14.256   8.231  40.468  1.00  0.00     0.387 C 
HETATM    8  O3  UNL     1      13.559   8.997  41.103  1.00  0.00    -0.236 OA
ENDROOT
BRANCH   1   9
HETATM    9  C6  UNL     1      14.904  11.022  39.100  1.00  0.00     0.080 C 
HETATM   10  N5  UNL     1      15.340  11.852  39.953  1.00  0.00    -0.287 N 
ATOM     11  H5  UNL     1      16.134  11.594  40.539  1.00  0.00     0.187 HD
BRANCH  10  12
HETATM   12  N4  UNL     1      14.763  13.100  40.107  1.00  0.00    -0.131 N 
ATOM     13  H4  UNL     1      13.975  13.377  39.523  1.00  0.00     0.205 HD
BRANCH  12  14
HETATM   14  C5  UNL     1      15.275  13.989  41.080  1.00  0.00     0.711 C 
HETATM   15  N3  UNL     1      15.371  13.525  42.276  1.00  0.00    -0.161 N 
HETATM   16  C4  UNL     1      15.841  14.152  43.475  1.00  0.00     0.204 C 
ATOM     17  H3  UNL     1      15.063  12.559  42.388  1.00  0.00     0.187 HD
HETATM   18  N1  UNL     1      16.526  15.245  43.493  1.00  0.00    -0.340 N 
HETATM   19  N2  UNL     1      15.535  13.538  44.705  1.00  0.00    -0.063 NA
HETATM   20  C2  UNL     1      16.998  16.107  42.431  1.00  0.00     0.117 C 
ATOM     21  H1  UNL     1      16.783  15.560  44.429  1.00  0.00     0.164 HD
HETATM   22  C1  UNL     1      17.406  17.418  43.071  1.00  0.00     0.059 C 
HETATM   23  C3  UNL     1      18.196  15.550  41.718  1.00  0.00     0.059 C 
HETATM   24  N11 UNL     1      15.947  16.409  41.477  1.00  0.00    -0.095 NA
HETATM   25  N10 UNL     1      15.638  15.302  40.679  1.00  0.00    -0.132 N 
ATOM     26  H10 UNL     1      15.679  15.460  39.672  1.00  0.00     0.201 HD
ENDBRANCH  12  14
ENDBRANCH  10  12
BRANCH   9  27
HETATM   27  C7  UNL     1      13.725  11.509  38.287  1.00  0.00     0.290 C 
BRANCH  27  28
HETATM   28  N6  UNL     1      12.593  10.691  38.595  1.00  0.00    -0.074 N 
ATOM     29  H63 UNL     1      12.208  10.228  37.771  1.00  0.00     0.274 HD
ATOM     30  H62 UNL     1      12.846   9.853  39.119  1.00  0.00     0.274 HD
ATOM     31  H61 UNL     1      11.903  11.264  39.081  1.00  0.00     0.274 HD
ENDBRANCH  27  28
ENDBRANCH   9  27
ENDBRANCH   1   9
BRANCH   3  32
HETATM   32  C11 UNL     1      17.519   7.393  36.918  1.00  0.00     0.269 C 
HETATM   33  O1  UNL     1      18.527   7.991  36.500  1.00  0.00    -0.266 OA
HETATM   34  N7  UNL     1      17.274   6.063  36.536  1.00  0.00    -0.354 N 
ATOM     35  H7  UNL     1      16.444   5.585  36.887  1.00  0.00     0.162 HD
BRANCH  34  36
HETATM   36  C12 UNL     1      18.175   5.362  35.658  1.00  0.00     0.149 C 
BRANCH  36  37
HETATM   37  C13 UNL     1      18.270   3.921  36.101  1.00  0.00     0.183 C 
BRANCH  37  38
HETATM   38  O2  UNL     1      17.916   3.131  34.983  1.00  0.00    -0.399 OA
ATOM     39  H2  UNL     1      18.037   2.225  35.242  1.00  0.00     0.209 HD
ENDBRANCH  37  38
ENDBRANCH  36  37
ENDBRANCH  34  36
ENDBRANCH   3  32
BRANCH   7  40
HETATM   40  O4  UNL     1      14.130   6.894  40.905  1.00  0.00    -0.293 OA
BRANCH  40  41
HETATM   41  C15 UNL     1      14.962   5.864  40.493  1.00  0.00     0.180 C 
BRANCH  41  42
HETATM   42  C16 UNL     1      16.144   5.634  41.417  1.00  0.00     0.199 C 
BRANCH  42  43
HETATM   43  O5  UNL     1      16.036   6.261  42.621  1.00  0.00    -0.398 OA
ATOM     44  H5  UNL     1      16.224   5.702  43.366  1.00  0.00     0.209 HD
ENDBRANCH  42  43
ENDBRANCH  41  42
BRANCH  41  45
HETATM   45  C17 UNL     1      14.243   4.573  40.183  1.00  0.00     0.199 C 
BRANCH  45  46
HETATM   46  O6  UNL     1      12.861   4.878  40.225  1.00  0.00    -0.398 OA
ATOM     47  H6  UNL     1      12.412   4.044  40.301  1.00  0.00     0.209 HD
ENDBRANCH  45  46
ENDBRANCH  41  45
ENDBRANCH  40  41
ENDBRANCH   7  40
TORSDOF 15
ENDMDL
MODEL 2
REMARK VINA RESULT: -1.793510069      1.972      3.358
REMARK  15 active torsions:
REMARK  status: ('A' for Active; 'I' for Inactive)
REMARK    1  A    between atoms: C5_10  and  N4_11 
REMARK    2  A    between atoms: N4_11  and  N5_13 
REMARK    3  A    between atoms: C6_15  and  C7_16 
REMARK    4  A    between atoms: C6_15  and  C8_21 
REMARK    5  A    between atoms: C7_16  and  N6_17 
REMARK    6  A    between atoms: C10_23  and  C11_24 
REMARK       I    between atoms: C11_24  and  N7_26 
REMARK    7  A    between atoms: N7_26  and  C12_28 
REMARK    8  A    between atoms: C12_28  and  C13_29 
REMARK    9  A    between atoms: C13_29  and  O2_30 
REMARK       I    between atoms: N9_34  and  C14_35 
REMARK   10  A    between atoms: C14_35  and  O4_37 
REMARK   11  A    between atoms: O4_37  and  C15_38 
REMARK   12  A    between atoms: C15_38  and  C16_39 
REMARK   13  A    between atoms: C15_38  and  C17_42 
REMARK   14  A    between atoms: C16_39  and  O5_40 
REMARK   15  A    between atoms: C17_42  and  O6_43 
ROOT
HETATM    1  C8  UNL     1      16.797   8.026  38.563  1.00  0.00     0.090 A 
HETATM    2  C9  UNL     1      17.683   7.567  37.563  1.00  0.00     0.070 A 
HETATM    3  C10 UNL     1      17.162   6.412  37.076  1.00  0.00     0.118 A 
HETATM    4  N8  UNL     1      16.047   6.197  37.734  1.00  0.00    -0.284 N 
ATOM      5  H8  UNL     1      15.436   5.395  37.579  1.00  0.00     0.188 HD
HETATM    6  N9  UNL     1      15.807   7.168  38.645  1.00  0.00    -0.197 N 
HETATM    7  C14 UNL     1      14.662   7.159  39.484  1.00  0.00     0.387 C 
HETATM    8  O3  UNL     1      14.352   7.970  40.333  1.00  0.00    -0.236 OA
ENDROOT
BRANCH   1   9
HETATM    9  C6  UNL     1      17.041   9.255  39.314  1.00  0.00     0.080 C 
HETATM   10  N5  UNL     1      16.490  10.385  39.152  1.00  0.00    -0.287 N 
ATOM     11  H5  UNL     1      15.791  10.498  38.418  1.00  0.00     0.187 HD
BRANCH  10  12
HETATM   12  N4  UNL     1      16.815  11.469  39.948  1.00  0.00    -0.131 N 
ATOM     13  H4  UNL     1      17.769  11.586  40.291  1.00  0.00     0.205 HD
BRANCH  12  14
HETATM   14  C5  UNL     1      15.818  12.413  40.282  1.00  0.00     0.711 C 
HETATM   15  N3  UNL     1      16.225  13.614  40.498  1.00  0.00    -0.161 N 
HETATM   16  C4  UNL     1      15.488  14.790  40.851  1.00  0.00     0.204 C 
ATOM     17  H3  UNL     1      17.231  13.750  40.403  1.00  0.00     0.187 HD
HETATM   18  N1  UNL     1      14.206  14.895  40.740  1.00  0.00    -0.340 N 
HETATM   19  N2  UNL     1      16.205  15.895  41.349  1.00  0.00    -0.063 NA
HETATM   20  C2  UNL     1      13.198  13.967  40.275  1.00  0.00     0.117 C 
ATOM     21  H1  UNL     1      13.836  15.798  41.036  1.00  0.00     0.164 HD
HETATM   22  C1  UNL     1      11.857  14.504  40.730  1.00  0.00     0.059 C 
HETATM   23  C3  UNL     1      13.163  13.850  38.778  1.00  0.00     0.059 C 
HETATM   24  N11 UNL     1      13.357  12.656  40.873  1.00  0.00    -0.095 NA
HETATM   25  N10 UNL     1      14.468  11.980  40.355  1.00  0.00    -0.132 N 
ATOM     26  H10 UNL     1      14.282  11.050  39.979  1.00  0.00     0.201 HD
ENDBRANCH  12  14
ENDBRANCH  10  12
BRANCH   9  27
HETATM   27  C7  UNL     1      18.061   9.202  40.429  1.00  0.00     0.290 C 
BRANCH  27  28
HETATM   28  N6  UNL     1      19.177  10.019  40.062  1.00  0.00    -0.074 N 
ATOM     29  H63 UNL     1      18.914  10.991  39.898  1.00  0.00     0.274 HD
ATOM     30  H62 UNL     1      19.818  10.178  40.839  1.00  0.00     0.274 HD
ATOM     31  H61 UNL     1      19.636   9.596  39.256  1.00  0.00     0.274 HD
ENDBRANCH  27  28
ENDBRANCH   9  27
ENDBRANCH   1   9
BRANCH   3  32
HETATM   32  C11 UNL     1      17.748   5.588  36.024  1.00  0.00     0.269 C 
HETATM   33  O1  UNL     1      18.431   6.138  35.142  1.00  0.00    -0.266 OA
HETATM   34  N7  UNL     1      17.548   4.197  36.002  1.00  0.00    -0.354 N 
ATOM     35  H7  UNL     1      16.986   3.760  36.732  1.00  0.00     0.162 HD
BRANCH  34  36
HETATM   36  C12 UNL     1      18.124   3.378  34.967  1.00  0.00     0.149 C 
BRANCH  36  37
HETATM   37  C13 UNL     1      19.061   2.376  35.598  1.00  0.00     0.183 C 
BRANCH  37  38
HETATM   38  O2  UNL     1      18.253   1.332  36.104  1.00  0.00    -0.399 OA
ATOM     39  H2  UNL     1      18.025   0.782  35.364  1.00  0.00     0.209 HD
ENDBRANCH  37  38
ENDBRANCH  36  37
ENDBRANCH  34  36
ENDBRANCH   3  32
BRANCH   7  40
HETATM   40  O4  UNL     1      13.728   6.106  39.372  1.00  0.00    -0.293 OA
BRANCH  40  41
HETATM   41  C15 UNL     1      13.745   4.970  40.166  1.00  0.00     0.180 C 
BRANCH  41  42
HETATM   42  C16 UNL     1      13.823   3.678  39.372  1.00  0.00     0.199 C 
BRANCH  42  43
HETATM   43  O5  UNL     1      14.822   3.657  38.445  1.00  0.00    -0.398 OA
ATOM     44  H5  UNL     1      14.520   3.772  37.552  1.00  0.00     0.209 HD
ENDBRANCH  42  43
ENDBRANCH  41  42
BRANCH  41  45
HETATM   45  C17 UNL     1      14.772   5.001  41.273  1.00  0.00     0.199 C 
BRANCH  45  46
HETATM   46  O6  UNL     1      15.973   4.518  40.702  1.00  0.00    -0.398 OA
ATOM     47  H6  UNL     1      16.620   5.200  40.838  1.00  0.00     0.209 HD
ENDBRANCH  45  46
ENDBRANCH  41  45
ENDBRANCH  40  41
ENDBRANCH   7  40
TORSDOF 15
ENDMDL
MODEL 3
REMARK VINA RESULT: -1.554326672      1.565      2.502
REMARK  15 active torsions:
REMARK  status: ('A' for Active; 'I' for Inactive)
REMARK    1  A    between atoms: C5_10  and  N4_11 
REMARK    2  A    between atoms: N4_11  and  N5_13 
REMARK    3  A    between atoms: C6_15  and  C7_16 
REMARK    4  A    between atoms: C6_15  and  C8_21 
REMARK    5  A    between atoms: C7_16  and  N6_17 
REMARK    6  A    between atoms: C10_23  and  C11_24 
REMARK       I    between atoms: C11_24  and  N7_26 
REMARK    7  A    between atoms: N7_26  and  C12_28 
REMARK    8  A    between atoms: C12_28  and  C13_29 
REMARK    9  A    between atoms: C13_29  and  O2_30 
REMARK       I    between atoms: N9_34  and  C14_35 
REMARK   10  A    between atoms: C14_35  and  O4_37 
REMARK   11  A    between atoms: O4_37  and  C15_38 
REMARK   12  A    between atoms: C15_38  and  C16_39 
REMARK   13  A    between atoms: C15_38  and  C17_42 
REMARK   14  A    between atoms: C16_39  and  O5_40 
REMARK   15  A    between atoms: C17_42  and  O6_43 
ROOT
HETATM    1  C8  UNL     1      15.385   8.278  38.665  1.00  0.00     0.090 A 
HETATM    2  C9  UNL     1      16.193   8.190  37.509  1.00  0.00     0.070 A 
HETATM    3  C10 UNL     1      16.737   6.946  37.504  1.00  0.00     0.118 A 
HETATM    4  N8  UNL     1      16.288   6.336  38.575  1.00  0.00    -0.284 N 
ATOM      5  H8  UNL     1      16.531   5.380  38.834  1.00  0.00     0.188 HD
HETATM    6  N9  UNL     1      15.464   7.130  39.297  1.00  0.00    -0.197 N 
HETATM    7  C14 UNL     1      14.852   6.697  40.502  1.00  0.00     0.387 C 
HETATM    8  O3  UNL     1      14.104   7.323  41.228  1.00  0.00    -0.236 OA
ENDROOT
BRANCH   1   9
HETATM    9  C6  UNL     1      14.638   9.488  39.002  1.00  0.00     0.080 C 
HETATM   10  N5  UNL     1      14.374   9.941  40.156  1.00  0.00    -0.287 N 
ATOM     11  H5  UNL     1      14.697   9.429  40.977  1.00  0.00     0.187 HD
BRANCH  10  12
HETATM   12  N4  UNL     1      13.658  11.112  40.327  1.00  0.00    -0.131 N 
ATOM     13  H4  UNL     1      12.639  11.091  40.362  1.00  0.00     0.205 HD
BRANCH  12  14
HETATM   14  C5  UNL     1      14.348  12.339  40.452  1.00  0.00     0.711 C 
HETATM   15  N3  UNL     1      13.665  13.401  40.204  1.00  0.00    -0.161 N 
HETATM   16  C4  UNL     1      14.055  14.778  40.238  1.00  0.00     0.204 C 
ATOM     17  H3  UNL     1      12.694  13.235  39.942  1.00  0.00     0.187 HD
HETATM   18  N1  UNL     1      15.129  15.208  40.810  1.00  0.00    -0.340 N 
HETATM   19  N2  UNL     1      13.216  15.718  39.608  1.00  0.00    -0.063 NA
HETATM   20  C2  UNL     1      16.180  14.521  41.529  1.00  0.00     0.117 C 
ATOM     21  H1  UNL     1      15.261  16.217  40.743  1.00  0.00     0.164 HD
HETATM   22  C1  UNL     1      17.348  15.482  41.633  1.00  0.00     0.059 C 
HETATM   23  C3  UNL     1      15.776  14.136  42.923  1.00  0.00     0.059 C 
HETATM   24  N11 UNL     1      16.652  13.355  40.808  1.00  0.00    -0.095 NA
HETATM   25  N10 UNL     1      15.716  12.315  40.835  1.00  0.00    -0.132 N 
ATOM     26  H10 UNL     1      16.063  11.418  41.174  1.00  0.00     0.201 HD
ENDBRANCH  12  14
ENDBRANCH  10  12
BRANCH   9  27
HETATM   27  C7  UNL     1      14.111  10.325  37.857  1.00  0.00     0.290 C 
BRANCH  27  28
HETATM   28  N6  UNL     1      13.135   9.558  37.147  1.00  0.00    -0.074 N 
ATOM     29  H63 UNL     1      12.418  10.141  36.714  1.00  0.00     0.274 HD
ATOM     30  H62 UNL     1      13.508   9.140  36.295  1.00  0.00     0.274 HD
ATOM     31  H61 UNL     1      12.743   8.864  37.784  1.00  0.00     0.274 HD
ENDBRANCH  27  28
ENDBRANCH   9  27
ENDBRANCH   1   9
BRANCH   3  32
HETATM   32  C11 UNL     1      17.643   6.416  36.491  1.00  0.00     0.269 C 
HETATM   33  O1  UNL     1      18.404   7.201  35.897  1.00  0.00    -0.266 OA
HETATM   34  N7  UNL     1      17.661   5.044  36.187  1.00  0.00    -0.354 N 
ATOM     35  H7  UNL     1      17.031   4.412  36.682  1.00  0.00     0.162 HD
BRANCH  34  36
HETATM   36  C12 UNL     1      18.553   4.514  35.188  1.00  0.00     0.149 C 
BRANCH  36  37
HETATM   37  C13 UNL     1      18.535   3.006  35.265  1.00  0.00     0.183 C 
BRANCH  37  38
HETATM   38  O2  UNL     1      17.621   2.665  36.289  1.00  0.00    -0.399 OA
ATOM     39  H2  UNL     1      18.046   2.876  37.113  1.00  0.00     0.209 HD
ENDBRANCH  37  38
ENDBRANCH  36  37
ENDBRANCH  34  36
ENDBRANCH   3  32
BRANCH   7  40
HETATM   40  O4  UNL     1      15.099   5.391  40.976  1.00  0.00    -0.293 OA
BRANCH  40  41
HETATM   41  C15 UNL     1      14.439   4.263  40.514  1.00  0.00     0.180 C 
BRANCH  41  42
HETATM   42  C16 UNL     1      13.141   4.574  39.789  1.00  0.00     0.199 C 
BRANCH  42  43
HETATM   43  O5  UNL     1      12.733   3.590  38.940  1.00  0.00    -0.398 OA
ATOM     44  H5  UNL     1      12.843   3.804  38.021  1.00  0.00     0.209 HD
ENDBRANCH  42  43
ENDBRANCH  41  42
BRANCH  41  45
HETATM   45  C17 UNL     1      15.306   3.320  39.714  1.00  0.00     0.199 C 
BRANCH  45  46
HETATM   46  O6  UNL     1      15.137   3.692  38.359  1.00  0.00    -0.398 OA
ATOM     47  H6  UNL     1      15.103   2.880  37.868  1.00  0.00     0.209 HD
ENDBRANCH  45  46
ENDBRANCH  41  45
ENDBRANCH  40  41
ENDBRANCH   7  40
TORSDOF 15
ENDMDL
MODEL 4
REMARK VINA RESULT: -1.268530073      0.801      1.305
REMARK  15 active torsions:
REMARK  status: ('A' for Active; 'I' for Inactive)
REMARK    1  A    between atoms: C5_10  and  N4_11 
REMARK    2  A    between atoms: N4_11  and  N5_13 
REMARK    3  A    between atoms: C6_15  and  C7_16 
REMARK    4  A    between atoms: C6_15  and  C8_21 
REMARK    5  A    between atoms: C7_16  and  N6_17 
REMARK    6  A    between atoms: C10_23  and  C11_24 
REMARK       I    between atoms: C11_24  and  N7_26 
REMARK    7  A    between atoms: N7_26  and  C12_28 
REMARK    8  A    between atoms: C12_28  and  C13_29 
REMARK    9  A    between atoms: C13_29  and  O2_30 
REMARK       I    between atoms: N9_34  and  C14_35 
REMARK   10  A    between atoms: C14_35  and  O4_37 
REMARK   11  A    between atoms: O4_37  and  C15_38 
REMARK   12  A    between atoms: C15_38  and  C16_39 
REMARK   13  A    between atoms: C15_38  and  C17_42 
REMARK   14  A    between atoms: C16_39  and  O5_40 
REMARK   15  A    between atoms: C17_42  and  O6_43 
ROOT
HETATM    1  C8  UNL     1      15.313   9.502  38.753  1.00  0.00     0.090 A 
HETATM    2  C9  UNL     1      16.306   9.367  37.757  1.00  0.00     0.070 A 
HETATM    3  C10 UNL     1      16.605   8.045  37.677  1.00  0.00     0.118 A 
HETATM    4  N8  UNL     1      15.848   7.436  38.558  1.00  0.00    -0.284 N 
ATOM      5  H8  UNL     1      15.857   6.429  38.722  1.00  0.00     0.188 HD
HETATM    6  N9  UNL     1      15.054   8.305  39.225  1.00  0.00    -0.197 N 
HETATM    7  C14 UNL     1      14.146   7.888  40.233  1.00  0.00     0.387 C 
HETATM    8  O3  UNL     1      13.395   8.578  40.894  1.00  0.00    -0.236 OA
ENDROOT
BRANCH   1   9
HETATM    9  C6  UNL     1      14.746  10.799  39.115  1.00  0.00     0.080 C 
HETATM   10  N5  UNL     1      15.262  11.693  39.851  1.00  0.00    -0.287 N 
ATOM     11  H5  UNL     1      16.179  11.528  40.266  1.00  0.00     0.187 HD
BRANCH  10  12
HETATM   12  N4  UNL     1      14.610  12.886  40.104  1.00  0.00    -0.131 N 
ATOM     13  H4  UNL     1      13.744  13.113  39.614  1.00  0.00     0.205 HD
BRANCH  12  14
HETATM   14  C5  UNL     1      15.151  13.791  41.046  1.00  0.00     0.711 C 
HETATM   15  N3  UNL     1      15.292  13.344  42.244  1.00  0.00    -0.161 N 
HETATM   16  C4  UNL     1      15.801  13.989  43.416  1.00  0.00     0.204 C 
ATOM     17  H3  UNL     1      14.994  12.378  42.379  1.00  0.00     0.187 HD
HETATM   18  N1  UNL     1      16.481  15.086  43.396  1.00  0.00    -0.340 N 
HETATM   19  N2  UNL     1      15.544  13.390  44.665  1.00  0.00    -0.063 NA
HETATM   20  C2  UNL     1      16.910  15.936  42.305  1.00  0.00     0.117 C 
ATOM     21  H1  UNL     1      16.769  15.415  44.317  1.00  0.00     0.164 HD
HETATM   22  C1  UNL     1      17.334  17.257  42.913  1.00  0.00     0.059 C 
HETATM   23  C3  UNL     1      18.084  15.374  41.557  1.00  0.00     0.059 C 
HETATM   24  N11 UNL     1      15.824  16.219  41.386  1.00  0.00    -0.095 NA
HETATM   25  N10 UNL     1      15.492  15.100  40.614  1.00  0.00    -0.132 N 
ATOM     26  H10 UNL     1      15.496  15.245  39.604  1.00  0.00     0.201 HD
ENDBRANCH  12  14
ENDBRANCH  10  12
BRANCH   9  27
HETATM   27  C7  UNL     1      13.386  11.148  38.553  1.00  0.00     0.290 C 
BRANCH  27  28
HETATM   28  N6  UNL     1      13.525  11.394  37.151  1.00  0.00    -0.074 N 
ATOM     29  H63 UNL     1      12.863  12.090  36.807  1.00  0.00     0.274 HD
ATOM     30  H62 UNL     1      14.383  11.895  36.924  1.00  0.00     0.274 HD
ATOM     31  H61 UNL     1      13.448  10.504  36.658  1.00  0.00     0.274 HD
ENDBRANCH  27  28
ENDBRANCH   9  27
ENDBRANCH   1   9
BRANCH   3  32
HETATM   32  C11 UNL     1      17.583   7.445  36.777  1.00  0.00     0.269 C 
HETATM   33  O1  UNL     1      18.529   8.142  36.368  1.00  0.00    -0.266 OA
HETATM   34  N7  UNL     1      17.465   6.103  36.374  1.00  0.00    -0.354 N 
ATOM     35  H7  UNL     1      16.684   5.544  36.718  1.00  0.00     0.162 HD
BRANCH  34  36
HETATM   36  C12 UNL     1      18.427   5.504  35.486  1.00  0.00     0.149 C 
BRANCH  36  37
HETATM   37  C13 UNL     1      18.286   4.002  35.551  1.00  0.00     0.183 C 
BRANCH  37  38
HETATM   38  O2  UNL     1      17.529   3.718  36.710  1.00  0.00    -0.399 OA
ATOM     39  H2  UNL     1      18.147   3.656  37.430  1.00  0.00     0.209 HD
ENDBRANCH  37  38
ENDBRANCH  36  37
ENDBRANCH  34  36
ENDBRANCH   3  32
BRANCH   7  40
HETATM   40  O4  UNL     1      14.052   6.518  40.559  1.00  0.00    -0.293 OA
BRANCH  40  41
HETATM   41  C15 UNL     1      14.998   5.834  41.306  1.00  0.00     0.180 C 
BRANCH  41  42
HETATM   42  C16 UNL     1      15.118   4.367  40.936  1.00  0.00     0.199 C 
BRANCH  42  43
HETATM   43  O5  UNL     1      14.661   4.072  39.687  1.00  0.00    -0.398 OA
ATOM     44  H5  UNL     1      13.852   3.575  39.680  1.00  0.00     0.209 HD
ENDBRANCH  42  43
ENDBRANCH  41  42
BRANCH  41  45
HETATM   45  C17 UNL     1      16.351   6.504  41.357  1.00  0.00     0.199 C 
BRANCH  45  46
HETATM   46  O6  UNL     1      17.258   5.591  40.768  1.00  0.00    -0.398 OA
ATOM     47  H6  UNL     1      18.107   5.786  41.146  1.00  0.00     0.209 HD
ENDBRANCH  45  46
ENDBRANCH  41  45
ENDBRANCH  40  41
ENDBRANCH   7  40
TORSDOF 15
ENDMDL
MODEL 5
REMARK VINA RESULT: -1.224364639      1.979      2.925
REMARK  15 active torsions:
REMARK  status: ('A' for Active; 'I' for Inactive)
REMARK    1  A    between atoms: C5_10  and  N4_11 
REMARK    2  A    between atoms: N4_11  and  N5_13 
REMARK    3  A    between atoms: C6_15  and  C7_16 
REMARK    4  A    between atoms: C6_15  and  C8_21 
REMARK    5  A    between atoms: C7_16  and  N6_17 
REMARK    6  A    between atoms: C10_23  and  C11_24 
REMARK       I    between atoms: C11_24  and  N7_26 
REMARK    7  A    between atoms: N7_26  and  C12_28 
REMARK    8  A    between atoms: C12_28  and  C13_29 
REMARK    9  A    between atoms: C13_29  and  O2_30 
REMARK       I    between atoms: N9_34  and  C14_35 
REMARK   10  A    between atoms: C14_35  and  O4_37 
REMARK   11  A    between atoms: O4_37  and  C15_38 
REMARK   12  A    between atoms: C15_38  and  C16_39 
REMARK   13  A    between atoms: C15_38  and  C17_42 
REMARK   14  A    between atoms: C16_39  and  O5_40 
REMARK   15  A    between atoms: C17_42  and  O6_43 
ROOT
HETATM    1  C8  UNL     1      16.780   8.069  38.764  1.00  0.00     0.090 A 
HETATM    2  C9  UNL     1      17.641   7.614  37.740  1.00  0.00     0.070 A 
HETATM    3  C10 UNL     1      17.055   6.518  37.193  1.00  0.00     0.118 A 
HETATM    4  N8  UNL     1      15.929   6.332  37.841  1.00  0.00    -0.284 N 
ATOM      5  H8  UNL     1      15.274   5.576  37.644  1.00  0.00     0.188 HD
HETATM    6  N9  UNL     1      15.743   7.266  38.802  1.00  0.00    -0.197 N 
HETATM    7  C14 UNL     1      14.598   7.278  39.641  1.00  0.00     0.387 C 
HETATM    8  O3  UNL     1      14.333   8.060  40.533  1.00  0.00    -0.236 OA
ENDROOT
BRANCH   1   9
HETATM    9  C6  UNL     1      17.093   9.242  39.579  1.00  0.00     0.080 C 
HETATM   10  N5  UNL     1      16.435  10.321  39.669  1.00  0.00    -0.287 N 
ATOM     11  H5  UNL     1      15.581  10.431  39.122  1.00  0.00     0.187 HD
BRANCH  10  12
HETATM   12  N4  UNL     1      16.847  11.353  40.494  1.00  0.00    -0.131 N 
ATOM     13  H4  UNL     1      17.630  11.217  41.134  1.00  0.00     0.205 HD
BRANCH  12  14
HETATM   14  C5  UNL     1      16.178  12.597  40.442  1.00  0.00     0.711 C 
HETATM   15  N3  UNL     1      14.893  12.548  40.422  1.00  0.00    -0.161 N 
HETATM   16  C4  UNL     1      13.929  13.605  40.372  1.00  0.00     0.204 C 
ATOM     17  H3  UNL     1      14.499  11.607  40.444  1.00  0.00     0.187 HD
HETATM   18  N1  UNL     1      14.204  14.842  40.623  1.00  0.00    -0.340 N 
HETATM   19  N2  UNL     1      12.604  13.276  40.028  1.00  0.00    -0.063 NA
HETATM   20  C2  UNL     1      15.438  15.499  40.997  1.00  0.00     0.117 C 
ATOM     21  H1  UNL     1      13.405  15.470  40.542  1.00  0.00     0.164 HD
HETATM   22  C1  UNL     1      15.232  16.985  40.782  1.00  0.00     0.059 C 
HETATM   23  C3  UNL     1      15.796  15.287  42.440  1.00  0.00     0.059 C 
HETATM   24  N11 UNL     1      16.541  15.096  40.147  1.00  0.00    -0.095 NA
HETATM   25  N10 UNL     1      16.954  13.786  40.417  1.00  0.00    -0.132 N 
ATOM     26  H10 UNL     1      17.946  13.671  40.625  1.00  0.00     0.201 HD
ENDBRANCH  12  14
ENDBRANCH  10  12
BRANCH   9  27
HETATM   27  C7  UNL     1      18.340   9.186  40.433  1.00  0.00     0.290 C 
BRANCH  27  28
HETATM   28  N6  UNL     1      19.151  10.323  40.124  1.00  0.00    -0.074 N 
ATOM     29  H63 UNL     1      18.923  11.135  40.699  1.00  0.00     0.274 HD
ATOM     30  H62 UNL     1      20.119  10.207  40.425  1.00  0.00     0.274 HD
ATOM     31  H61 UNL     1      19.072  10.515  39.126  1.00  0.00     0.274 HD
ENDBRANCH  27  28
ENDBRANCH   9  27
ENDBRANCH   1   9
BRANCH   3  32
HETATM   32  C11 UNL     1      17.595   5.719  36.099  1.00  0.00     0.269 C 
HETATM   33  O1  UNL     1      18.231   6.291  35.196  1.00  0.00    -0.266 OA
HETATM   34  N7  UNL     1      17.404   4.327  36.060  1.00  0.00    -0.354 N 
ATOM     35  H7  UNL     1      16.881   3.872  36.807  1.00  0.00     0.162 HD
BRANCH  34  36
HETATM   36  C12 UNL     1      17.934   3.533  34.982  1.00  0.00     0.149 C 
BRANCH  36  37
HETATM   37  C13 UNL     1      18.954   2.568  35.539  1.00  0.00     0.183 C 
BRANCH  37  38
HETATM   38  O2  UNL     1      18.228   1.481  36.079  1.00  0.00    -0.399 OA
ATOM     39  H2  UNL     1      17.558   1.854  36.639  1.00  0.00     0.209 HD
ENDBRANCH  37  38
ENDBRANCH  36  37
ENDBRANCH  34  36
ENDBRANCH   3  32
BRANCH   7  40
HETATM   40  O4  UNL     1      13.606   6.288  39.475  1.00  0.00    -0.293 OA
BRANCH  40  41
HETATM   41  C15 UNL     1      13.594   5.082  40.159  1.00  0.00     0.180 C 
BRANCH  41  42
HETATM   42  C16 UNL     1      13.458   3.872  39.252  1.00  0.00     0.199 C 
BRANCH  42  43
HETATM   43  O5  UNL     1      14.477   3.732  38.359  1.00  0.00    -0.398 OA
ATOM     44  H5  UNL     1      14.436   2.932  37.848  1.00  0.00     0.209 HD
ENDBRANCH  42  43
ENDBRANCH  41  42
BRANCH  41  45
HETATM   45  C17 UNL     1      14.732   4.913  41.138  1.00  0.00     0.199 C 
BRANCH  45  46
HETATM   46  O6  UNL     1      15.649   4.031  40.518  1.00  0.00    -0.398 OA
ATOM     47  H6  UNL     1      16.315   4.582  40.124  1.00  0.00     0.209 HD
ENDBRANCH  45  46
ENDBRANCH  41  45
ENDBRANCH  40  41
ENDBRANCH   7  40
TORSDOF 15
ENDMDL
