MODEL 1
REMARK VINA RESULT: -2.182061796      0.000      0.000
REMARK  11 active torsions:
REMARK  status: ('A' for Active; 'I' for Inactive)
REMARK    1  A    between atoms: N1_1  and  C1_4 
REMARK    2  A    between atoms: C3_6  and  N2_7 
REMARK    3  A    between atoms: C7_19  and  N7_20 
REMARK       I    between atoms: N7_20  and  C8_22 
REMARK       I    between atoms: C8_22  and  N8_23 
REMARK       I    between atoms: C8_22  and  N9_27 
REMARK    4  A    between atoms: C9_31  and  O1_32 
REMARK    5  A    between atoms: C10_34  and  N10_35 
REMARK    6  A    between atoms: N10_35  and  C11_37 
REMARK    7  A    between atoms: C11_37  and  C12_38 
REMARK    8  A    between atoms: C11_37  and  C13_43 
REMARK    9  A    between atoms: C12_38  and  N11_39 
REMARK   10  A    between atoms: C13_43  and  N12_44 
REMARK   11  A    between atoms: C16_53  and  N16_54 
ROOT
HETATM    1  N2  UNL     1       7.914   7.137  44.961  1.00  0.00    -0.277 N 
HETATM    2  C4  UNL     1       7.463   7.395  43.718  1.00  0.00     0.091 A 
HETATM    3  C5  UNL     1       7.120   8.715  43.254  1.00  0.00     0.165 A 
HETATM    4  N3  UNL     1       7.134   9.877  43.860  1.00  0.00    -0.267 N 
ATOM      5  H3  UNL     1       7.417   9.995  44.833  1.00  0.00     0.190 HD
HETATM    6  N4  UNL     1       6.747  10.876  43.094  1.00  0.00    -0.227 N 
ATOM      7  H4  UNL     1       6.679  11.860  43.354  1.00  0.00     0.210 HD
HETATM    8  N5  UNL     1       6.463  10.337  41.913  1.00  0.00    -0.227 N 
ATOM      9  H5  UNL     1       6.133  10.844  41.091  1.00  0.00     0.210 HD
HETATM   10  N6  UNL     1       6.679   9.039  41.981  1.00  0.00    -0.267 N 
ATOM     11  H6  UNL     1       6.542   8.377  41.217  1.00  0.00     0.190 HD
HETATM   12  C6  UNL     1       7.283   6.354  42.769  1.00  0.00     0.066 A 
HETATM   13  C7  UNL     1       7.586   5.087  43.180  1.00  0.00     0.070 A 
HETATM   14  C9  UNL     1       8.042   4.858  44.448  1.00  0.00     0.137 A 
HETATM   15  C10 UNL     1       8.224   5.905  45.397  1.00  0.00     0.146 A 
ENDROOT
BRANCH  15  16
HETATM   16  N10 UNL     1       8.778   5.542  46.614  1.00  0.00    -0.366 N 
ATOM     17  H10 UNL     1       9.356   6.298  46.983  1.00  0.00     0.161 HD
BRANCH  16  18
HETATM   18  C11 UNL     1       8.785   4.446  47.495  1.00  0.00     0.128 C 
BRANCH  18  19
HETATM   19  C12 UNL     1       9.400   4.896  48.869  1.00  0.00     0.256 C 
BRANCH  19  20
HETATM   20  N11 UNL     1      10.625   5.571  48.548  1.00  0.00    -0.077 N 
ATOM     21 3H11 UNL     1      11.076   5.218  47.704  1.00  0.00     0.274 HD
ATOM     22 2H11 UNL     1      10.490   6.528  48.224  1.00  0.00     0.274 HD
ATOM     23 1H11 UNL     1      11.209   5.501  49.382  1.00  0.00     0.274 HD
ENDBRANCH  19  20
ENDBRANCH  18  19
BRANCH  18  24
HETATM   24  C13 UNL     1       7.329   4.074  47.805  1.00  0.00     0.176 C 
BRANCH  24  25
HETATM   25  N12 UNL     1       7.127   2.656  47.949  1.00  0.00    -0.285 N 
HETATM   26  C14 UNL     1       7.081   1.980  49.112  1.00  0.00     0.201 A 
HETATM   27  N13 UNL     1       6.864   0.680  48.837  1.00  0.00    -0.346 N 
HETATM   28  C15 UNL     1       6.771   0.531  47.506  1.00  0.00     0.198 A 
ATOM     29  H13 UNL     1       6.782  -0.067  49.526  1.00  0.00     0.167 HD
HETATM   30  N14 UNL     1       6.937   1.763  46.993  1.00  0.00    -0.293 N 
ATOM     31  H14 UNL     1       6.920   1.980  45.996  1.00  0.00     0.188 HD
ENDBRANCH  24  25
ENDBRANCH  18  24
ENDBRANCH  16  18
ENDBRANCH  15  16
BRANCH   1  32
HETATM   32  C3  UNL     1       7.984   8.223  45.863  1.00  0.00     0.133 A 
HETATM   33  C2  UNL     1       9.245   8.485  46.444  1.00  0.00     0.098 A 
HETATM   34  C1  UNL     1       9.449   9.514  47.326  1.00  0.00     0.118 A 
HETATM   35  N17 UNL     1       8.407  10.300  47.645  1.00  0.00    -0.177 N 
HETATM   36  C16 UNL     1       7.190  10.076  47.109  1.00  0.00     0.679 A 
ATOM     37  H17 UNL     1       8.538  11.072  48.299  1.00  0.00     0.185 HD
HETATM   38  N15 UNL     1       7.006   9.044  46.232  1.00  0.00    -0.176 N 
ATOM     39  H15 UNL     1       6.074   8.896  45.844  1.00  0.00     0.186 HD
BRANCH  34  40
HETATM   40  N1  UNL     1      10.590   9.771  47.867  1.00  0.00    -0.385 N 
ATOM     41  H12 UNL     1      10.870   9.221  48.679  1.00  0.00     0.157 HD
ATOM     42  H11 UNL     1      11.224  10.494  47.527  1.00  0.00     0.157 HD
ENDBRANCH  34  40
BRANCH  36  43
HETATM   43  N16 UNL     1       6.224  10.840  47.435  1.00  0.00    -0.234 N 
ATOM     44 2H16 UNL     1       5.281  10.452  47.476  1.00  0.00     0.174 HD
ATOM     45 1H16 UNL     1       6.382  11.824  47.650  1.00  0.00     0.174 HD
ENDBRANCH  36  43
ENDBRANCH   1  32
BRANCH  14  46
HETATM   46  O1  UNL     1       8.324   3.542  44.780  1.00  0.00    -0.355 OA
ATOM     47  H1  UNL     1       8.948   3.086  44.227  1.00  0.00     0.218 HD
ENDBRANCH  14  46
BRANCH  13  48
HETATM   48  N7  UNL     1       7.437   4.105  42.349  1.00  0.00    -0.339 N 
HETATM   49  C8  UNL     1       6.375   3.151  42.481  1.00  0.00     0.480 C 
HETATM   50  N8  UNL     1       6.224   2.377  41.241  1.00  0.00    -0.033 N 
HETATM   51  N9  UNL     1       6.691   2.237  43.543  1.00  0.00    -0.033 N 
ATOM     52  H83 UNL     1       6.092   2.981  40.431  1.00  0.00     0.278 HD
ATOM     53  H82 UNL     1       7.100   1.935  40.960  1.00  0.00     0.278 HD
ATOM     54  H81 UNL     1       5.468   1.698  41.335  1.00  0.00     0.278 HD
ATOM     55  H93 UNL     1       7.599   1.791  43.413  1.00  0.00     0.278 HD
ATOM     56  H92 UNL     1       6.890   2.718  44.420  1.00  0.00     0.278 HD
ATOM     57  H91 UNL     1       5.935   1.559  43.637  1.00  0.00     0.278 HD
ATOM     58  H7  UNL     1       8.095   4.008  41.576  1.00  0.00     0.163 HD
ENDBRANCH  13  48
TORSDOF 11
ENDMDL
MODEL 2
REMARK VINA RESULT: -0.342844796      9.770     11.864
REMARK  11 active torsions:
REMARK  status: ('A' for Active; 'I' for Inactive)
REMARK    1  A    between atoms: N1_1  and  C1_4 
REMARK    2  A    between atoms: C3_6  and  N2_7 
REMARK    3  A    between atoms: C7_19  and  N7_20 
REMARK       I    between atoms: N7_20  and  C8_22 
REMARK       I    between atoms: C8_22  and  N8_23 
REMARK       I    between atoms: C8_22  and  N9_27 
REMARK    4  A    between atoms: C9_31  and  O1_32 
REMARK    5  A    between atoms: C10_34  and  N10_35 
REMARK    6  A    between atoms: N10_35  and  C11_37 
REMARK    7  A    between atoms: C11_37  and  C12_38 
REMARK    8  A    between atoms: C11_37  and  C13_43 
REMARK    9  A    between atoms: C12_38  and  N11_39 
REMARK   10  A    between atoms: C13_43  and  N12_44 
REMARK   11  A    between atoms: C16_53  and  N16_54 
ROOT
HETATM    1  N2  UNL     1      16.154  10.952  40.117  1.00  0.00    -0.277 N 
HETATM    2  C4  UNL     1      16.726  12.074  40.596  1.00  0.00     0.091 A 
HETATM    3  C5  UNL     1      16.045  13.340  40.679  1.00  0.00     0.165 A 
HETATM    4  N3  UNL     1      14.834  13.697  40.327  1.00  0.00    -0.267 N 
ATOM      5  H3  UNL     1      14.162  13.054  39.908  1.00  0.00     0.190 HD
HETATM    6  N4  UNL     1      14.568  14.965  40.564  1.00  0.00    -0.227 N 
ATOM      7  H4  UNL     1      13.696  15.458  40.371  1.00  0.00     0.210 HD
HETATM    8  N5  UNL     1      15.671  15.471  41.106  1.00  0.00    -0.227 N 
ATOM      9  H5  UNL     1      15.797  16.437  41.409  1.00  0.00     0.210 HD
HETATM   10  N6  UNL     1      16.575  14.515  41.187  1.00  0.00    -0.267 N 
ATOM     11  H6  UNL     1      17.517  14.624  41.564  1.00  0.00     0.190 HD
HETATM   12  C6  UNL     1      18.071  12.079  41.051  1.00  0.00     0.066 A 
HETATM   13  C7  UNL     1      18.752  10.896  40.974  1.00  0.00     0.070 A 
HETATM   14  C9  UNL     1      18.144   9.775  40.483  1.00  0.00     0.137 A 
HETATM   15  C10 UNL     1      16.793   9.773  40.031  1.00  0.00     0.146 A 
ENDROOT
BRANCH  15  16
HETATM   16  N10 UNL     1      16.276   8.546  39.643  1.00  0.00    -0.366 N 
ATOM     17  H10 UNL     1      16.593   7.810  40.275  1.00  0.00     0.161 HD
BRANCH  16  18
HETATM   18  C11 UNL     1      15.447   8.010  38.642  1.00  0.00     0.128 C 
BRANCH  18  19
HETATM   19  C12 UNL     1      16.167   6.776  37.988  1.00  0.00     0.256 C 
BRANCH  19  20
HETATM   20  N11 UNL     1      17.335   7.301  37.341  1.00  0.00    -0.077 N 
ATOM     21 3H11 UNL     1      17.194   7.514  36.353  1.00  0.00     0.274 HD
ATOM     22 2H11 UNL     1      17.574   8.247  37.637  1.00  0.00     0.274 HD
ATOM     23 1H11 UNL     1      18.077   6.621  37.510  1.00  0.00     0.274 HD
ENDBRANCH  19  20
ENDBRANCH  18  19
BRANCH  18  24
HETATM   24  C13 UNL     1      14.194   7.437  39.316  1.00  0.00     0.176 C 
BRANCH  24  25
HETATM   25  N12 UNL     1      14.442   6.199  40.008  1.00  0.00    -0.285 N 
HETATM   26  C14 UNL     1      13.808   5.031  39.787  1.00  0.00     0.201 A 
HETATM   27  N13 UNL     1      14.325   4.107  40.617  1.00  0.00    -0.346 N 
HETATM   28  C15 UNL     1      15.283   4.682  41.361  1.00  0.00     0.198 A 
ATOM     29  H13 UNL     1      14.037   3.130  40.671  1.00  0.00     0.167 HD
HETATM   30  N14 UNL     1      15.328   5.965  40.961  1.00  0.00    -0.293 N 
ATOM     31  H14 UNL     1      15.962   6.667  41.342  1.00  0.00     0.188 HD
ENDBRANCH  24  25
ENDBRANCH  18  24
ENDBRANCH  16  18
ENDBRANCH  15  16
BRANCH   1  32
HETATM   32  C3  UNL     1      14.839  11.059  39.612  1.00  0.00     0.133 A 
HETATM   33  C2  UNL     1      14.709  11.289  38.223  1.00  0.00     0.098 A 
HETATM   34  C1  UNL     1      13.490  11.402  37.607  1.00  0.00     0.118 A 
HETATM   35  N17 UNL     1      12.381  11.290  38.357  1.00  0.00    -0.177 N 
HETATM   36  C16 UNL     1      12.470  11.072  39.685  1.00  0.00     0.679 A 
ATOM     37  H17 UNL     1      11.464  11.370  37.918  1.00  0.00     0.185 HD
HETATM   38  N15 UNL     1      13.695  10.963  40.281  1.00  0.00    -0.176 N 
ATOM     39  H15 UNL     1      13.733  10.800  41.288  1.00  0.00     0.186 HD
BRANCH  34  40
HETATM   40  N1  UNL     1      13.349  11.611  36.344  1.00  0.00    -0.385 N 
ATOM     41  H12 UNL     1      13.551  12.544  35.986  1.00  0.00     0.157 HD
ATOM     42  H11 UNL     1      13.046  10.893  35.685  1.00  0.00     0.157 HD
ENDBRANCH  34  40
BRANCH  36  43
HETATM   43  N16 UNL     1      11.399  10.971  40.365  1.00  0.00    -0.234 N 
ATOM     44 2H16 UNL     1      11.050  10.042  40.603  1.00  0.00     0.174 HD
ATOM     45 1H16 UNL     1      10.890  11.801  40.670  1.00  0.00     0.174 HD
ENDBRANCH  36  43
ENDBRANCH   1  32
BRANCH  14  46
HETATM   46  O1  UNL     1      18.908   8.620  40.441  1.00  0.00    -0.355 OA
ATOM     47  H1  UNL     1      18.458   7.818  40.201  1.00  0.00     0.218 HD
ENDBRANCH  14  46
BRANCH  13  48
HETATM   48  N7  UNL     1      19.982  10.853  41.376  1.00  0.00    -0.339 N 
HETATM   49  C8  UNL     1      21.064  11.337  40.569  1.00  0.00     0.480 C 
HETATM   50  N8  UNL     1      22.278  11.497  41.381  1.00  0.00    -0.033 N 
HETATM   51  N9  UNL     1      21.342  10.384  39.532  1.00  0.00    -0.033 N 
ATOM     52  H83 UNL     1      22.115  12.092  42.194  1.00  0.00     0.278 HD
ATOM     53  H82 UNL     1      22.524  10.636  41.871  1.00  0.00     0.278 HD
ATOM     54  H81 UNL     1      23.047  11.842  40.807  1.00  0.00     0.278 HD
ATOM     55  H93 UNL     1      21.522   9.450  39.902  1.00  0.00     0.278 HD
ATOM     56  H92 UNL     1      20.515  10.163  38.978  1.00  0.00     0.278 HD
ATOM     57  H91 UNL     1      22.112  10.729  38.958  1.00  0.00     0.278 HD
ATOM     58  H7  UNL     1      20.188  10.462  42.296  1.00  0.00     0.163 HD
ENDBRANCH  13  48
TORSDOF 11
ENDMDL
MODEL 3
REMARK VINA RESULT: -0.341062383     10.053     12.732
REMARK  11 active torsions:
REMARK  status: ('A' for Active; 'I' for Inactive)
REMARK    1  A    between atoms: N1_1  and  C1_4 
REMARK    2  A    between atoms: C3_6  and  N2_7 
REMARK    3  A    between atoms: C7_19  and  N7_20 
REMARK       I    between atoms: N7_20  and  C8_22 
REMARK       I    between atoms: C8_22  and  N8_23 
REMARK       I    between atoms: C8_22  and  N9_27 
REMARK    4  A    between atoms: C9_31  and  O1_32 
REMARK    5  A    between atoms: C10_34  and  N10_35 
REMARK    6  A    between atoms: N10_35  and  C11_37 
REMARK    7  A    between atoms: C11_37  and  C12_38 
REMARK    8  A    between atoms: C11_37  and  C13_43 
REMARK    9  A    between atoms: C12_38  and  N11_39 
REMARK   10  A    between atoms: C13_43  and  N12_44 
REMARK   11  A    between atoms: C16_53  and  N16_54 
ROOT
HETATM    1  N2  UNL     1      16.568  10.564  40.049  1.00  0.00    -0.277 N 
HETATM    2  C4  UNL     1      17.567  11.406  40.378  1.00  0.00     0.091 A 
HETATM    3  C5  UNL     1      18.956  11.027  40.384  1.00  0.00     0.165 A 
HETATM    4  N3  UNL     1      19.544   9.885  40.123  1.00  0.00    -0.267 N 
ATOM      5  H3  UNL     1      19.033   9.043  39.858  1.00  0.00     0.190 HD
HETATM    6  N4  UNL     1      20.856   9.928  40.235  1.00  0.00    -0.227 N 
ATOM      7  H4  UNL     1      21.512   9.163  40.081  1.00  0.00     0.210 HD
HETATM    8  N5  UNL     1      21.147  11.175  40.591  1.00  0.00    -0.227 N 
ATOM      9  H5  UNL     1      22.083  11.543  40.761  1.00  0.00     0.210 HD
HETATM   10  N6  UNL     1      20.023  11.857  40.688  1.00  0.00    -0.267 N 
ATOM     11  H6  UNL     1      19.950  12.841  40.945  1.00  0.00     0.190 HD
HETATM   12  C6  UNL     1      17.304  12.748  40.759  1.00  0.00     0.066 A 
HETATM   13  C7  UNL     1      15.994  13.138  40.778  1.00  0.00     0.070 A 
HETATM   14  C9  UNL     1      15.003  12.261  40.438  1.00  0.00     0.137 A 
HETATM   15  C10 UNL     1      15.271  10.915  40.053  1.00  0.00     0.146 A 
ENDROOT
BRANCH  15  16
HETATM   16  N10 UNL     1      14.179  10.163  39.647  1.00  0.00    -0.366 N 
ATOM     17  H10 UNL     1      13.729   9.726  40.451  1.00  0.00     0.161 HD
BRANCH  16  18
HETATM   18  C11 UNL     1      13.506   9.821  38.460  1.00  0.00     0.128 C 
BRANCH  18  19
HETATM   19  C12 UNL     1      13.882  10.859  37.341  1.00  0.00     0.256 C 
BRANCH  19  20
HETATM   20  N11 UNL     1      13.157  12.056  37.656  1.00  0.00    -0.077 N 
ATOM     21 3H11 UNL     1      12.636  12.437  36.866  1.00  0.00     0.274 HD
ATOM     22 2H11 UNL     1      12.355  11.898  38.267  1.00  0.00     0.274 HD
ATOM     23 1H11 UNL     1      13.843  12.704  38.044  1.00  0.00     0.274 HD
ENDBRANCH  19  20
ENDBRANCH  18  19
BRANCH  18  24
HETATM   24  C13 UNL     1      14.057   8.477  37.969  1.00  0.00     0.176 C 
BRANCH  24  25
HETATM   25  N12 UNL     1      14.102   7.475  39.000  1.00  0.00    -0.285 N 
HETATM   26  C14 UNL     1      14.221   6.148  38.807  1.00  0.00     0.201 A 
HETATM   27  N13 UNL     1      14.239   5.545  40.010  1.00  0.00    -0.346 N 
HETATM   28  C15 UNL     1      14.132   6.483  40.964  1.00  0.00     0.198 A 
ATOM     29  H13 UNL     1      14.321   4.541  40.170  1.00  0.00     0.167 HD
HETATM   30  N14 UNL     1      14.050   7.655  40.309  1.00  0.00    -0.293 N 
ATOM     31  H14 UNL     1      13.960   8.564  40.763  1.00  0.00     0.188 HD
ENDBRANCH  24  25
ENDBRANCH  18  24
ENDBRANCH  16  18
ENDBRANCH  15  16
BRANCH   1  32
HETATM   32  C3  UNL     1      16.916   9.225  39.762  1.00  0.00     0.133 A 
HETATM   33  C2  UNL     1      17.112   8.898  38.401  1.00  0.00     0.098 A 
HETATM   34  C1  UNL     1      17.463   7.638  37.990  1.00  0.00     0.118 A 
HETATM   35  N17 UNL     1      17.625   6.684  38.922  1.00  0.00    -0.177 N 
HETATM   36  C16 UNL     1      17.445   6.962  40.229  1.00  0.00     0.679 A 
ATOM     37  H17 UNL     1      17.887   5.740  38.637  1.00  0.00     0.185 HD
HETATM   38  N15 UNL     1      17.094   8.225  40.619  1.00  0.00    -0.176 N 
ATOM     39  H15 UNL     1      16.962   8.407  41.614  1.00  0.00     0.186 HD
BRANCH  34  40
HETATM   40  N1  UNL     1      17.647   7.318  36.756  1.00  0.00    -0.385 N 
ATOM     41  H12 UNL     1      17.113   6.535  36.380  1.00  0.00     0.157 HD
ATOM     42  H11 UNL     1      18.296   7.806  36.139  1.00  0.00     0.157 HD
ENDBRANCH  34  40
BRANCH  36  43
HETATM   43  N16 UNL     1      17.606   6.033  41.085  1.00  0.00    -0.234 N 
ATOM     44 2H16 UNL     1      16.802   5.467  41.356  1.00  0.00     0.174 HD
ATOM     45 1H16 UNL     1      18.521   5.854  41.498  1.00  0.00     0.174 HD
ENDBRANCH  36  43
ENDBRANCH   1  32
BRANCH  14  46
HETATM   46  O1  UNL     1      13.703  12.740  40.484  1.00  0.00    -0.355 OA
ATOM     47  H1  UNL     1      13.009  12.092  40.486  1.00  0.00     0.218 HD
ENDBRANCH  14  46
BRANCH  13  48
HETATM   48  N7  UNL     1      15.706  14.353  41.121  1.00  0.00    -0.339 N 
HETATM   49  C8  UNL     1      16.459  15.064  42.111  1.00  0.00     0.480 C 
HETATM   50  N8  UNL     1      16.157  16.501  42.052  1.00  0.00    -0.033 N 
HETATM   51  N9  UNL     1      16.098  14.583  43.414  1.00  0.00    -0.033 N 
ATOM     52  H83 UNL     1      16.303  16.882  41.118  1.00  0.00     0.278 HD
ATOM     53  H82 UNL     1      15.156  16.682  42.135  1.00  0.00     0.278 HD
ATOM     54  H81 UNL     1      16.694  17.007  42.757  1.00  0.00     0.278 HD
ATOM     55  H93 UNL     1      15.092  14.635  43.581  1.00  0.00     0.278 HD
ATOM     56  H92 UNL     1      16.206  13.573  43.497  1.00  0.00     0.278 HD
ATOM     57  H91 UNL     1      16.635  15.089  44.119  1.00  0.00     0.278 HD
ATOM     58  H7  UNL     1      14.917  14.819  40.671  1.00  0.00     0.163 HD
ENDBRANCH  13  48
TORSDOF 11
ENDMDL
MODEL 4
REMARK VINA RESULT: 0.046521144      9.850     11.980
REMARK  11 active torsions:
REMARK  status: ('A' for Active; 'I' for Inactive)
REMARK    1  A    between atoms: N1_1  and  C1_4 
REMARK    2  A    between atoms: C3_6  and  N2_7 
REMARK    3  A    between atoms: C7_19  and  N7_20 
REMARK       I    between atoms: N7_20  and  C8_22 
REMARK       I    between atoms: C8_22  and  N8_23 
REMARK       I    between atoms: C8_22  and  N9_27 
REMARK    4  A    between atoms: C9_31  and  O1_32 
REMARK    5  A    between atoms: C10_34  and  N10_35 
REMARK    6  A    between atoms: N10_35  and  C11_37 
REMARK    7  A    between atoms: C11_37  and  C12_38 
REMARK    8  A    between atoms: C11_37  and  C13_43 
REMARK    9  A    between atoms: C12_38  and  N11_39 
REMARK   10  A    between atoms: C13_43  and  N12_44 
REMARK   11  A    between atoms: C16_53  and  N16_54 
ROOT
HETATM    1  N2  UNL     1      16.231  10.976  39.938  1.00  0.00    -0.277 N 
HETATM    2  C4  UNL     1      16.752  12.085  40.498  1.00  0.00     0.091 A 
HETATM    3  C5  UNL     1      16.052  13.340  40.577  1.00  0.00     0.165 A 
HETATM    4  N3  UNL     1      14.865  13.699  40.151  1.00  0.00    -0.267 N 
ATOM      5  H3  UNL     1      14.233  13.066  39.662  1.00  0.00     0.190 HD
HETATM    6  N4  UNL     1      14.567  14.955  40.415  1.00  0.00    -0.227 N 
ATOM      7  H4  UNL     1      13.705  15.446  40.178  1.00  0.00     0.210 HD
HETATM    8  N5  UNL     1      15.622  15.450  41.054  1.00  0.00    -0.227 N 
ATOM      9  H5  UNL     1      15.714  16.405  41.401  1.00  0.00     0.210 HD
HETATM   10  N6  UNL     1      16.529  14.501  41.165  1.00  0.00    -0.267 N 
ATOM     11  H6  UNL     1      17.439  14.604  41.613  1.00  0.00     0.190 HD
HETATM   12  C6  UNL     1      18.061  12.086  41.049  1.00  0.00     0.066 A 
HETATM   13  C7  UNL     1      18.760  10.913  40.979  1.00  0.00     0.070 A 
HETATM   14  C9  UNL     1      18.203   9.806  40.404  1.00  0.00     0.137 A 
HETATM   15  C10 UNL     1      16.888   9.807  39.855  1.00  0.00     0.146 A 
ENDROOT
BRANCH  15  16
HETATM   16  N10 UNL     1      16.416   8.591  39.386  1.00  0.00    -0.366 N 
ATOM     17  H10 UNL     1      16.856   7.820  39.889  1.00  0.00     0.161 HD
BRANCH  16  18
HETATM   18  C11 UNL     1      15.514   8.099  38.426  1.00  0.00     0.128 C 
BRANCH  18  19
HETATM   19  C12 UNL     1      16.195   6.921  37.640  1.00  0.00     0.256 C 
BRANCH  19  20
HETATM   20  N11 UNL     1      17.467   7.423  37.207  1.00  0.00    -0.077 N 
ATOM     21 3H11 UNL     1      17.406   8.064  36.416  1.00  0.00     0.274 HD
ATOM     22 2H11 UNL     1      17.891   8.078  37.863  1.00  0.00     0.274 HD
ATOM     23 1H11 UNL     1      18.043   6.601  37.022  1.00  0.00     0.274 HD
ENDBRANCH  19  20
ENDBRANCH  18  19
BRANCH  18  24
HETATM   24  C13 UNL     1      14.331   7.462  39.166  1.00  0.00     0.176 C 
BRANCH  24  25
HETATM   25  N12 UNL     1      14.733   6.449  40.106  1.00  0.00    -0.285 N 
HETATM   26  C14 UNL     1      14.294   5.177  40.131  1.00  0.00     0.201 A 
HETATM   27  N13 UNL     1      14.909   4.538  41.144  1.00  0.00    -0.346 N 
HETATM   28  C15 UNL     1      15.734   5.399  41.759  1.00  0.00     0.198 A 
ATOM     29  H13 UNL     1      14.770   3.561  41.400  1.00  0.00     0.167 HD
HETATM   30  N14 UNL     1      15.601   6.562  41.097  1.00  0.00    -0.293 N 
ATOM     31  H14 UNL     1      16.104   7.418  41.329  1.00  0.00     0.188 HD
ENDBRANCH  24  25
ENDBRANCH  18  24
ENDBRANCH  16  18
ENDBRANCH  15  16
BRANCH   1  32
HETATM   32  C3  UNL     1      14.955  11.090  39.342  1.00  0.00     0.133 A 
HETATM   33  C2  UNL     1      13.839  10.961  40.201  1.00  0.00     0.098 A 
HETATM   34  C1  UNL     1      12.549  11.061  39.752  1.00  0.00     0.118 A 
HETATM   35  N17 UNL     1      12.342  11.292  38.444  1.00  0.00    -0.177 N 
HETATM   36  C16 UNL     1      13.384  11.419  37.597  1.00  0.00     0.679 A 
ATOM     37  H17 UNL     1      11.390  11.371  38.090  1.00  0.00     0.185 HD
HETATM   38  N15 UNL     1      14.664  11.315  38.065  1.00  0.00    -0.176 N 
ATOM     39  H15 UNL     1      15.434  11.413  37.402  1.00  0.00     0.186 HD
BRANCH  34  40
HETATM   40  N1  UNL     1      11.518  10.947  40.517  1.00  0.00    -0.385 N 
ATOM     41  H12 UNL     1      11.675  10.843  41.519  1.00  0.00     0.157 HD
ATOM     42  H11 UNL     1      10.558  10.956  40.173  1.00  0.00     0.157 HD
ENDBRANCH  34  40
BRANCH  36  43
HETATM   43  N16 UNL     1      13.153  11.636  36.364  1.00  0.00    -0.234 N 
ATOM     44 2H16 UNL     1      12.403  11.119  35.904  1.00  0.00     0.174 HD
ATOM     45 1H16 UNL     1      13.704  12.314  35.838  1.00  0.00     0.174 HD
ENDBRANCH  36  43
ENDBRANCH   1  32
BRANCH  14  46
HETATM   46  O1  UNL     1      18.982   8.660  40.375  1.00  0.00    -0.355 OA
ATOM     47  H1  UNL     1      19.617   8.593  39.671  1.00  0.00     0.218 HD
ENDBRANCH  14  46
BRANCH  13  48
HETATM   48  N7  UNL     1      19.959  10.867  41.467  1.00  0.00    -0.339 N 
HETATM   49  C8  UNL     1      21.093  11.373  40.751  1.00  0.00     0.480 C 
HETATM   50  N8  UNL     1      22.244  11.521  41.651  1.00  0.00    -0.033 N 
HETATM   51  N9  UNL     1      21.450  10.443  39.716  1.00  0.00    -0.033 N 
ATOM     52  H83 UNL     1      22.020  12.097  42.462  1.00  0.00     0.278 HD
ATOM     53  H82 UNL     1      22.459  10.651  42.139  1.00  0.00     0.278 HD
ATOM     54  H81 UNL     1      23.051  11.881  41.141  1.00  0.00     0.278 HD
ATOM     55  H93 UNL     1      21.609   9.502  40.079  1.00  0.00     0.278 HD
ATOM     56  H92 UNL     1      20.666  10.230  39.100  1.00  0.00     0.278 HD
ATOM     57  H91 UNL     1      22.257  10.803  39.206  1.00  0.00     0.278 HD
ATOM     58  H7  UNL     1      20.100  10.458  42.391  1.00  0.00     0.163 HD
ENDBRANCH  13  48
TORSDOF 11
ENDMDL
MODEL 5
REMARK VINA RESULT: 0.261139049     10.014     12.638
REMARK  11 active torsions:
REMARK  status: ('A' for Active; 'I' for Inactive)
REMARK    1  A    between atoms: N1_1  and  C1_4 
REMARK    2  A    between atoms: C3_6  and  N2_7 
REMARK    3  A    between atoms: C7_19  and  N7_20 
REMARK       I    between atoms: N7_20  and  C8_22 
REMARK       I    between atoms: C8_22  and  N8_23 
REMARK       I    between atoms: C8_22  and  N9_27 
REMARK    4  A    between atoms: C9_31  and  O1_32 
REMARK    5  A    between atoms: C10_34  and  N10_35 
REMARK    6  A    between atoms: N10_35  and  C11_37 
REMARK    7  A    between atoms: C11_37  and  C12_38 
REMARK    8  A    between atoms: C11_37  and  C13_43 
REMARK    9  A    between atoms: C12_38  and  N11_39 
REMARK   10  A    between atoms: C13_43  and  N12_44 
REMARK   11  A    between atoms: C16_53  and  N16_54 
ROOT
HETATM    1  N2  UNL     1      16.769  10.796  39.843  1.00  0.00    -0.277 N 
HETATM    2  C4  UNL     1      17.781  11.530  40.347  1.00  0.00     0.091 A 
HETATM    3  C5  UNL     1      19.142  11.067  40.413  1.00  0.00     0.165 A 
HETATM    4  N3  UNL     1      19.689   9.929  40.060  1.00  0.00    -0.267 N 
ATOM      5  H3  UNL     1      19.158   9.157  39.656  1.00  0.00     0.190 HD
HETATM    6  N4  UNL     1      20.987   9.877  40.276  1.00  0.00    -0.227 N 
ATOM      7  H4  UNL     1      21.613   9.096  40.080  1.00  0.00     0.210 HD
HETATM    8  N5  UNL     1      21.313  11.054  40.801  1.00  0.00    -0.227 N 
ATOM      9  H5  UNL     1      22.251  11.340  41.085  1.00  0.00     0.210 HD
HETATM   10  N6  UNL     1      20.223  11.788  40.895  1.00  0.00    -0.267 N 
ATOM     11  H6  UNL     1      20.181  12.738  41.264  1.00  0.00     0.190 HD
HETATM   12  C6  UNL     1      17.558  12.832  40.868  1.00  0.00     0.066 A 
HETATM   13  C7  UNL     1      16.273  13.298  40.834  1.00  0.00     0.070 A 
HETATM   14  C9  UNL     1      15.269  12.529  40.316  1.00  0.00     0.137 A 
HETATM   15  C10 UNL     1      15.497  11.224  39.792  1.00  0.00     0.146 A 
ENDROOT
BRANCH  15  16
HETATM   16  N10 UNL     1      14.404  10.594  39.215  1.00  0.00    -0.366 N 
ATOM     17  H10 UNL     1      14.170  11.031  38.323  1.00  0.00     0.161 HD
BRANCH  16  18
HETATM   18  C11 UNL     1      13.522   9.534  39.489  1.00  0.00     0.128 C 
BRANCH  18  19
HETATM   19  C12 UNL     1      12.071   9.949  39.047  1.00  0.00     0.256 C 
BRANCH  19  20
HETATM   20  N11 UNL     1      11.817  11.214  39.674  1.00  0.00    -0.077 N 
ATOM     21 3H11 UNL     1      11.116  11.169  40.414  1.00  0.00     0.274 HD
ATOM     22 2H11 UNL     1      12.588  11.543  40.256  1.00  0.00     0.274 HD
ATOM     23 1H11 UNL     1      11.573  11.856  38.919  1.00  0.00     0.274 HD
ENDBRANCH  19  20
ENDBRANCH  18  19
BRANCH  18  24
HETATM   24  C13 UNL     1      13.898   8.354  38.585  1.00  0.00     0.176 C 
BRANCH  24  25
HETATM   25  N12 UNL     1      14.110   7.131  39.313  1.00  0.00    -0.285 N 
HETATM   26  C14 UNL     1      14.145   7.006  40.653  1.00  0.00     0.201 A 
HETATM   27  N13 UNL     1      14.351   5.710  40.952  1.00  0.00    -0.346 N 
HETATM   28  C15 UNL     1      14.445   5.014  39.809  1.00  0.00     0.198 A 
ATOM     29  H13 UNL     1      14.422   5.322  41.892  1.00  0.00     0.167 HD
HETATM   30  N14 UNL     1      14.293   5.916  38.823  1.00  0.00    -0.293 N 
ATOM     31  H14 UNL     1      14.315   5.693  37.828  1.00  0.00     0.188 HD
ENDBRANCH  24  25
ENDBRANCH  18  24
ENDBRANCH  16  18
ENDBRANCH  15  16
BRANCH   1  32
HETATM   32  C3  UNL     1      17.069   9.481  39.423  1.00  0.00     0.133 A 
HETATM   33  C2  UNL     1      17.198   8.504  40.437  1.00  0.00     0.098 A 
HETATM   34  C1  UNL     1      17.477   7.191  40.162  1.00  0.00     0.118 A 
HETATM   35  N17 UNL     1      17.632   6.824  38.878  1.00  0.00    -0.177 N 
HETATM   36  C16 UNL     1      17.517   7.732  37.887  1.00  0.00     0.679 A 
ATOM     37  H17 UNL     1      17.839   5.852  38.652  1.00  0.00     0.185 HD
HETATM   38  N15 UNL     1      17.239   9.037  38.182  1.00  0.00    -0.176 N 
ATOM     39  H15 UNL     1      17.159   9.703  37.412  1.00  0.00     0.186 HD
BRANCH  34  40
HETATM   40  N1  UNL     1      17.598   6.284  41.069  1.00  0.00    -0.385 N 
ATOM     41  H12 UNL     1      17.610   6.582  42.045  1.00  0.00     0.157 HD
ATOM     42  H11 UNL     1      17.682   5.289  40.863  1.00  0.00     0.157 HD
ENDBRANCH  34  40
BRANCH  36  43
HETATM   43  N16 UNL     1      17.671   7.350  36.682  1.00  0.00    -0.234 N 
ATOM     44 2H16 UNL     1      17.417   7.987  35.927  1.00  0.00     0.174 HD
ATOM     45 1H16 UNL     1      18.040   6.424  36.468  1.00  0.00     0.174 HD
ENDBRANCH  36  43
ENDBRANCH   1  32
BRANCH  14  46
HETATM   46  O1  UNL     1      13.997  13.080  40.321  1.00  0.00    -0.355 OA
ATOM     47  H1  UNL     1      13.834  13.785  39.706  1.00  0.00     0.218 HD
ENDBRANCH  14  46
BRANCH  13  48
HETATM   48  N7  UNL     1      16.022  14.480  41.299  1.00  0.00    -0.339 N 
HETATM   49  C8  UNL     1      16.608  14.959  42.516  1.00  0.00     0.480 C 
HETATM   50  N8  UNL     1      16.445  16.416  42.625  1.00  0.00    -0.033 N 
HETATM   51  N9  UNL     1      15.941  14.350  43.633  1.00  0.00    -0.033 N 
ATOM     52  H83 UNL     1      16.816  16.900  41.808  1.00  0.00     0.278 HD
ATOM     53  H82 UNL     1      15.468  16.696  42.537  1.00  0.00     0.278 HD
ATOM     54  H81 UNL     1      16.862  16.757  43.491  1.00  0.00     0.278 HD
ATOM     55  H93 UNL     1      14.932  14.493  43.606  1.00  0.00     0.278 HD
ATOM     56  H92 UNL     1      15.945  13.332  43.577  1.00  0.00     0.278 HD
ATOM     57  H91 UNL     1      16.359  14.692  44.499  1.00  0.00     0.278 HD
ATOM     58  H7  UNL     1      15.387  15.089  40.783  1.00  0.00     0.163 HD
ENDBRANCH  13  48
TORSDOF 11
ENDMDL
