MODEL 1
REMARK VINA RESULT: -10.650174792      0.000      0.000
REMARK  11 active torsions:
REMARK  status: ('A' for Active; 'I' for Inactive)
REMARK       I    between atoms: C1_2  and  N2_4 
REMARK    1  A    between atoms: N2_4  and  C2_5 
REMARK    2  A    between atoms: C2_5  and  C3_6 
REMARK    3  A    between atoms: C2_5  and  C9_15 
REMARK    4  A    between atoms: C6_9  and  N3_10 
REMARK    5  A    between atoms: C14_20  and  C15_21 
REMARK    6  A    between atoms: C18_28  and  C19_29 
REMARK    7  A    between atoms: C22_32  and  C23_33 
REMARK    8  A    between atoms: C23_33  and  C24_34 
REMARK    9  A    between atoms: C24_34  and  C25_35 
REMARK   10  A    between atoms: C25_35  and  O4_36 
REMARK   11  A    between atoms: C25_35  and  C26_38 
ROOT
HETATM    1  C15 UNL     1      -5.894  17.804  25.912  1.00  0.00     0.047 C 
HETATM    2  C16 UNL     1      -6.465  17.171  26.907  1.00  0.00     0.101 A 
HETATM    3  N4  UNL     1      -7.397  17.765  27.699  1.00  0.00    -0.296 N 
ATOM      4  H4  UNL     1      -7.736  18.721  27.590  1.00  0.00     0.187 HD
HETATM    5  N5  UNL     1      -7.794  16.926  28.624  1.00  0.00    -0.296 N 
ATOM      6  H5  UNL     1      -8.490  17.144  29.337  1.00  0.00     0.187 HD
HETATM    7  C17 UNL     1      -7.173  15.751  28.515  1.00  0.00     0.101 A 
HETATM    8  C18 UNL     1      -7.233  14.675  29.262  1.00  0.00     0.046 C 
HETATM    9  C32 UNL     1      -6.320  15.907  27.410  1.00  0.00     0.227 A 
HETATM   10  O5  UNL     1      -5.547  15.036  26.950  1.00  0.00    -0.283 OA
ENDROOT
BRANCH   1  11
HETATM   11  C14 UNL     1      -4.879  17.243  25.015  1.00  0.00    -0.024 A 
HETATM   12  C9  UNL     1      -5.202  16.862  23.737  1.00  0.00    -0.008 A 
HETATM   13  C10 UNL     1      -4.203  16.370  22.926  1.00  0.00     0.011 A 
HETATM   14  C11 UNL     1      -2.897  16.245  23.348  1.00  0.00     0.001 A 
HETATM   15  C12 UNL     1      -2.619  16.637  24.631  1.00  0.00     0.001 A 
HETATM   16  C13 UNL     1      -3.589  17.132  25.469  1.00  0.00     0.012 A 
BRANCH  12  17
HETATM   17  C2  UNL     1      -6.604  16.962  23.232  1.00  0.00     0.235 C 
BRANCH  17  18
HETATM   18  N2  UNL     1      -6.718  16.938  21.803  1.00  0.00    -0.384 NA
HETATM   19  C1  UNL     1      -6.821  16.917  20.500  1.00  0.00     0.401 C 
HETATM   20  N1  UNL     1      -8.143  16.795  19.822  1.00  0.00    -0.025 NA
HETATM   21  O1  UNL     1      -5.920  16.987  19.599  1.00  0.00    -0.234 OA
ENDBRANCH  17  18
BRANCH  17  22
HETATM   22  C3  UNL     1      -7.532  15.983  23.905  1.00  0.00    -0.018 A 
HETATM   23  C4  UNL     1      -8.698  16.400  24.519  1.00  0.00     0.013 A 
HETATM   24  C5  UNL     1      -9.550  15.526  25.142  1.00  0.00     0.037 A 
HETATM   25  C6  UNL     1      -9.238  14.172  25.163  1.00  0.00     0.102 A 
HETATM   26  C7  UNL     1      -8.085  13.730  24.561  1.00  0.00     0.037 A 
HETATM   27  C8  UNL     1      -7.258  14.634  23.946  1.00  0.00     0.013 A 
BRANCH  25  28
HETATM   28  N3  UNL     1     -10.135  13.286  25.821  1.00  0.00    -0.116 N 
HETATM   29  O2  UNL     1      -9.841  12.854  26.944  1.00  0.00    -0.532 OA
HETATM   30  O3  UNL     1     -11.322  12.888  25.249  1.00  0.00    -0.532 OA
ENDBRANCH  25  28
ENDBRANCH  17  22
ENDBRANCH  12  17
ENDBRANCH   1  11
BRANCH   8  31
HETATM   31  C19 UNL     1      -8.034  14.509  30.456  1.00  0.00    -0.034 A 
HETATM   32  C20 UNL     1      -9.331  15.039  30.492  1.00  0.00     0.012 A 
HETATM   33  C21 UNL     1     -10.109  14.942  31.621  1.00  0.00     0.012 A 
HETATM   34  C22 UNL     1      -9.642  14.317  32.763  1.00  0.00    -0.036 A 
HETATM   35  C30 UNL     1      -8.383  13.797  32.740  1.00  0.00     0.012 A 
HETATM   36  C31 UNL     1      -7.583  13.893  31.588  1.00  0.00     0.012 A 
BRANCH  34  37
HETATM   37  C23 UNL     1     -10.531  14.290  33.952  1.00  0.00     0.014 C 
BRANCH  37  38
HETATM   38  C24 UNL     1     -11.321  13.318  34.256  1.00  0.00     0.040 C 
BRANCH  38  39
HETATM   39  C25 UNL     1     -12.294  12.631  33.486  1.00  0.00     0.092 C 
BRANCH  39  40
HETATM   40  O4  UNL     1     -13.208  11.950  34.173  1.00  0.00    -0.358 OA
ATOM     41  H4  UNL     1     -13.626  11.231  33.713  1.00  0.00     0.217 HD
ENDBRANCH  39  40
BRANCH  39  42
HETATM   42  C26 UNL     1     -12.465  12.545  32.066  1.00  0.00     0.065 A 
HETATM   43  C27 UNL     1     -13.350  13.406  31.354  1.00  0.00     0.034 A 
HETATM   44  C28 UNL     1     -13.261  13.073  30.043  1.00  0.00     0.019 A 
HETATM   45  C29 UNL     1     -12.372  12.056  29.928  1.00  0.00     0.088 A 
HETATM   46  N6  UNL     1     -11.900  11.750  31.165  1.00  0.00    -0.364 N 
ATOM     47  H6  UNL     1     -11.216  11.022  31.371  1.00  0.00     0.165 HD
ENDBRANCH  39  42
ENDBRANCH  38  39
ENDBRANCH  37  38
ENDBRANCH  34  37
ENDBRANCH   8  31
TORSDOF 11
ENDMDL
MODEL 2
REMARK VINA RESULT: -10.603086706      1.064      1.490
REMARK  11 active torsions:
REMARK  status: ('A' for Active; 'I' for Inactive)
REMARK       I    between atoms: C1_2  and  N2_4 
REMARK    1  A    between atoms: N2_4  and  C2_5 
REMARK    2  A    between atoms: C2_5  and  C3_6 
REMARK    3  A    between atoms: C2_5  and  C9_15 
REMARK    4  A    between atoms: C6_9  and  N3_10 
REMARK    5  A    between atoms: C14_20  and  C15_21 
REMARK    6  A    between atoms: C18_28  and  C19_29 
REMARK    7  A    between atoms: C22_32  and  C23_33 
REMARK    8  A    between atoms: C23_33  and  C24_34 
REMARK    9  A    between atoms: C24_34  and  C25_35 
REMARK   10  A    between atoms: C25_35  and  O4_36 
REMARK   11  A    between atoms: C25_35  and  C26_38 
ROOT
HETATM    1  C15 UNL     1      -5.983  18.047  25.405  1.00  0.00     0.047 C 
HETATM    2  C16 UNL     1      -6.360  17.491  26.530  1.00  0.00     0.101 A 
HETATM    3  N4  UNL     1      -7.218  18.106  27.386  1.00  0.00    -0.296 N 
ATOM      4  H4  UNL     1      -7.645  19.020  27.233  1.00  0.00     0.187 HD
HETATM    5  N5  UNL     1      -7.416  17.349  28.437  1.00  0.00    -0.296 N 
ATOM      6  H5  UNL     1      -8.023  17.598  29.219  1.00  0.00     0.187 HD
HETATM    7  C17 UNL     1      -6.724  16.213  28.357  1.00  0.00     0.101 A 
HETATM    8  C18 UNL     1      -6.594  15.223  29.208  1.00  0.00     0.046 C 
HETATM    9  C32 UNL     1      -6.046  16.302  27.130  1.00  0.00     0.227 A 
HETATM   10  O5  UNL     1      -5.276  15.438  26.652  1.00  0.00    -0.283 OA
ENDROOT
BRANCH   1  11
HETATM   11  C14 UNL     1      -5.059  17.458  24.430  1.00  0.00    -0.024 A 
HETATM   12  C9  UNL     1      -5.525  16.900  23.267  1.00  0.00    -0.008 A 
HETATM   13  C10 UNL     1      -4.610  16.389  22.372  1.00  0.00     0.011 A 
HETATM   14  C11 UNL     1      -3.252  16.416  22.600  1.00  0.00     0.001 A 
HETATM   15  C12 UNL     1      -2.830  16.982  23.775  1.00  0.00     0.001 A 
HETATM   16  C13 UNL     1      -3.712  17.502  24.691  1.00  0.00     0.012 A 
BRANCH  12  17
HETATM   17  C2  UNL     1      -6.987  16.830  22.974  1.00  0.00     0.235 C 
BRANCH  17  18
HETATM   18  N2  UNL     1      -7.302  16.551  21.603  1.00  0.00    -0.384 NA
HETATM   19  C1  UNL     1      -7.591  16.298  20.354  1.00  0.00     0.401 C 
HETATM   20  N1  UNL     1      -6.780  15.345  19.542  1.00  0.00    -0.025 NA
HETATM   21  O1  UNL     1      -8.526  16.751  19.614  1.00  0.00    -0.234 OA
ENDBRANCH  17  18
BRANCH  17  22
HETATM   22  C3  UNL     1      -7.726  15.933  23.934  1.00  0.00    -0.018 A 
HETATM   23  C4  UNL     1      -7.332  14.626  24.149  1.00  0.00     0.013 A 
HETATM   24  C5  UNL     1      -7.994  13.794  25.012  1.00  0.00     0.037 A 
HETATM   25  C6  UNL     1      -9.104  14.272  25.698  1.00  0.00     0.102 A 
HETATM   26  C7  UNL     1      -9.519  15.567  25.503  1.00  0.00     0.037 A 
HETATM   27  C8  UNL     1      -8.829  16.370  24.633  1.00  0.00     0.013 A 
BRANCH  25  28
HETATM   28  N3  UNL     1      -9.780  13.387  26.584  1.00  0.00    -0.116 N 
HETATM   29  O2  UNL     1     -10.447  12.455  26.114  1.00  0.00    -0.532 OA
HETATM   30  O3  UNL     1      -9.718  13.532  27.951  1.00  0.00    -0.532 OA
ENDBRANCH  25  28
ENDBRANCH  17  22
ENDBRANCH  12  17
ENDBRANCH   1  11
BRANCH   8  31
HETATM   31  C19 UNL     1      -7.209  15.137  30.516  1.00  0.00    -0.034 A 
HETATM   32  C20 UNL     1      -7.790  13.929  30.923  1.00  0.00     0.012 A 
HETATM   33  C21 UNL     1      -8.422  13.818  32.139  1.00  0.00     0.012 A 
HETATM   34  C22 UNL     1      -8.507  14.893  33.005  1.00  0.00    -0.036 A 
HETATM   35  C30 UNL     1      -7.944  16.073  32.620  1.00  0.00     0.012 A 
HETATM   36  C31 UNL     1      -7.297  16.192  31.378  1.00  0.00     0.012 A 
BRANCH  34  37
HETATM   37  C23 UNL     1      -9.242  14.700  34.281  1.00  0.00     0.014 C 
BRANCH  37  38
HETATM   38  C24 UNL     1      -9.899  13.637  34.596  1.00  0.00     0.040 C 
BRANCH  38  39
HETATM   39  C25 UNL     1     -11.235  13.249  34.319  1.00  0.00     0.092 C 
BRANCH  39  40
HETATM   40  O4  UNL     1     -12.035  13.112  35.374  1.00  0.00    -0.358 OA
ATOM     41  H4  UNL     1     -12.735  12.475  35.287  1.00  0.00     0.217 HD
ENDBRANCH  39  40
BRANCH  39  42
HETATM   42  C26 UNL     1     -11.883  12.976  33.071  1.00  0.00     0.065 A 
HETATM   43  C27 UNL     1     -12.440  14.009  32.262  1.00  0.00     0.034 A 
HETATM   44  C28 UNL     1     -12.956  13.417  31.157  1.00  0.00     0.019 A 
HETATM   45  C29 UNL     1     -12.742  12.082  31.258  1.00  0.00     0.088 A 
HETATM   46  N6  UNL     1     -12.090  11.834  32.425  1.00  0.00    -0.364 N 
ATOM     47  H6  UNL     1     -11.803  10.912  32.755  1.00  0.00     0.165 HD
ENDBRANCH  39  42
ENDBRANCH  38  39
ENDBRANCH  37  38
ENDBRANCH  34  37
ENDBRANCH   8  31
TORSDOF 11
ENDMDL
MODEL 3
REMARK VINA RESULT: -10.572213695      1.701      2.611
REMARK  11 active torsions:
REMARK  status: ('A' for Active; 'I' for Inactive)
REMARK       I    between atoms: C1_2  and  N2_4 
REMARK    1  A    between atoms: N2_4  and  C2_5 
REMARK    2  A    between atoms: C2_5  and  C3_6 
REMARK    3  A    between atoms: C2_5  and  C9_15 
REMARK    4  A    between atoms: C6_9  and  N3_10 
REMARK    5  A    between atoms: C14_20  and  C15_21 
REMARK    6  A    between atoms: C18_28  and  C19_29 
REMARK    7  A    between atoms: C22_32  and  C23_33 
REMARK    8  A    between atoms: C23_33  and  C24_34 
REMARK    9  A    between atoms: C24_34  and  C25_35 
REMARK   10  A    between atoms: C25_35  and  O4_36 
REMARK   11  A    between atoms: C25_35  and  C26_38 
ROOT
HETATM    1  C15 UNL     1      -5.799  17.799  25.944  1.00  0.00     0.047 C 
HETATM    2  C16 UNL     1      -6.376  17.209  26.963  1.00  0.00     0.101 A 
HETATM    3  N4  UNL     1      -7.276  17.853  27.753  1.00  0.00    -0.296 N 
ATOM      4  H4  UNL     1      -7.585  18.817  27.626  1.00  0.00     0.187 HD
HETATM    5  N5  UNL     1      -7.686  17.050  28.704  1.00  0.00    -0.296 N 
ATOM      6  H5  UNL     1      -8.364  17.308  29.422  1.00  0.00     0.187 HD
HETATM    7  C17 UNL     1      -7.106  15.853  28.615  1.00  0.00     0.101 A 
HETATM    8  C18 UNL     1      -7.190  14.798  29.389  1.00  0.00     0.046 C 
HETATM    9  C32 UNL     1      -6.265  15.954  27.495  1.00  0.00     0.227 A 
HETATM   10  O5  UNL     1      -5.528  15.048  27.045  1.00  0.00    -0.283 OA
ENDROOT
BRANCH   1  11
HETATM   11  C14 UNL     1      -4.817  17.183  25.047  1.00  0.00    -0.024 A 
HETATM   12  C9  UNL     1      -5.169  16.794  23.779  1.00  0.00    -0.008 A 
HETATM   13  C10 UNL     1      -4.199  16.249  22.967  1.00  0.00     0.011 A 
HETATM   14  C11 UNL     1      -2.895  16.080  23.377  1.00  0.00     0.001 A 
HETATM   15  C12 UNL     1      -2.587  16.482  24.650  1.00  0.00     0.001 A 
HETATM   16  C13 UNL     1      -3.527  17.030  25.489  1.00  0.00     0.012 A 
BRANCH  12  17
HETATM   17  C2  UNL     1      -6.571  16.940  23.287  1.00  0.00     0.235 C 
BRANCH  17  18
HETATM   18  N2  UNL     1      -6.699  16.932  21.859  1.00  0.00    -0.384 NA
HETATM   19  C1  UNL     1      -6.812  16.925  20.557  1.00  0.00     0.401 C 
HETATM   20  N1  UNL     1      -8.135  16.754  19.889  1.00  0.00    -0.025 NA
HETATM   21  O1  UNL     1      -5.924  17.049  19.649  1.00  0.00    -0.234 OA
ENDBRANCH  17  18
BRANCH  17  22
HETATM   22  C3  UNL     1      -7.523  15.983  23.960  1.00  0.00    -0.018 A 
HETATM   23  C4  UNL     1      -7.286  14.622  23.975  1.00  0.00     0.013 A 
HETATM   24  C5  UNL     1      -8.142  13.737  24.575  1.00  0.00     0.037 A 
HETATM   25  C6  UNL     1      -9.291  14.216  25.193  1.00  0.00     0.102 A 
HETATM   26  C7  UNL     1      -9.551  15.565  25.193  1.00  0.00     0.037 A 
HETATM   27  C8  UNL     1      -8.670  16.420  24.583  1.00  0.00     0.013 A 
BRANCH  25  28
HETATM   28  N3  UNL     1     -10.168  13.278  25.805  1.00  0.00    -0.116 N 
HETATM   29  O2  UNL     1      -9.861  12.794  26.903  1.00  0.00    -0.532 OA
HETATM   30  O3  UNL     1     -11.348  12.886  25.217  1.00  0.00    -0.532 OA
ENDBRANCH  25  28
ENDBRANCH  17  22
ENDBRANCH  12  17
ENDBRANCH   1  11
BRANCH   8  31
HETATM   31  C19 UNL     1      -7.978  14.687  30.598  1.00  0.00    -0.034 A 
HETATM   32  C20 UNL     1      -9.275  14.162  30.526  1.00  0.00     0.012 A 
HETATM   33  C21 UNL     1     -10.073  14.082  31.643  1.00  0.00     0.012 A 
HETATM   34  C22 UNL     1      -9.626  14.513  32.878  1.00  0.00    -0.036 A 
HETATM   35  C30 UNL     1      -8.365  15.024  32.960  1.00  0.00     0.012 A 
HETATM   36  C31 UNL     1      -7.545  15.110  31.822  1.00  0.00     0.012 A 
BRANCH  34  37
HETATM   37  C23 UNL     1     -10.564  14.427  34.025  1.00  0.00     0.014 C 
BRANCH  37  38
HETATM   38  C24 UNL     1     -11.188  13.358  34.385  1.00  0.00     0.040 C 
BRANCH  38  39
HETATM   39  C25 UNL     1     -10.712  12.136  34.926  1.00  0.00     0.092 C 
BRANCH  39  40
HETATM   40  O4  UNL     1      -9.921  11.415  34.135  1.00  0.00    -0.358 OA
ATOM     41  H4  UNL     1      -9.255  10.896  34.572  1.00  0.00     0.217 HD
ENDBRANCH  39  40
BRANCH  39  42
HETATM   42  C26 UNL     1     -10.941  11.536  36.206  1.00  0.00     0.065 A 
HETATM   43  C27 UNL     1     -10.616  10.174  36.476  1.00  0.00     0.034 A 
HETATM   44  C28 UNL     1     -10.940   9.935  37.770  1.00  0.00     0.019 A 
HETATM   45  C29 UNL     1     -11.445  11.079  38.294  1.00  0.00     0.088 A 
HETATM   46  N6  UNL     1     -11.437  12.038  37.330  1.00  0.00    -0.364 N 
ATOM     47  H6  UNL     1     -11.762  12.997  37.452  1.00  0.00     0.165 HD
ENDBRANCH  39  42
ENDBRANCH  38  39
ENDBRANCH  37  38
ENDBRANCH  34  37
ENDBRANCH   8  31
TORSDOF 11
ENDMDL
MODEL 4
REMARK VINA RESULT: -10.454014612      0.711      1.154
REMARK  11 active torsions:
REMARK  status: ('A' for Active; 'I' for Inactive)
REMARK       I    between atoms: C1_2  and  N2_4 
REMARK    1  A    between atoms: N2_4  and  C2_5 
REMARK    2  A    between atoms: C2_5  and  C3_6 
REMARK    3  A    between atoms: C2_5  and  C9_15 
REMARK    4  A    between atoms: C6_9  and  N3_10 
REMARK    5  A    between atoms: C14_20  and  C15_21 
REMARK    6  A    between atoms: C18_28  and  C19_29 
REMARK    7  A    between atoms: C22_32  and  C23_33 
REMARK    8  A    between atoms: C23_33  and  C24_34 
REMARK    9  A    between atoms: C24_34  and  C25_35 
REMARK   10  A    between atoms: C25_35  and  O4_36 
REMARK   11  A    between atoms: C25_35  and  C26_38 
ROOT
HETATM    1  C15 UNL     1      -6.209  17.671  26.072  1.00  0.00     0.047 C 
HETATM    2  C16 UNL     1      -6.779  17.025  27.059  1.00  0.00     0.101 A 
HETATM    3  N4  UNL     1      -7.754  17.588  27.821  1.00  0.00    -0.296 N 
ATOM      4  H4  UNL     1      -8.129  18.528  27.693  1.00  0.00     0.187 HD
HETATM    5  N5  UNL     1      -8.139  16.743  28.745  1.00  0.00    -0.296 N 
ATOM      6  H5  UNL     1      -8.862  16.939  29.439  1.00  0.00     0.187 HD
HETATM    7  C17 UNL     1      -7.469  15.593  28.664  1.00  0.00     0.101 A 
HETATM    8  C18 UNL     1      -7.504  14.523  29.421  1.00  0.00     0.046 C 
HETATM    9  C32 UNL     1      -6.595  15.773  27.579  1.00  0.00     0.227 A 
HETATM   10  O5  UNL     1      -5.777  14.930  27.148  1.00  0.00    -0.283 OA
ENDROOT
BRANCH   1  11
HETATM   11  C14 UNL     1      -5.150  17.142  25.206  1.00  0.00    -0.024 A 
HETATM   12  C9  UNL     1      -5.412  16.794  23.905  1.00  0.00    -0.008 A 
HETATM   13  C10 UNL     1      -4.373  16.333  23.127  1.00  0.00     0.011 A 
HETATM   14  C11 UNL     1      -3.087  16.207  23.603  1.00  0.00     0.001 A 
HETATM   15  C12 UNL     1      -2.869  16.565  24.908  1.00  0.00     0.001 A 
HETATM   16  C13 UNL     1      -3.880  17.030  25.714  1.00  0.00     0.012 A 
BRANCH  12  17
HETATM   17  C2  UNL     1      -6.791  16.897  23.340  1.00  0.00     0.235 C 
BRANCH  17  18
HETATM   18  N2  UNL     1      -6.843  16.897  21.908  1.00  0.00    -0.384 NA
HETATM   19  C1  UNL     1      -6.887  16.897  20.602  1.00  0.00     0.401 C 
HETATM   20  N1  UNL     1      -8.174  16.737  19.863  1.00  0.00    -0.025 NA
HETATM   21  O1  UNL     1      -5.952  17.021  19.742  1.00  0.00    -0.234 OA
ENDBRANCH  17  18
BRANCH  17  22
HETATM   22  C3  UNL     1      -7.743  15.903  23.956  1.00  0.00    -0.018 A 
HETATM   23  C4  UNL     1      -8.986  16.287  24.420  1.00  0.00     0.013 A 
HETATM   24  C5  UNL     1      -9.862  15.400  24.989  1.00  0.00     0.037 A 
HETATM   25  C6  UNL     1      -9.494  14.065  25.108  1.00  0.00     0.102 A 
HETATM   26  C7  UNL     1      -8.263  13.655  24.654  1.00  0.00     0.037 A 
HETATM   27  C8  UNL     1      -7.415  14.572  24.090  1.00  0.00     0.013 A 
BRANCH  25  28
HETATM   28  N3  UNL     1     -10.417  13.164  25.706  1.00  0.00    -0.116 N 
HETATM   29  O2  UNL     1     -11.488  12.927  25.130  1.00  0.00    -0.532 OA
HETATM   30  O3  UNL     1     -10.162  12.545  26.908  1.00  0.00    -0.532 OA
ENDBRANCH  25  28
ENDBRANCH  17  22
ENDBRANCH  12  17
ENDBRANCH   1  11
BRANCH   8  31
HETATM   31  C19 UNL     1      -8.328  14.336  30.597  1.00  0.00    -0.034 A 
HETATM   32  C20 UNL     1      -7.733  13.911  31.792  1.00  0.00     0.012 A 
HETATM   33  C21 UNL     1      -8.486  13.679  32.918  1.00  0.00     0.012 A 
HETATM   34  C22 UNL     1      -9.858  13.858  32.915  1.00  0.00    -0.036 A 
HETATM   35  C30 UNL     1     -10.447  14.272  31.758  1.00  0.00     0.012 A 
HETATM   36  C31 UNL     1      -9.683  14.511  30.603  1.00  0.00     0.012 A 
BRANCH  34  37
HETATM   37  C23 UNL     1     -10.602  13.548  34.162  1.00  0.00     0.014 C 
BRANCH  37  38
HETATM   38  C24 UNL     1     -11.190  12.428  34.406  1.00  0.00     0.040 C 
BRANCH  38  39
HETATM   39  C25 UNL     1     -12.328  11.822  33.815  1.00  0.00     0.092 C 
BRANCH  39  40
HETATM   40  O4  UNL     1     -13.443  11.839  34.540  1.00  0.00    -0.358 OA
ATOM     41  H4  UNL     1     -13.438  12.408  35.301  1.00  0.00     0.217 HD
ENDBRANCH  39  40
BRANCH  39  42
HETATM   42  C26 UNL     1     -12.484  11.184  32.541  1.00  0.00     0.065 A 
HETATM   43  C27 UNL     1     -13.040  11.860  31.416  1.00  0.00     0.034 A 
HETATM   44  C28 UNL     1     -13.029  10.986  30.380  1.00  0.00     0.019 A 
HETATM   45  C29 UNL     1     -12.500   9.819  30.822  1.00  0.00     0.088 A 
HETATM   46  N6  UNL     1     -12.175   9.959  32.135  1.00  0.00    -0.364 N 
ATOM     47  H6  UNL     1     -11.757   9.234  32.718  1.00  0.00     0.165 HD
ENDBRANCH  39  42
ENDBRANCH  38  39
ENDBRANCH  37  38
ENDBRANCH  34  37
ENDBRANCH   8  31
TORSDOF 11
ENDMDL
MODEL 5
REMARK VINA RESULT: -10.444541748      0.727      1.068
REMARK  11 active torsions:
REMARK  status: ('A' for Active; 'I' for Inactive)
REMARK       I    between atoms: C1_2  and  N2_4 
REMARK    1  A    between atoms: N2_4  and  C2_5 
REMARK    2  A    between atoms: C2_5  and  C3_6 
REMARK    3  A    between atoms: C2_5  and  C9_15 
REMARK    4  A    between atoms: C6_9  and  N3_10 
REMARK    5  A    between atoms: C14_20  and  C15_21 
REMARK    6  A    between atoms: C18_28  and  C19_29 
REMARK    7  A    between atoms: C22_32  and  C23_33 
REMARK    8  A    between atoms: C23_33  and  C24_34 
REMARK    9  A    between atoms: C24_34  and  C25_35 
REMARK   10  A    between atoms: C25_35  and  O4_36 
REMARK   11  A    between atoms: C25_35  and  C26_38 
ROOT
HETATM    1  C15 UNL     1      -6.274  17.679  26.068  1.00  0.00     0.047 C 
HETATM    2  C16 UNL     1      -6.824  17.002  27.046  1.00  0.00     0.101 A 
HETATM    3  N4  UNL     1      -7.816  17.523  27.816  1.00  0.00    -0.296 N 
ATOM      4  H4  UNL     1      -8.220  18.453  27.702  1.00  0.00     0.187 HD
HETATM    5  N5  UNL     1      -8.174  16.653  28.728  1.00  0.00    -0.296 N 
ATOM      6  H5  UNL     1      -8.903  16.816  29.424  1.00  0.00     0.187 HD
HETATM    7  C17 UNL     1      -7.467  15.527  28.631  1.00  0.00     0.101 A 
HETATM    8  C18 UNL     1      -7.468  14.445  29.373  1.00  0.00     0.046 C 
HETATM    9  C32 UNL     1      -6.600  15.749  27.549  1.00  0.00     0.227 A 
HETATM   10  O5  UNL     1      -5.755  14.939  27.106  1.00  0.00    -0.283 OA
ENDROOT
BRANCH   1  11
HETATM   11  C14 UNL     1      -5.199  17.197  25.196  1.00  0.00    -0.024 A 
HETATM   12  C9  UNL     1      -5.449  16.867  23.887  1.00  0.00    -0.008 A 
HETATM   13  C10 UNL     1      -4.395  16.450  23.104  1.00  0.00     0.011 A 
HETATM   14  C11 UNL     1      -3.107  16.351  23.581  1.00  0.00     0.001 A 
HETATM   15  C12 UNL     1      -2.903  16.690  24.893  1.00  0.00     0.001 A 
HETATM   16  C13 UNL     1      -3.928  17.111  25.706  1.00  0.00     0.012 A 
BRANCH  12  17
HETATM   17  C2  UNL     1      -6.828  16.942  23.321  1.00  0.00     0.235 C 
BRANCH  17  18
HETATM   18  N2  UNL     1      -6.880  16.910  21.889  1.00  0.00    -0.384 NA
HETATM   19  C1  UNL     1      -6.925  16.881  20.583  1.00  0.00     0.401 C 
HETATM   20  N1  UNL     1      -8.208  16.682  19.849  1.00  0.00    -0.025 NA
HETATM   21  O1  UNL     1      -5.992  17.002  19.721  1.00  0.00    -0.234 OA
ENDBRANCH  17  18
BRANCH  17  22
HETATM   22  C3  UNL     1      -7.769  15.952  23.959  1.00  0.00    -0.018 A 
HETATM   23  C4  UNL     1      -7.444  14.613  24.065  1.00  0.00     0.013 A 
HETATM   24  C5  UNL     1      -8.288  13.697  24.635  1.00  0.00     0.037 A 
HETATM   25  C6  UNL     1      -9.518  14.121  25.125  1.00  0.00     0.102 A 
HETATM   26  C7  UNL     1      -9.868  15.446  25.033  1.00  0.00     0.037 A 
HETATM   27  C8  UNL     1      -8.995  16.333  24.457  1.00  0.00     0.013 A 
BRANCH  25  28
HETATM   28  N3  UNL     1     -10.380  13.151  25.708  1.00  0.00    -0.116 N 
HETATM   29  O2  UNL     1     -10.052  12.616  26.776  1.00  0.00    -0.532 OA
HETATM   30  O3  UNL     1     -11.570  12.784  25.123  1.00  0.00    -0.532 OA
ENDBRANCH  25  28
ENDBRANCH  17  22
ENDBRANCH  12  17
ENDBRANCH   1  11
BRANCH   8  31
HETATM   31  C19 UNL     1      -8.286  14.215  30.545  1.00  0.00    -0.034 A 
HETATM   32  C20 UNL     1      -9.681  14.283  30.433  1.00  0.00     0.012 A 
HETATM   33  C21 UNL     1     -10.492  14.115  31.531  1.00  0.00     0.012 A 
HETATM   34  C22 UNL     1      -9.963  13.873  32.785  1.00  0.00    -0.036 A 
HETATM   35  C30 UNL     1      -8.607  13.804  32.905  1.00  0.00     0.012 A 
HETATM   36  C31 UNL     1      -7.773  13.975  31.787  1.00  0.00     0.012 A 
BRANCH  34  37
HETATM   37  C23 UNL     1     -10.906  13.742  33.924  1.00  0.00     0.014 C 
BRANCH  37  38
HETATM   38  C24 UNL     1     -11.436  12.635  34.314  1.00  0.00     0.040 C 
BRANCH  38  39
HETATM   39  C25 UNL     1     -12.480  11.852  33.759  1.00  0.00     0.092 C 
BRANCH  39  40
HETATM   40  O4  UNL     1     -13.567  11.706  34.513  1.00  0.00    -0.358 OA
ATOM     41  H4  UNL     1     -13.415  11.511  35.431  1.00  0.00     0.217 HD
ENDBRANCH  39  40
BRANCH  39  42
HETATM   42  C26 UNL     1     -12.567  11.180  32.496  1.00  0.00     0.065 A 
HETATM   43  C27 UNL     1     -13.185  11.777  31.359  1.00  0.00     0.034 A 
HETATM   44  C28 UNL     1     -13.082  10.890  30.338  1.00  0.00     0.019 A 
HETATM   45  C29 UNL     1     -12.438   9.791  30.801  1.00  0.00     0.088 A 
HETATM   46  N6  UNL     1     -12.133   9.986  32.111  1.00  0.00    -0.364 N 
ATOM     47  H6  UNL     1     -11.646   9.317  32.708  1.00  0.00     0.165 HD
ENDBRANCH  39  42
ENDBRANCH  38  39
ENDBRANCH  37  38
ENDBRANCH  34  37
ENDBRANCH   8  31
TORSDOF 11
ENDMDL
