MODEL 1
REMARK VINA RESULT: -10.400344707      0.000      0.000
REMARK  10 active torsions:
REMARK  status: ('A' for Active; 'I' for Inactive)
REMARK    1  A    between atoms: C2_2  and  C3_3 
REMARK    2  A    between atoms: C2_2  and  C33_42 
REMARK    3  A    between atoms: C3_3  and  N1_4 
REMARK       I    between atoms: N1_4  and  C4_6 
REMARK    4  A    between atoms: C4_6  and  C5_8 
REMARK    5  A    between atoms: C8_11  and  C10_13 
REMARK       I    between atoms: C10_13  and  N2_15 
REMARK    6  A    between atoms: N2_15  and  C11_17 
REMARK    7  A    between atoms: C11_17  and  C12_18 
REMARK    8  A    between atoms: C12_18  and  C13_19 
REMARK    9  A    between atoms: C13_19  and  N3_20 
REMARK   10  A    between atoms: C23_30  and  O3_31 
ROOT
HETATM    1  C5  UNL     1      -7.859  16.235  26.797  1.00  0.00     0.053 C 
HETATM    2  C6  UNL     1      -8.341  17.326  25.895  1.00  0.00     0.022 C 
HETATM    3  C7  UNL     1      -9.449  16.790  25.036  1.00  0.00     0.020 C 
HETATM    4  C8  UNL     1      -9.357  15.282  25.116  1.00  0.00     0.042 C 
HETATM    5  C9  UNL     1     -10.766  14.743  25.245  1.00  0.00     0.026 C 
HETATM    6  C16 UNL     1      -8.480  14.957  26.276  1.00  0.00     0.021 C 
HETATM    7  C17 UNL     1      -9.180  14.125  27.283  1.00  0.00     0.007 C 
HETATM    8  C18 UNL     1      -8.513  14.047  28.609  1.00  0.00     0.006 C 
HETATM    9  C19 UNL     1      -7.813  15.286  29.047  1.00  0.00    -0.001 C 
HETATM   10  C20 UNL     1      -7.997  15.591  30.511  1.00  0.00    -0.004 C 
HETATM   11  C21 UNL     1      -7.851  14.326  31.337  1.00  0.00     0.013 C 
HETATM   12  C22 UNL     1      -9.139  14.097  32.054  1.00  0.00     0.023 C 
HETATM   13  C23 UNL     1      -8.918  13.883  33.542  1.00  0.00     0.123 C 
HETATM   14  C24 UNL     1      -9.839  14.831  34.241  1.00  0.00     0.033 C 
HETATM   15  C25 UNL     1     -10.003  15.956  33.274  1.00  0.00     0.012 C 
HETATM   16  C26 UNL     1      -9.973  15.319  31.889  1.00  0.00    -0.034 C 
HETATM   17  C27 UNL     1     -11.399  14.965  31.543  1.00  0.00     0.016 C 
HETATM   18  C28 UNL     1      -9.306  16.209  30.863  1.00  0.00    -0.001 C 
HETATM   19  C29 UNL     1     -10.204  16.465  29.710  1.00  0.00     0.006 C 
HETATM   20  C30 UNL     1      -9.573  16.972  28.465  1.00  0.00     0.011 C 
HETATM   21  C31 UNL     1      -8.152  16.505  28.222  1.00  0.00    -0.023 C 
HETATM   22  C32 UNL     1      -7.274  17.627  28.730  1.00  0.00     0.017 C 
ENDROOT
BRANCH   4  23
HETATM   23  C10 UNL     1      -8.827  14.737  23.827  1.00  0.00     0.226 C 
HETATM   24  O2  UNL     1      -7.668  14.259  23.803  1.00  0.00    -0.273 OA
HETATM   25  N2  UNL     1      -9.588  14.744  22.637  1.00  0.00    -0.360 N 
ATOM     26  H2  UNL     1     -10.531  15.132  22.654  1.00  0.00     0.162 HD
BRANCH  25  27
HETATM   27  C11 UNL     1      -9.066  14.214  21.394  1.00  0.00     0.124 C 
BRANCH  27  28
HETATM   28  C12 UNL     1      -8.525  15.304  20.505  1.00  0.00     0.050 C 
BRANCH  28  29
HETATM   29  C13 UNL     1      -7.034  15.469  20.605  1.00  0.00     0.273 C 
BRANCH  29  30
HETATM   30  N3  UNL     1      -6.791  16.909  20.716  1.00  0.00     0.080 N 
HETATM   31  C14 UNL     1      -5.444  17.235  20.290  1.00  0.00     0.309 C 
HETATM   32  C15 UNL     1      -7.075  17.381  22.056  1.00  0.00     0.309 C 
ENDBRANCH  29  30
ENDBRANCH  28  29
ENDBRANCH  27  28
ENDBRANCH  25  27
ENDBRANCH   4  23
BRANCH   1  33
HETATM   33  C4  UNL     1      -6.361  16.106  26.607  1.00  0.00     0.231 C 
HETATM   34  N1  UNL     1      -5.694  16.493  25.457  1.00  0.00    -0.339 N 
ATOM     35  H1  UNL     1      -6.283  16.893  24.726  1.00  0.00     0.167 HD
HETATM   36  O1  UNL     1      -5.745  15.617  27.578  1.00  0.00    -0.272 OA
BRANCH  34  37
HETATM   37  C3  UNL     1      -4.328  16.416  25.147  1.00  0.00     0.077 C 
BRANCH  37  38
HETATM   38  C2  UNL     1      -3.369  17.457  25.550  1.00  0.00     0.109 C 
HETATM   39  C1  UNL     1      -3.244  17.833  26.982  1.00  0.00     0.025 C 
BRANCH  38  40
HETATM   40  C33 UNL     1      -3.587  18.724  24.757  1.00  0.00     0.239 C 
HETATM   41  N4  UNL     1      -4.777  19.479  24.982  1.00  0.00    -0.062 NA
HETATM   42  O4  UNL     1      -2.711  19.057  23.933  1.00  0.00    -0.276 OA
ENDBRANCH  38  40
ENDBRANCH  37  38
ENDBRANCH  34  37
ENDBRANCH   1  33
BRANCH  13  43
HETATM   43  O3  UNL     1      -9.219  12.583  33.938  1.00  0.00    -0.395 OA
ATOM     44  H3  UNL     1      -9.783  12.561  34.703  1.00  0.00     0.210 HD
ENDBRANCH  13  43
TORSDOF 10
ENDMDL
MODEL 2
REMARK VINA RESULT: -10.291561336      3.465      9.518
REMARK  10 active torsions:
REMARK  status: ('A' for Active; 'I' for Inactive)
REMARK    1  A    between atoms: C2_2  and  C3_3 
REMARK    2  A    between atoms: C2_2  and  C33_42 
REMARK    3  A    between atoms: C3_3  and  N1_4 
REMARK       I    between atoms: N1_4  and  C4_6 
REMARK    4  A    between atoms: C4_6  and  C5_8 
REMARK    5  A    between atoms: C8_11  and  C10_13 
REMARK       I    between atoms: C10_13  and  N2_15 
REMARK    6  A    between atoms: N2_15  and  C11_17 
REMARK    7  A    between atoms: C11_17  and  C12_18 
REMARK    8  A    between atoms: C12_18  and  C13_19 
REMARK    9  A    between atoms: C13_19  and  N3_20 
REMARK   10  A    between atoms: C23_30  and  O3_31 
ROOT
HETATM    1  C5  UNL     1     -10.151  14.931  27.778  1.00  0.00     0.053 C 
HETATM    2  C6  UNL     1     -10.859  15.899  28.670  1.00  0.00     0.022 C 
HETATM    3  C7  UNL     1      -9.845  16.599  29.529  1.00  0.00     0.020 C 
HETATM    4  C8  UNL     1      -8.583  15.766  29.459  1.00  0.00     0.042 C 
HETATM    5  C9  UNL     1      -7.413  16.717  29.327  1.00  0.00     0.026 C 
HETATM    6  C16 UNL     1      -8.736  14.836  28.305  1.00  0.00     0.021 C 
HETATM    7  C17 UNL     1      -7.662  15.021  27.300  1.00  0.00     0.007 C 
HETATM    8  C18 UNL     1      -7.922  14.395  25.977  1.00  0.00     0.006 C 
HETATM    9  C19 UNL     1      -9.344  14.403  25.534  1.00  0.00    -0.001 C 
HETATM   10  C20 UNL     1      -9.511  14.704  24.067  1.00  0.00    -0.004 C 
HETATM   11  C21 UNL     1      -8.485  13.941  23.250  1.00  0.00     0.013 C 
HETATM   12  C22 UNL     1      -7.641  14.938  22.529  1.00  0.00     0.023 C 
HETATM   13  C23 UNL     1      -7.561  14.630  21.044  1.00  0.00     0.123 C 
HETATM   14  C24 UNL     1      -7.921  15.896  20.334  1.00  0.00     0.033 C 
HETATM   15  C25 UNL     1      -8.818  16.606  21.294  1.00  0.00     0.012 C 
HETATM   16  C26 UNL     1      -8.285  16.272  22.683  1.00  0.00    -0.034 C 
HETATM   17  C27 UNL     1      -7.269  17.334  23.025  1.00  0.00     0.016 C 
HETATM   18  C28 UNL     1      -9.393  16.144  23.706  1.00  0.00    -0.001 C 
HETATM   19  C29 UNL     1      -9.171  17.058  24.853  1.00  0.00     0.006 C 
HETATM   20  C30 UNL     1      -9.929  16.773  26.098  1.00  0.00     0.011 C 
HETATM   21  C31 UNL     1     -10.235  15.310  26.350  1.00  0.00    -0.023 C 
HETATM   22  C32 UNL     1     -11.643  15.105  25.839  1.00  0.00     0.017 C 
ENDROOT
BRANCH   4  23
HETATM   23  C10 UNL     1      -8.380  15.044  30.753  1.00  0.00     0.226 C 
HETATM   24  O2  UNL     1      -8.598  13.810  30.798  1.00  0.00    -0.273 OA
HETATM   25  N2  UNL     1      -7.953  15.705  31.925  1.00  0.00    -0.360 N 
ATOM     26  H2  UNL     1      -7.776  16.710  31.891  1.00  0.00     0.162 HD
BRANCH  25  27
HETATM   27  C11 UNL     1      -7.759  14.997  33.175  1.00  0.00     0.124 C 
BRANCH  27  28
HETATM   28  C12 UNL     1      -8.970  15.093  34.065  1.00  0.00     0.050 C 
BRANCH  28  29
HETATM   29  C13 UNL     1      -9.848  13.874  34.009  1.00  0.00     0.273 C 
BRANCH  29  30
HETATM   30  N3  UNL     1     -11.223  14.368  33.899  1.00  0.00     0.080 N 
HETATM   31  C14 UNL     1     -12.168  13.343  34.297  1.00  0.00     0.309 C 
HETATM   32  C15 UNL     1     -11.487  14.875  32.568  1.00  0.00     0.309 C 
ENDBRANCH  29  30
ENDBRANCH  28  29
ENDBRANCH  27  28
ENDBRANCH  25  27
ENDBRANCH   4  23
BRANCH   1  33
HETATM   33  C4  UNL     1     -10.787  13.571  27.975  1.00  0.00     0.231 C 
HETATM   34  N1  UNL     1     -11.435  13.183  29.136  1.00  0.00    -0.339 N 
ATOM     35  H1  UNL     1     -11.472  13.891  29.870  1.00  0.00     0.167 HD
HETATM   36  O1  UNL     1     -10.691  12.795  27.000  1.00  0.00    -0.272 OA
BRANCH  34  37
HETATM   37  C3  UNL     1     -12.048  11.961  29.453  1.00  0.00     0.077 C 
BRANCH  37  38
HETATM   38  C2  UNL     1     -13.427  11.645  29.051  1.00  0.00     0.109 C 
HETATM   39  C1  UNL     1     -13.799  11.651  27.613  1.00  0.00     0.025 C 
BRANCH  38  40
HETATM   40  C33 UNL     1     -14.415  12.519  29.787  1.00  0.00     0.239 C 
HETATM   41  N4  UNL     1     -14.496  13.902  29.446  1.00  0.00    -0.062 NA
HETATM   42  O4  UNL     1     -15.122  11.989  30.668  1.00  0.00    -0.276 OA
ENDBRANCH  38  40
ENDBRANCH  37  38
ENDBRANCH  34  37
ENDBRANCH   1  33
BRANCH  13  43
HETATM   43  O3  UNL     1      -6.283  14.240  20.654  1.00  0.00    -0.395 OA
ATOM     44  H3  UNL     1      -5.682  14.973  20.605  1.00  0.00     0.210 HD
ENDBRANCH  13  43
TORSDOF 10
ENDMDL
MODEL 3
REMARK VINA RESULT: -10.056585570      3.552      9.101
REMARK  10 active torsions:
REMARK  status: ('A' for Active; 'I' for Inactive)
REMARK    1  A    between atoms: C2_2  and  C3_3 
REMARK    2  A    between atoms: C2_2  and  C33_42 
REMARK    3  A    between atoms: C3_3  and  N1_4 
REMARK       I    between atoms: N1_4  and  C4_6 
REMARK    4  A    between atoms: C4_6  and  C5_8 
REMARK    5  A    between atoms: C8_11  and  C10_13 
REMARK       I    between atoms: C10_13  and  N2_15 
REMARK    6  A    between atoms: N2_15  and  C11_17 
REMARK    7  A    between atoms: C11_17  and  C12_18 
REMARK    8  A    between atoms: C12_18  and  C13_19 
REMARK    9  A    between atoms: C13_19  and  N3_20 
REMARK   10  A    between atoms: C23_30  and  O3_31 
ROOT
HETATM    1  C5  UNL     1     -10.043  15.428  28.708  1.00  0.00     0.053 C 
HETATM    2  C6  UNL     1     -10.442  16.585  29.566  1.00  0.00     0.022 C 
HETATM    3  C7  UNL     1      -9.226  17.101  30.282  1.00  0.00     0.020 C 
HETATM    4  C8  UNL     1      -8.183  16.009  30.187  1.00  0.00     0.042 C 
HETATM    5  C9  UNL     1      -6.855  16.669  29.884  1.00  0.00     0.026 C 
HETATM    6  C16 UNL     1      -8.637  15.059  29.131  1.00  0.00     0.021 C 
HETATM    7  C17 UNL     1      -7.647  14.936  28.036  1.00  0.00     0.007 C 
HETATM    8  C18 UNL     1      -8.157  14.296  26.794  1.00  0.00     0.006 C 
HETATM    9  C19 UNL     1      -9.580  14.586  26.462  1.00  0.00    -0.001 C 
HETATM   10  C20 UNL     1      -9.815  14.817  24.993  1.00  0.00    -0.004 C 
HETATM   11  C21 UNL     1      -9.055  13.795  24.168  1.00  0.00     0.013 C 
HETATM   12  C22 UNL     1      -8.090  14.532  23.302  1.00  0.00     0.023 C 
HETATM   13  C23 UNL     1      -8.216  14.116  21.846  1.00  0.00     0.123 C 
HETATM   14  C24 UNL     1      -8.363  15.380  21.061  1.00  0.00     0.033 C 
HETATM   15  C25 UNL     1      -8.995  16.332  22.022  1.00  0.00     0.012 C 
HETATM   16  C26 UNL     1      -8.418  15.982  23.390  1.00  0.00    -0.034 C 
HETATM   17  C27 UNL     1      -7.171  16.816  23.561  1.00  0.00     0.016 C 
HETATM   18  C28 UNL     1      -9.427  16.170  24.501  1.00  0.00    -0.001 C 
HETATM   19  C29 UNL     1      -8.910  17.087  25.546  1.00  0.00     0.006 C 
HETATM   20  C30 UNL     1      -9.592  17.059  26.865  1.00  0.00     0.011 C 
HETATM   21  C31 UNL     1     -10.176  15.719  27.264  1.00  0.00    -0.023 C 
HETATM   22  C32 UNL     1     -11.638  15.795  26.881  1.00  0.00     0.017 C 
ENDROOT
BRANCH   4  23
HETATM   23  C10 UNL     1      -8.018  15.348  31.519  1.00  0.00     0.226 C 
HETATM   24  O2  UNL     1      -7.343  15.927  32.402  1.00  0.00    -0.273 OA
HETATM   25  N2  UNL     1      -8.596  14.094  31.814  1.00  0.00    -0.360 N 
ATOM     26  H2  UNL     1      -9.146  13.620  31.096  1.00  0.00     0.162 HD
BRANCH  25  27
HETATM   27  C11 UNL     1      -8.431  13.461  33.107  1.00  0.00     0.124 C 
BRANCH  27  28
HETATM   28  C12 UNL     1      -9.621  13.697  34.001  1.00  0.00     0.050 C 
BRANCH  28  29
HETATM   29  C13 UNL     1     -10.664  14.585  33.381  1.00  0.00     0.273 C 
BRANCH  29  30
HETATM   30  N3  UNL     1     -11.822  13.728  33.116  1.00  0.00     0.080 N 
HETATM   31  C14 UNL     1     -12.882  14.483  32.476  1.00  0.00     0.309 C 
HETATM   32  C15 UNL     1     -12.269  13.070  34.328  1.00  0.00     0.309 C 
ENDBRANCH  29  30
ENDBRANCH  28  29
ENDBRANCH  27  28
ENDBRANCH  25  27
ENDBRANCH   4  23
BRANCH   1  33
HETATM   33  C4  UNL     1     -10.933  14.256  29.070  1.00  0.00     0.231 C 
HETATM   34  N1  UNL     1     -12.264  14.157  28.702  1.00  0.00    -0.339 N 
ATOM     35  H1  UNL     1     -12.621  14.934  28.147  1.00  0.00     0.167 HD
HETATM   36  O1  UNL     1     -10.378  13.357  29.738  1.00  0.00    -0.272 OA
BRANCH  34  37
HETATM   37  C3  UNL     1     -13.195  13.145  28.980  1.00  0.00     0.077 C 
BRANCH  37  38
HETATM   38  C2  UNL     1     -13.094  11.799  28.395  1.00  0.00     0.109 C 
HETATM   39  C1  UNL     1     -12.250  10.768  29.051  1.00  0.00     0.025 C 
BRANCH  38  40
HETATM   40  C33 UNL     1     -12.685  11.874  26.943  1.00  0.00     0.239 C 
HETATM   41  N4  UNL     1     -13.692  11.758  25.938  1.00  0.00    -0.062 NA
HETATM   42  O4  UNL     1     -11.475  12.035  26.683  1.00  0.00    -0.276 OA
ENDBRANCH  38  40
ENDBRANCH  37  38
ENDBRANCH  34  37
ENDBRANCH   1  33
BRANCH  13  43
HETATM   43  O3  UNL     1      -7.093  13.429  21.395  1.00  0.00    -0.395 OA
ATOM     44  H3  UNL     1      -6.945  13.554  20.465  1.00  0.00     0.210 HD
ENDBRANCH  13  43
TORSDOF 10
ENDMDL
MODEL 4
REMARK VINA RESULT: -10.038943460      2.541      5.243
REMARK  10 active torsions:
REMARK  status: ('A' for Active; 'I' for Inactive)
REMARK    1  A    between atoms: C2_2  and  C3_3 
REMARK    2  A    between atoms: C2_2  and  C33_42 
REMARK    3  A    between atoms: C3_3  and  N1_4 
REMARK       I    between atoms: N1_4  and  C4_6 
REMARK    4  A    between atoms: C4_6  and  C5_8 
REMARK    5  A    between atoms: C8_11  and  C10_13 
REMARK       I    between atoms: C10_13  and  N2_15 
REMARK    6  A    between atoms: N2_15  and  C11_17 
REMARK    7  A    between atoms: C11_17  and  C12_18 
REMARK    8  A    between atoms: C12_18  and  C13_19 
REMARK    9  A    between atoms: C13_19  and  N3_20 
REMARK   10  A    between atoms: C23_30  and  O3_31 
ROOT
HETATM    1  C5  UNL     1      -8.656  15.729  26.340  1.00  0.00     0.053 C 
HETATM    2  C6  UNL     1      -7.263  15.206  26.186  1.00  0.00     0.022 C 
HETATM    3  C7  UNL     1      -6.380  15.875  27.200  1.00  0.00     0.020 C 
HETATM    4  C8  UNL     1      -7.134  17.095  27.682  1.00  0.00     0.042 C 
HETATM    5  C9  UNL     1      -6.954  17.182  29.182  1.00  0.00     0.026 C 
HETATM    6  C16 UNL     1      -8.552  16.930  27.254  1.00  0.00     0.021 C 
HETATM    7  C17 UNL     1      -9.482  16.942  28.408  1.00  0.00     0.007 C 
HETATM    8  C18 UNL     1     -10.853  16.443  28.119  1.00  0.00     0.006 C 
HETATM    9  C19 UNL     1     -10.934  15.333  27.129  1.00  0.00    -0.001 C 
HETATM   10  C20 UNL     1     -11.936  14.273  27.500  1.00  0.00    -0.004 C 
HETATM   11  C21 UNL     1     -13.218  14.910  28.006  1.00  0.00     0.013 C 
HETATM   12  C22 UNL     1     -13.431  14.457  29.411  1.00  0.00     0.023 C 
HETATM   13  C23 UNL     1     -14.827  13.894  29.610  1.00  0.00     0.123 C 
HETATM   14  C24 UNL     1     -14.650  12.554  30.251  1.00  0.00     0.033 C 
HETATM   15  C25 UNL     1     -13.307  12.103  29.783  1.00  0.00     0.012 C 
HETATM   16  C26 UNL     1     -12.456  13.366  29.687  1.00  0.00    -0.034 C 
HETATM   17  C27 UNL     1     -11.798  13.548  31.034  1.00  0.00     0.016 C 
HETATM   18  C28 UNL     1     -11.474  13.309  28.538  1.00  0.00    -0.001 C 
HETATM   19  C29 UNL     1     -10.084  13.523  29.011  1.00  0.00     0.006 C 
HETATM   20  C30 UNL     1      -9.073  13.891  27.986  1.00  0.00     0.011 C 
HETATM   21  C31 UNL     1      -9.601  14.694  26.815  1.00  0.00    -0.023 C 
HETATM   22  C32 UNL     1      -9.856  13.681  25.721  1.00  0.00     0.017 C 
ENDROOT
BRANCH   4  23
HETATM   23  C10 UNL     1      -6.507  18.332  27.121  1.00  0.00     0.226 C 
HETATM   24  O2  UNL     1      -7.196  19.378  27.044  1.00  0.00    -0.273 OA
HETATM   25  N2  UNL     1      -5.168  18.362  26.674  1.00  0.00    -0.360 N 
ATOM     26  H2  UNL     1      -4.606  17.512  26.735  1.00  0.00     0.162 HD
BRANCH  25  27
HETATM   27  C11 UNL     1      -4.570  19.565  26.132  1.00  0.00     0.124 C 
BRANCH  27  28
HETATM   28  C12 UNL     1      -4.588  19.569  24.626  1.00  0.00     0.050 C 
BRANCH  28  29
HETATM   29  C13 UNL     1      -3.929  18.361  24.020  1.00  0.00     0.273 C 
BRANCH  29  30
HETATM   30  N3  UNL     1      -4.749  17.986  22.865  1.00  0.00     0.080 N 
HETATM   31  C14 UNL     1      -5.894  17.201  23.284  1.00  0.00     0.309 C 
HETATM   32  C15 UNL     1      -3.953  17.309  21.861  1.00  0.00     0.309 C 
ENDBRANCH  29  30
ENDBRANCH  28  29
ENDBRANCH  27  28
ENDBRANCH  25  27
ENDBRANCH   4  23
BRANCH   1  33
HETATM   33  C4  UNL     1      -9.109  16.242  24.988  1.00  0.00     0.231 C 
HETATM   34  N1  UNL     1      -9.081  15.486  23.828  1.00  0.00    -0.339 N 
ATOM     35  H1  UNL     1      -8.741  14.531  23.939  1.00  0.00     0.167 HD
HETATM   36  O1  UNL     1      -9.520  17.422  24.981  1.00  0.00    -0.272 OA
BRANCH  34  37
HETATM   37  C3  UNL     1      -9.453  15.839  22.522  1.00  0.00     0.077 C 
BRANCH  37  38
HETATM   38  C2  UNL     1      -8.891  15.173  21.336  1.00  0.00     0.109 C 
HETATM   39  C1  UNL     1      -8.074  13.943  21.496  1.00  0.00     0.025 C 
BRANCH  38  40
HETATM   40  C33 UNL     1      -8.098  16.148  20.498  1.00  0.00     0.239 C 
HETATM   41  N4  UNL     1      -6.810  15.758  20.024  1.00  0.00    -0.062 NA
HETATM   42  O4  UNL     1      -8.608  17.261  20.256  1.00  0.00    -0.276 OA
ENDBRANCH  38  40
ENDBRANCH  37  38
ENDBRANCH  34  37
ENDBRANCH   1  33
BRANCH  13  43
HETATM   43  O3  UNL     1     -15.606  14.695  30.440  1.00  0.00    -0.395 OA
ATOM     44  H3  UNL     1     -16.511  14.409  30.470  1.00  0.00     0.210 HD
ENDBRANCH  13  43
TORSDOF 10
ENDMDL
MODEL 5
REMARK VINA RESULT: -10.008531091      1.307      1.422
REMARK  10 active torsions:
REMARK  status: ('A' for Active; 'I' for Inactive)
REMARK    1  A    between atoms: C2_2  and  C3_3 
REMARK    2  A    between atoms: C2_2  and  C33_42 
REMARK    3  A    between atoms: C3_3  and  N1_4 
REMARK       I    between atoms: N1_4  and  C4_6 
REMARK    4  A    between atoms: C4_6  and  C5_8 
REMARK    5  A    between atoms: C8_11  and  C10_13 
REMARK       I    between atoms: C10_13  and  N2_15 
REMARK    6  A    between atoms: N2_15  and  C11_17 
REMARK    7  A    between atoms: C11_17  and  C12_18 
REMARK    8  A    between atoms: C12_18  and  C13_19 
REMARK    9  A    between atoms: C13_19  and  N3_20 
REMARK   10  A    between atoms: C23_30  and  O3_31 
ROOT
HETATM    1  C5  UNL     1      -8.234  16.354  25.903  1.00  0.00     0.053 C 
HETATM    2  C6  UNL     1      -8.968  17.316  25.024  1.00  0.00     0.022 C 
HETATM    3  C7  UNL     1     -10.060  16.578  24.305  1.00  0.00     0.020 C 
HETATM    4  C8  UNL     1      -9.727  15.106  24.422  1.00  0.00     0.042 C 
HETATM    5  C9  UNL     1     -11.014  14.367  24.719  1.00  0.00     0.026 C 
HETATM    6  C16 UNL     1      -8.698  14.974  25.492  1.00  0.00     0.021 C 
HETATM    7  C17 UNL     1      -9.155  14.094  26.594  1.00  0.00     0.007 C 
HETATM    8  C18 UNL     1      -8.354  14.182  27.843  1.00  0.00     0.006 C 
HETATM    9  C19 UNL     1      -7.815  15.532  28.165  1.00  0.00    -0.001 C 
HETATM   10  C20 UNL     1      -7.895  15.875  29.629  1.00  0.00    -0.004 C 
HETATM   11  C21 UNL     1      -7.472  14.688  30.474  1.00  0.00     0.013 C 
HETATM   12  C22 UNL     1      -8.630  14.301  31.332  1.00  0.00     0.023 C 
HETATM   13  C23 UNL     1      -8.230  14.195  32.794  1.00  0.00     0.123 C 
HETATM   14  C24 UNL     1      -9.212  15.025  33.557  1.00  0.00     0.033 C 
HETATM   15  C25 UNL     1      -9.646  16.065  32.577  1.00  0.00     0.012 C 
HETATM   16  C26 UNL     1      -9.656  15.374  31.218  1.00  0.00    -0.034 C 
HETATM   17  C27 UNL     1     -11.038  14.792  31.037  1.00  0.00     0.016 C 
HETATM   18  C28 UNL     1      -9.242  16.304  30.099  1.00  0.00    -0.001 C 
HETATM   19  C29 UNL     1     -10.281  16.366  29.041  1.00  0.00     0.006 C 
HETATM   20  C30 UNL     1      -9.865  16.903  27.720  1.00  0.00     0.011 C 
HETATM   21  C31 UNL     1      -8.420  16.645  27.342  1.00  0.00    -0.023 C 
HETATM   22  C32 UNL     1      -7.681  17.910  27.717  1.00  0.00     0.017 C 
ENDROOT
BRANCH   4  23
HETATM   23  C10 UNL     1      -9.251  14.587  23.102  1.00  0.00     0.226 C 
HETATM   24  O2  UNL     1     -10.100  14.271  22.235  1.00  0.00    -0.273 OA
HETATM   25  N2  UNL     1      -7.880  14.439  22.802  1.00  0.00    -0.360 N 
ATOM     26  H2  UNL     1      -7.187  14.694  23.506  1.00  0.00     0.162 HD
BRANCH  25  27
HETATM   27  C11 UNL     1      -7.428  13.935  21.520  1.00  0.00     0.124 C 
BRANCH  27  28
HETATM   28  C12 UNL     1      -7.367  15.024  20.481  1.00  0.00     0.050 C 
BRANCH  28  29
HETATM   29  C13 UNL     1      -5.964  15.397  20.091  1.00  0.00     0.273 C 
BRANCH  29  30
HETATM   30  N3  UNL     1      -5.623  16.581  20.883  1.00  0.00     0.080 N 
HETATM   31  C14 UNL     1      -6.714  17.536  20.874  1.00  0.00     0.309 C 
HETATM   32  C15 UNL     1      -4.375  17.165  20.432  1.00  0.00     0.309 C 
ENDBRANCH  29  30
ENDBRANCH  28  29
ENDBRANCH  27  28
ENDBRANCH  25  27
ENDBRANCH   4  23
BRANCH   1  33
HETATM   33  C4  UNL     1      -6.761  16.445  25.558  1.00  0.00     0.231 C 
HETATM   34  N1  UNL     1      -5.741  16.138  26.443  1.00  0.00    -0.339 N 
ATOM     35  H1  UNL     1      -6.046  15.826  27.365  1.00  0.00     0.167 HD
HETATM   36  O1  UNL     1      -6.513  16.824  24.393  1.00  0.00    -0.272 OA
BRANCH  34  37
HETATM   37  C3  UNL     1      -4.351  16.193  26.260  1.00  0.00     0.077 C 
BRANCH  37  38
HETATM   38  C2  UNL     1      -3.546  17.348  26.685  1.00  0.00     0.109 C 
HETATM   39  C1  UNL     1      -3.494  17.727  28.121  1.00  0.00     0.025 C 
BRANCH  38  40
HETATM   40  C33 UNL     1      -3.917  18.582  25.896  1.00  0.00     0.239 C 
HETATM   41  N4  UNL     1      -3.284  18.810  24.638  1.00  0.00    -0.062 NA
HETATM   42  O4  UNL     1      -4.768  19.354  26.384  1.00  0.00    -0.276 OA
ENDBRANCH  38  40
ENDBRANCH  37  38
ENDBRANCH  34  37
ENDBRANCH   1  33
BRANCH  13  43
HETATM   43  O3  UNL     1      -8.284  12.885  33.261  1.00  0.00    -0.395 OA
ATOM     44  H3  UNL     1      -8.872  12.791  34.001  1.00  0.00     0.210 HD
ENDBRANCH  13  43
TORSDOF 10
ENDMDL
