MODEL 1
REMARK VINA RESULT: -10.416055647      0.000      0.000
REMARK  12 active torsions:
REMARK  status: ('A' for Active; 'I' for Inactive)
REMARK    1  A    between atoms: C2_2  and  C3_3 
REMARK    2  A    between atoms: C3_3  and  N1_4 
REMARK    3  A    between atoms: N1_4  and  C4_6 
REMARK    4  A    between atoms: N3_10  and  C6_12 
REMARK    5  A    between atoms: C6_12  and  C7_13 
REMARK    6  A    between atoms: C7_13  and  C8_14 
REMARK    7  A    between atoms: C16_26  and  N6_27 
REMARK    8  A    between atoms: N6_27  and  C17_29 
REMARK    9  A    between atoms: C17_29  and  C18_30 
REMARK   10  A    between atoms: C22_36  and  C23_37 
REMARK   11  A    between atoms: C31_48  and  C32_49 
REMARK   12  A    between atoms: C32_49  and  C33_50 
ROOT
HETATM    1  C4  UNL     1      -8.906  17.244  25.755  1.00  0.00     0.711 A 
HETATM    2  N2  UNL     1      -8.498  17.157  24.447  1.00  0.00    -0.021 N 
ATOM      3  H2  UNL     1      -7.716  17.736  24.137  1.00  0.00     0.203 HD
HETATM    4  C5  UNL     1      -9.077  16.354  23.574  1.00  0.00     0.707 A 
HETATM    5  N3  UNL     1      -8.714  16.251  22.335  1.00  0.00    -0.225 N 
ATOM      6  H3  UNL     1      -9.221  15.602  21.732  1.00  0.00     0.177 HD
HETATM    7  N5  UNL     1     -10.124  15.585  24.015  1.00  0.00    -0.022 N 
ATOM      8  H5  UNL     1     -10.588  14.955  23.361  1.00  0.00     0.203 HD
HETATM    9  C16 UNL     1     -10.549  15.640  25.273  1.00  0.00     0.707 A 
HETATM   10  N9  UNL     1      -9.931  16.472  26.125  1.00  0.00    -0.021 N 
ATOM     11  H9  UNL     1     -10.255  16.515  27.090  1.00  0.00     0.203 HD
ENDROOT
BRANCH   9  12
HETATM   12  N6  UNL     1     -11.499  14.943  25.709  1.00  0.00    -0.221 N 
ATOM     13  H6  UNL     1     -11.970  14.355  25.020  1.00  0.00     0.178 HD
BRANCH  12  14
HETATM   14  C17 UNL     1     -12.015  14.863  27.064  1.00  0.00     0.179 C 
BRANCH  14  15
HETATM   15  C18 UNL     1     -12.306  13.496  27.470  1.00  0.00    -0.012 A 
HETATM   16  C19 UNL     1     -13.166  12.771  26.654  1.00  0.00     0.012 A 
HETATM   17  C20 UNL     1     -13.480  11.466  26.948  1.00  0.00     0.018 A 
HETATM   18  C21 UNL     1     -12.936  10.867  28.068  1.00  0.00     0.088 A 
HETATM   19  N7  UNL     1     -12.114  11.584  28.837  1.00  0.00    -0.365 N 
HETATM   20  C22 UNL     1     -11.778  12.893  28.571  1.00  0.00     0.051 A 
ATOM     21  H7  UNL     1     -11.714  11.140  29.663  1.00  0.00     0.165 HD
BRANCH  20  22
HETATM   22  C23 UNL     1     -10.882  13.584  29.483  1.00  0.00     0.000 A 
HETATM   23  C24 UNL     1      -9.589  13.793  29.046  1.00  0.00     0.015 A 
HETATM   24  C25 UNL     1      -8.664  14.483  29.782  1.00  0.00     0.014 A 
HETATM   25  C26 UNL     1      -9.040  14.986  31.004  1.00  0.00    -0.009 A 
HETATM   26  C27 UNL     1      -8.113  15.692  31.788  1.00  0.00     0.019 A 
HETATM   27  C30 UNL     1     -10.322  14.809  31.495  1.00  0.00     0.052 A 
HETATM   28  C28 UNL     1      -8.432  16.208  33.015  1.00  0.00     0.075 A 
HETATM   29  C29 UNL     1      -9.713  16.006  33.462  1.00  0.00     0.245 A 
HETATM   30  O1  UNL     1     -10.058  16.463  34.592  1.00  0.00    -0.268 OA
HETATM   31  N8  UNL     1     -10.600  15.324  32.698  1.00  0.00    -0.322 N 
ATOM     32  H8  UNL     1     -11.543  15.195  33.065  1.00  0.00     0.169 HD
HETATM   33  C31 UNL     1     -11.230  14.104  30.716  1.00  0.00    -0.015 A 
BRANCH  33  34
HETATM   34  C32 UNL     1     -12.576  13.909  31.246  1.00  0.00     0.068 C 
BRANCH  34  35
HETATM   35  C33 UNL     1     -12.773  12.721  32.095  1.00  0.00    -0.032 C 
HETATM   36  C34 UNL     1     -12.964  12.710  33.400  1.00  0.00     0.007 C 
ENDBRANCH  34  35
ENDBRANCH  33  34
ENDBRANCH  20  22
ENDBRANCH  14  15
ENDBRANCH  12  14
ENDBRANCH   9  12
BRANCH   1  37
HETATM   37  N1  UNL     1      -8.302  18.024  26.502  1.00  0.00    -0.201 N 
ATOM     38  H1  UNL     1      -8.843  18.887  26.569  1.00  0.00     0.183 HD
BRANCH  37  39
HETATM   39  C3  UNL     1      -7.175  18.161  27.275  1.00  0.00     0.105 C 
BRANCH  39  40
HETATM   40  C2  UNL     1      -7.052  17.349  28.512  1.00  0.00     0.007 C 
HETATM   41  C1  UNL     1      -5.901  16.832  28.927  1.00  0.00     0.012 C 
ENDBRANCH  39  40
ENDBRANCH  37  39
ENDBRANCH   1  37
BRANCH   5  42
HETATM   42  C6  UNL     1      -7.647  16.995  21.778  1.00  0.00     0.142 C 
BRANCH  42  43
HETATM   43  C7  UNL     1      -6.266  16.570  22.195  1.00  0.00     0.061 C 
BRANCH  43  44
HETATM   44  C8  UNL     1      -5.684  17.629  23.039  1.00  0.00    -0.029 A 
HETATM   45  C9  UNL     1      -5.772  19.006  22.832  1.00  0.00     0.096 A 
HETATM   46  N4  UNL     1      -5.118  19.655  23.793  1.00  0.00    -0.365 N 
HETATM   47  C10 UNL     1      -4.591  18.751  24.642  1.00  0.00     0.042 A 
ATOM     48  H4  UNL     1      -5.031  20.668  23.874  1.00  0.00     0.165 HD
HETATM   49  C11 UNL     1      -3.837  18.913  25.780  1.00  0.00     0.030 A 
HETATM   50  C15 UNL     1      -4.940  17.477  24.180  1.00  0.00    -0.002 A 
HETATM   51  C12 UNL     1      -3.398  17.817  26.504  1.00  0.00     0.002 A 
HETATM   52  C13 UNL     1      -3.749  16.587  26.036  1.00  0.00     0.001 A 
HETATM   53  C14 UNL     1      -4.499  16.391  24.907  1.00  0.00     0.014 A 
ENDBRANCH  43  44
ENDBRANCH  42  43
ENDBRANCH   5  42
TORSDOF 12
ENDMDL
MODEL 2
REMARK VINA RESULT: -10.371557670      1.133      2.837
REMARK  12 active torsions:
REMARK  status: ('A' for Active; 'I' for Inactive)
REMARK    1  A    between atoms: C2_2  and  C3_3 
REMARK    2  A    between atoms: C3_3  and  N1_4 
REMARK    3  A    between atoms: N1_4  and  C4_6 
REMARK    4  A    between atoms: N3_10  and  C6_12 
REMARK    5  A    between atoms: C6_12  and  C7_13 
REMARK    6  A    between atoms: C7_13  and  C8_14 
REMARK    7  A    between atoms: C16_26  and  N6_27 
REMARK    8  A    between atoms: N6_27  and  C17_29 
REMARK    9  A    between atoms: C17_29  and  C18_30 
REMARK   10  A    between atoms: C22_36  and  C23_37 
REMARK   11  A    between atoms: C31_48  and  C32_49 
REMARK   12  A    between atoms: C32_49  and  C33_50 
ROOT
HETATM    1  C4  UNL     1      -8.658  16.506  24.124  1.00  0.00     0.711 A 
HETATM    2  N2  UNL     1      -8.034  17.214  25.121  1.00  0.00    -0.021 N 
ATOM      3  H2  UNL     1      -7.159  17.694  24.908  1.00  0.00     0.203 HD
HETATM    4  C5  UNL     1      -8.520  17.297  26.345  1.00  0.00     0.707 A 
HETATM    5  N3  UNL     1      -7.955  17.957  27.305  1.00  0.00    -0.225 N 
ATOM      6  H3  UNL     1      -8.405  17.965  28.220  1.00  0.00     0.177 HD
HETATM    7  N5  UNL     1      -9.699  16.644  26.606  1.00  0.00    -0.022 N 
ATOM      8  H5  UNL     1     -10.097  16.693  27.543  1.00  0.00     0.203 HD
HETATM    9  C16 UNL     1     -10.334  15.948  25.668  1.00  0.00     0.707 A 
HETATM   10  N9  UNL     1      -9.801  15.891  24.439  1.00  0.00    -0.021 N 
ATOM     11  H9  UNL     1     -10.286  15.358  23.718  1.00  0.00     0.203 HD
ENDROOT
BRANCH   9  12
HETATM   12  N6  UNL     1     -11.418  15.346  25.874  1.00  0.00    -0.221 N 
ATOM     13  H6  UNL     1     -11.889  14.986  25.044  1.00  0.00     0.178 HD
BRANCH  12  14
HETATM   14  C17 UNL     1     -12.087  15.097  27.138  1.00  0.00     0.179 C 
BRANCH  14  15
HETATM   15  C18 UNL     1     -12.231  13.677  27.422  1.00  0.00    -0.012 A 
HETATM   16  C19 UNL     1     -13.053  12.949  26.571  1.00  0.00     0.012 A 
HETATM   17  C20 UNL     1     -13.230  11.597  26.750  1.00  0.00     0.018 A 
HETATM   18  C21 UNL     1     -12.583  10.955  27.789  1.00  0.00     0.088 A 
HETATM   19  N7  UNL     1     -11.799  11.676  28.593  1.00  0.00    -0.365 N 
HETATM   20  C22 UNL     1     -11.600  13.030  28.442  1.00  0.00     0.051 A 
ATOM     21  H7  UNL     1     -11.323  11.199  29.359  1.00  0.00     0.165 HD
BRANCH  20  22
HETATM   22  C23 UNL     1     -10.734  13.720  29.384  1.00  0.00     0.000 A 
HETATM   23  C24 UNL     1      -9.444  13.979  28.967  1.00  0.00     0.015 A 
HETATM   24  C25 UNL     1      -8.547  14.673  29.733  1.00  0.00     0.014 A 
HETATM   25  C26 UNL     1      -8.950  15.128  30.965  1.00  0.00    -0.009 A 
HETATM   26  C27 UNL     1      -8.052  15.838  31.781  1.00  0.00     0.019 A 
HETATM   27  C30 UNL     1     -10.231  14.900  31.436  1.00  0.00     0.052 A 
HETATM   28  C28 UNL     1      -8.398  16.307  33.019  1.00  0.00     0.075 A 
HETATM   29  C29 UNL     1      -9.678  16.054  33.445  1.00  0.00     0.245 A 
HETATM   30  O1  UNL     1     -10.047  16.468  34.584  1.00  0.00    -0.268 OA
HETATM   31  N8  UNL     1     -10.537  15.370  32.652  1.00  0.00    -0.322 N 
ATOM     32  H8  UNL     1     -11.479  15.202  33.004  1.00  0.00     0.169 HD
HETATM   33  C31 UNL     1     -11.110  14.192  30.628  1.00  0.00    -0.015 A 
BRANCH  33  34
HETATM   34  C32 UNL     1     -12.455  13.942  31.137  1.00  0.00     0.068 C 
BRANCH  34  35
HETATM   35  C33 UNL     1     -12.622  12.734  31.963  1.00  0.00    -0.032 C 
HETATM   36  C34 UNL     1     -12.930  12.695  33.244  1.00  0.00     0.007 C 
ENDBRANCH  34  35
ENDBRANCH  33  34
ENDBRANCH  20  22
ENDBRANCH  14  15
ENDBRANCH  12  14
ENDBRANCH   9  12
BRANCH   1  37
HETATM   37  N1  UNL     1      -8.128  16.485  23.006  1.00  0.00    -0.201 N 
ATOM     38  H1  UNL     1      -7.127  16.645  23.122  1.00  0.00     0.183 HD
BRANCH  37  39
HETATM   39  C3  UNL     1      -8.387  16.326  21.665  1.00  0.00     0.105 C 
BRANCH  39  40
HETATM   40  C2  UNL     1      -8.656  14.962  21.145  1.00  0.00     0.007 C 
HETATM   41  C1  UNL     1      -7.959  13.895  21.518  1.00  0.00     0.012 C 
ENDBRANCH  39  40
ENDBRANCH  37  39
ENDBRANCH   1  37
BRANCH   5  42
HETATM   42  C6  UNL     1      -6.741  18.666  27.144  1.00  0.00     0.142 C 
BRANCH  42  43
HETATM   43  C7  UNL     1      -5.484  17.851  27.281  1.00  0.00     0.061 C 
BRANCH  43  44
HETATM   44  C8  UNL     1      -4.564  18.221  26.191  1.00  0.00    -0.029 A 
HETATM   45  C9  UNL     1      -4.421  19.482  25.610  1.00  0.00     0.096 A 
HETATM   46  N4  UNL     1      -3.501  19.440  24.648  1.00  0.00    -0.365 N 
HETATM   47  C10 UNL     1      -3.021  18.183  24.567  1.00  0.00     0.042 A 
ATOM     48  H4  UNL     1      -3.208  20.227  24.069  1.00  0.00     0.165 HD
HETATM   49  C11 UNL     1      -2.067  17.632  23.743  1.00  0.00     0.030 A 
HETATM   50  C15 UNL     1      -3.679  17.411  25.530  1.00  0.00    -0.002 A 
HETATM   51  C12 UNL     1      -1.731  16.293  23.842  1.00  0.00     0.002 A 
HETATM   52  C13 UNL     1      -2.384  15.560  24.786  1.00  0.00     0.001 A 
HETATM   53  C14 UNL     1      -3.337  16.078  25.622  1.00  0.00     0.014 A 
ENDBRANCH  43  44
ENDBRANCH  42  43
ENDBRANCH   5  42
TORSDOF 12
ENDMDL
MODEL 3
REMARK VINA RESULT: -10.326368058      2.990      9.509
REMARK  12 active torsions:
REMARK  status: ('A' for Active; 'I' for Inactive)
REMARK    1  A    between atoms: C2_2  and  C3_3 
REMARK    2  A    between atoms: C3_3  and  N1_4 
REMARK    3  A    between atoms: N1_4  and  C4_6 
REMARK    4  A    between atoms: N3_10  and  C6_12 
REMARK    5  A    between atoms: C6_12  and  C7_13 
REMARK    6  A    between atoms: C7_13  and  C8_14 
REMARK    7  A    between atoms: C16_26  and  N6_27 
REMARK    8  A    between atoms: N6_27  and  C17_29 
REMARK    9  A    between atoms: C17_29  and  C18_30 
REMARK   10  A    between atoms: C22_36  and  C23_37 
REMARK   11  A    between atoms: C31_48  and  C32_49 
REMARK   12  A    between atoms: C32_49  and  C33_50 
ROOT
HETATM    1  C4  UNL     1     -10.087  15.698  30.556  1.00  0.00     0.711 A 
HETATM    2  N2  UNL     1     -11.004  15.516  29.551  1.00  0.00    -0.021 N 
ATOM      3  H2  UNL     1     -11.869  15.016  29.760  1.00  0.00     0.203 HD
HETATM    4  C5  UNL     1     -10.812  15.964  28.325  1.00  0.00     0.707 A 
HETATM    5  N3  UNL     1     -11.659  15.809  27.357  1.00  0.00    -0.225 N 
ATOM      6  H3  UNL     1     -11.424  16.190  26.440  1.00  0.00     0.177 HD
HETATM    7  N5  UNL     1      -9.643  16.636  28.069  1.00  0.00    -0.022 N 
ATOM      8  H5  UNL     1      -9.470  16.993  27.130  1.00  0.00     0.203 HD
HETATM    9  C16 UNL     1      -8.730  16.832  29.015  1.00  0.00     0.707 A 
HETATM   10  N9  UNL     1      -8.968  16.358  30.247  1.00  0.00    -0.021 N 
ATOM     11  H9  UNL     1      -8.269  16.507  30.974  1.00  0.00     0.203 HD
ENDROOT
BRANCH   9  12
HETATM   12  N6  UNL     1      -7.654  17.450  28.814  1.00  0.00    -0.221 N 
ATOM     13  H6  UNL     1      -7.105  17.665  29.647  1.00  0.00     0.178 HD
BRANCH  12  14
HETATM   14  C17 UNL     1      -7.090  17.897  27.554  1.00  0.00     0.179 C 
BRANCH  14  15
HETATM   15  C18 UNL     1      -5.783  17.315  27.290  1.00  0.00    -0.012 A 
HETATM   16  C19 UNL     1      -4.765  17.634  28.180  1.00  0.00     0.012 A 
HETATM   17  C20 UNL     1      -3.503  17.112  28.022  1.00  0.00     0.018 A 
HETATM   18  C21 UNL     1      -3.242  16.260  26.966  1.00  0.00     0.088 A 
HETATM   19  N7  UNL     1      -4.236  15.969  26.124  1.00  0.00    -0.365 N 
HETATM   20  C22 UNL     1      -5.511  16.474  26.253  1.00  0.00     0.051 A 
ATOM     21  H7  UNL     1      -4.041  15.340  25.345  1.00  0.00     0.165 HD
BRANCH  20  22
HETATM   22  C23 UNL     1      -6.515  16.099  25.271  1.00  0.00     0.000 A 
HETATM   23  C24 UNL     1      -7.400  15.104  25.634  1.00  0.00     0.015 A 
HETATM   24  C25 UNL     1      -8.428  14.701  24.826  1.00  0.00     0.014 A 
HETATM   25  C26 UNL     1      -8.583  15.312  23.606  1.00  0.00    -0.009 A 
HETATM   26  C27 UNL     1      -9.623  14.917  22.748  1.00  0.00     0.019 A 
HETATM   27  C30 UNL     1      -7.727  16.317  23.187  1.00  0.00     0.052 A 
HETATM   28  C28 UNL     1      -9.819  15.487  21.519  1.00  0.00     0.075 A 
HETATM   29  C29 UNL     1      -8.945  16.476  21.146  1.00  0.00     0.245 A 
HETATM   30  O1  UNL     1      -9.083  17.035  20.017  1.00  0.00    -0.268 OA
HETATM   31  N8  UNL     1      -7.945  16.851  21.980  1.00  0.00    -0.322 N 
ATOM     32  H8  UNL     1      -7.316  17.590  21.666  1.00  0.00     0.169 HD
HETATM   33  C31 UNL     1      -6.698  16.697  24.037  1.00  0.00    -0.015 A 
BRANCH  33  34
HETATM   34  C32 UNL     1      -5.790  17.746  23.583  1.00  0.00     0.068 C 
BRANCH  34  35
HETATM   35  C33 UNL     1      -4.634  17.304  22.785  1.00  0.00    -0.032 C 
HETATM   36  C34 UNL     1      -3.362  17.523  23.055  1.00  0.00     0.007 C 
ENDBRANCH  34  35
ENDBRANCH  33  34
ENDBRANCH  20  22
ENDBRANCH  14  15
ENDBRANCH  12  14
ENDBRANCH   9  12
BRANCH   1  37
HETATM   37  N1  UNL     1     -10.354  15.244  31.676  1.00  0.00    -0.201 N 
ATOM     38  H1  UNL     1     -11.061  14.517  31.567  1.00  0.00     0.183 HD
BRANCH  37  39
HETATM   39  C3  UNL     1     -10.052  15.356  33.012  1.00  0.00     0.105 C 
BRANCH  39  40
HETATM   40  C2  UNL     1      -8.797  14.742  33.516  1.00  0.00     0.007 C 
HETATM   41  C1  UNL     1      -8.091  13.862  32.816  1.00  0.00     0.012 C 
ENDBRANCH  39  40
ENDBRANCH  37  39
ENDBRANCH   1  37
BRANCH   5  42
HETATM   42  C6  UNL     1     -12.893  15.135  27.511  1.00  0.00     0.142 C 
BRANCH  42  43
HETATM   43  C7  UNL     1     -12.846  13.639  27.356  1.00  0.00     0.061 C 
BRANCH  43  44
HETATM   44  C8  UNL     1     -13.559  13.027  28.491  1.00  0.00    -0.029 A 
HETATM   45  C9  UNL     1     -14.685  13.532  29.141  1.00  0.00     0.096 A 
HETATM   46  N4  UNL     1     -15.049  12.714  30.127  1.00  0.00    -0.365 N 
HETATM   47  C10 UNL     1     -14.196  11.671  30.157  1.00  0.00     0.042 A 
ATOM     48  H4  UNL     1     -15.841  12.854  30.754  1.00  0.00     0.165 HD
HETATM   49  C11 UNL     1     -14.145  10.570  30.980  1.00  0.00     0.030 A 
HETATM   50  C15 UNL     1     -13.258  11.856  29.136  1.00  0.00    -0.002 A 
HETATM   51  C12 UNL     1     -13.159   9.611  30.822  1.00  0.00     0.002 A 
HETATM   52  C13 UNL     1     -12.258   9.811  29.822  1.00  0.00     0.001 A 
HETATM   53  C14 UNL     1     -12.281  10.895  28.985  1.00  0.00     0.014 A 
ENDBRANCH  43  44
ENDBRANCH  42  43
ENDBRANCH   5  42
TORSDOF 12
ENDMDL
MODEL 4
REMARK VINA RESULT: -10.264942745      1.928      3.464
REMARK  12 active torsions:
REMARK  status: ('A' for Active; 'I' for Inactive)
REMARK    1  A    between atoms: C2_2  and  C3_3 
REMARK    2  A    between atoms: C3_3  and  N1_4 
REMARK    3  A    between atoms: N1_4  and  C4_6 
REMARK    4  A    between atoms: N3_10  and  C6_12 
REMARK    5  A    between atoms: C6_12  and  C7_13 
REMARK    6  A    between atoms: C7_13  and  C8_14 
REMARK    7  A    between atoms: C16_26  and  N6_27 
REMARK    8  A    between atoms: N6_27  and  C17_29 
REMARK    9  A    between atoms: C17_29  and  C18_30 
REMARK   10  A    between atoms: C22_36  and  C23_37 
REMARK   11  A    between atoms: C31_48  and  C32_49 
REMARK   12  A    between atoms: C32_49  and  C33_50 
ROOT
HETATM    1  C4  UNL     1      -7.645  16.973  23.102  1.00  0.00     0.711 A 
HETATM    2  N2  UNL     1      -6.794  17.643  23.945  1.00  0.00    -0.021 N 
ATOM      3  H2  UNL     1      -5.922  18.015  23.568  1.00  0.00     0.203 HD
HETATM    4  C5  UNL     1      -7.060  17.826  25.225  1.00  0.00     0.707 A 
HETATM    5  N3  UNL     1      -6.277  18.454  26.044  1.00  0.00    -0.225 N 
ATOM      6  H3  UNL     1      -6.566  18.546  27.018  1.00  0.00     0.177 HD
HETATM    7  N5  UNL     1      -8.240  17.318  25.708  1.00  0.00    -0.022 N 
ATOM      8  H5  UNL     1      -8.469  17.446  26.694  1.00  0.00     0.203 HD
HETATM    9  C16 UNL     1      -9.091  16.663  24.925  1.00  0.00     0.707 A 
HETATM   10  N9  UNL     1      -8.778  16.501  23.630  1.00  0.00    -0.021 N 
ATOM     11  H9  UNL     1      -9.429  15.999  23.027  1.00  0.00     0.203 HD
ENDROOT
BRANCH   9  12
HETATM   12  N6  UNL     1     -10.182  16.194  25.335  1.00  0.00    -0.221 N 
ATOM     13  H6  UNL     1     -10.896  16.044  24.622  1.00  0.00     0.178 HD
BRANCH  12  14
HETATM   14  C17 UNL     1     -10.559  15.838  26.691  1.00  0.00     0.179 C 
BRANCH  14  15
HETATM   15  C18 UNL     1     -11.056  14.474  26.790  1.00  0.00    -0.012 A 
HETATM   16  C19 UNL     1     -11.711  13.963  25.677  1.00  0.00     0.012 A 
HETATM   17  C20 UNL     1     -12.194  12.676  25.673  1.00  0.00     0.018 A 
HETATM   18  C21 UNL     1     -12.028  11.880  26.791  1.00  0.00     0.088 A 
HETATM   19  N7  UNL     1     -11.397  12.393  27.849  1.00  0.00    -0.365 N 
HETATM   20  C22 UNL     1     -10.901  13.678  27.885  1.00  0.00     0.051 A 
ATOM     21  H7  UNL     1     -11.276  11.804  28.672  1.00  0.00     0.165 HD
BRANCH  20  22
HETATM   22  C23 UNL     1     -10.240  14.138  29.095  1.00  0.00     0.000 A 
HETATM   23  C24 UNL     1      -8.873  14.318  29.028  1.00  0.00     0.015 A 
HETATM   24  C25 UNL     1      -8.141  14.804  30.077  1.00  0.00     0.014 A 
HETATM   25  C26 UNL     1      -8.794  15.125  31.241  1.00  0.00    -0.009 A 
HETATM   26  C27 UNL     1      -8.071  15.619  32.340  1.00  0.00     0.019 A 
HETATM   27  C30 UNL     1     -10.164  14.967  31.368  1.00  0.00     0.052 A 
HETATM   28  C28 UNL     1      -8.671  15.947  33.526  1.00  0.00     0.075 A 
HETATM   29  C29 UNL     1     -10.030  15.771  33.606  1.00  0.00     0.245 A 
HETATM   30  O1  UNL     1     -10.631  16.060  34.683  1.00  0.00    -0.268 OA
HETATM   31  N8  UNL     1     -10.718  15.295  32.542  1.00  0.00    -0.322 N 
ATOM     32  H8  UNL     1     -11.727  15.178  32.640  1.00  0.00     0.169 HD
HETATM   33  C31 UNL     1     -10.870  14.472  30.281  1.00  0.00    -0.015 A 
BRANCH  33  34
HETATM   34  C32 UNL     1     -12.311  14.294  30.426  1.00  0.00     0.068 C 
BRANCH  34  35
HETATM   35  C33 UNL     1     -12.753  13.005  30.987  1.00  0.00    -0.032 C 
HETATM   36  C34 UNL     1     -13.767  12.273  30.571  1.00  0.00     0.007 C 
ENDBRANCH  34  35
ENDBRANCH  33  34
ENDBRANCH  20  22
ENDBRANCH  14  15
ENDBRANCH  12  14
ENDBRANCH   9  12
BRANCH   1  37
HETATM   37  N1  UNL     1      -7.314  16.852  21.916  1.00  0.00    -0.201 N 
ATOM     38  H1  UNL     1      -7.301  17.779  21.491  1.00  0.00     0.183 HD
BRANCH  37  39
HETATM   39  C3  UNL     1      -6.957  15.932  20.959  1.00  0.00     0.105 C 
BRANCH  39  40
HETATM   40  C2  UNL     1      -7.849  14.771  20.715  1.00  0.00     0.007 C 
HETATM   41  C1  UNL     1      -7.952  13.749  21.557  1.00  0.00     0.012 C 
ENDBRANCH  39  40
ENDBRANCH  37  39
ENDBRANCH   1  37
BRANCH   5  42
HETATM   42  C6  UNL     1      -5.040  19.017  25.651  1.00  0.00     0.142 C 
BRANCH  42  43
HETATM   43  C7  UNL     1      -3.828  18.507  26.381  1.00  0.00     0.061 C 
BRANCH  43  44
HETATM   44  C8  UNL     1      -3.251  17.391  25.610  1.00  0.00    -0.029 A 
HETATM   45  C9  UNL     1      -3.484  16.029  25.808  1.00  0.00     0.096 A 
HETATM   46  N4  UNL     1      -2.785  15.314  24.928  1.00  0.00    -0.365 N 
HETATM   47  C10 UNL     1      -2.088  16.159  24.144  1.00  0.00     0.042 A 
ATOM     48  H4  UNL     1      -2.779  14.296  24.859  1.00  0.00     0.165 HD
HETATM   49  C11 UNL     1      -1.226  15.918  23.098  1.00  0.00     0.030 A 
HETATM   50  C15 UNL     1      -2.372  17.464  24.561  1.00  0.00    -0.002 A 
HETATM   51  C12 UNL     1      -0.613  16.963  22.428  1.00  0.00     0.002 A 
HETATM   52  C13 UNL     1      -0.905  18.224  22.851  1.00  0.00     0.001 A 
HETATM   53  C14 UNL     1      -1.757  18.498  23.887  1.00  0.00     0.014 A 
ENDBRANCH  43  44
ENDBRANCH  42  43
ENDBRANCH   5  42
TORSDOF 12
ENDMDL
MODEL 5
REMARK VINA RESULT: -10.233784277      1.529      3.400
REMARK  12 active torsions:
REMARK  status: ('A' for Active; 'I' for Inactive)
REMARK    1  A    between atoms: C2_2  and  C3_3 
REMARK    2  A    between atoms: C3_3  and  N1_4 
REMARK    3  A    between atoms: N1_4  and  C4_6 
REMARK    4  A    between atoms: N3_10  and  C6_12 
REMARK    5  A    between atoms: C6_12  and  C7_13 
REMARK    6  A    between atoms: C7_13  and  C8_14 
REMARK    7  A    between atoms: C16_26  and  N6_27 
REMARK    8  A    between atoms: N6_27  and  C17_29 
REMARK    9  A    between atoms: C17_29  and  C18_30 
REMARK   10  A    between atoms: C22_36  and  C23_37 
REMARK   11  A    between atoms: C31_48  and  C32_49 
REMARK   12  A    between atoms: C32_49  and  C33_50 
ROOT
HETATM    1  C4  UNL     1      -8.029  14.892  23.813  1.00  0.00     0.711 A 
HETATM    2  N2  UNL     1      -7.073  15.391  24.663  1.00  0.00    -0.021 N 
ATOM      3  H2  UNL     1      -6.091  15.315  24.395  1.00  0.00     0.203 HD
HETATM    4  C5  UNL     1      -7.374  15.964  25.812  1.00  0.00     0.707 A 
HETATM    5  N3  UNL     1      -6.495  16.444  26.634  1.00  0.00    -0.225 N 
ATOM      6  H3  UNL     1      -6.822  16.871  27.501  1.00  0.00     0.177 HD
HETATM    7  N5  UNL     1      -8.702  16.056  26.149  1.00  0.00    -0.022 N 
ATOM      8  H5  UNL     1      -8.961  16.496  27.032  1.00  0.00     0.203 HD
HETATM    9  C16 UNL     1      -9.657  15.585  25.354  1.00  0.00     0.707 A 
HETATM   10  N9  UNL     1      -9.304  15.009  24.195  1.00  0.00    -0.021 N 
ATOM     11  H9  UNL     1     -10.035  14.647  23.584  1.00  0.00     0.203 HD
ENDROOT
BRANCH   9  12
HETATM   12  N6  UNL     1     -10.881  15.661  25.630  1.00  0.00    -0.221 N 
ATOM     13  H6  UNL     1     -11.487  15.979  24.873  1.00  0.00     0.178 HD
BRANCH  12  14
HETATM   14  C17 UNL     1     -11.545  15.356  26.884  1.00  0.00     0.179 C 
BRANCH  14  15
HETATM   15  C18 UNL     1     -11.776  13.930  27.060  1.00  0.00    -0.012 A 
HETATM   16  C19 UNL     1     -12.503  13.286  26.066  1.00  0.00     0.012 A 
HETATM   17  C20 UNL     1     -12.750  11.936  26.138  1.00  0.00     0.018 A 
HETATM   18  C21 UNL     1     -12.271  11.209  27.211  1.00  0.00     0.088 A 
HETATM   19  N7  UNL     1     -11.576  11.849  28.153  1.00  0.00    -0.365 N 
HETATM   20  C22 UNL     1     -11.310  13.200  28.112  1.00  0.00     0.051 A 
ATOM     21  H7  UNL     1     -11.223  11.310  28.944  1.00  0.00     0.165 HD
BRANCH  20  22
HETATM   22  C23 UNL     1     -10.553  13.797  29.199  1.00  0.00     0.000 A 
HETATM   23  C24 UNL     1      -9.211  14.030  28.969  1.00  0.00     0.015 A 
HETATM   24  C25 UNL     1      -8.401  14.641  29.887  1.00  0.00     0.014 A 
HETATM   25  C26 UNL     1      -8.946  15.038  31.084  1.00  0.00    -0.009 A 
HETATM   26  C27 UNL     1      -8.140  15.661  32.051  1.00  0.00     0.019 A 
HETATM   27  C30 UNL     1     -10.284  14.832  31.371  1.00  0.00     0.052 A 
HETATM   28  C28 UNL     1      -8.630  16.070  33.262  1.00  0.00     0.075 A 
HETATM   29  C29 UNL     1      -9.962  15.843  33.503  1.00  0.00     0.245 A 
HETATM   30  O1  UNL     1     -10.463  16.202  34.611  1.00  0.00    -0.268 OA
HETATM   31  N8  UNL     1     -10.731  15.242  32.565  1.00  0.00    -0.322 N 
ATOM     32  H8  UNL     1     -11.716  15.091  32.781  1.00  0.00     0.169 HD
HETATM   33  C31 UNL     1     -11.072  14.210  30.413  1.00  0.00    -0.015 A 
BRANCH  33  34
HETATM   34  C32 UNL     1     -12.480  13.983  30.728  1.00  0.00     0.068 C 
BRANCH  34  35
HETATM   35  C33 UNL     1     -12.799  12.706  31.390  1.00  0.00    -0.032 C 
HETATM   36  C34 UNL     1     -13.709  11.831  31.012  1.00  0.00     0.007 C 
ENDBRANCH  34  35
ENDBRANCH  33  34
ENDBRANCH  20  22
ENDBRANCH  14  15
ENDBRANCH  12  14
ENDBRANCH   9  12
BRANCH   1  37
HETATM   37  N1  UNL     1      -7.653  14.372  22.755  1.00  0.00    -0.201 N 
ATOM     38  H1  UNL     1      -6.657  14.169  22.834  1.00  0.00     0.183 HD
BRANCH  37  39
HETATM   39  C3  UNL     1      -8.079  13.967  21.513  1.00  0.00     0.105 C 
BRANCH  39  40
HETATM   40  C2  UNL     1      -8.199  14.978  20.433  1.00  0.00     0.007 C 
HETATM   41  C1  UNL     1      -9.144  15.911  20.417  1.00  0.00     0.012 C 
ENDBRANCH  39  40
ENDBRANCH  37  39
ENDBRANCH   1  37
BRANCH   5  42
HETATM   42  C6  UNL     1      -5.103  16.404  26.384  1.00  0.00     0.142 C 
BRANCH  42  43
HETATM   43  C7  UNL     1      -4.512  17.647  25.776  1.00  0.00     0.061 C 
BRANCH  43  44
HETATM   44  C8  UNL     1      -4.011  17.317  24.429  1.00  0.00    -0.029 A 
HETATM   45  C9  UNL     1      -2.762  16.781  24.110  1.00  0.00     0.096 A 
HETATM   46  N4  UNL     1      -2.656  16.624  22.792  1.00  0.00    -0.365 N 
HETATM   47  C10 UNL     1      -3.801  17.040  22.216  1.00  0.00     0.042 A 
ATOM     48  H4  UNL     1      -1.844  16.250  22.301  1.00  0.00     0.165 HD
HETATM   49  C11 UNL     1      -4.185  17.082  20.895  1.00  0.00     0.030 A 
HETATM   50  C15 UNL     1      -4.658  17.476  23.232  1.00  0.00    -0.002 A 
HETATM   51  C12 UNL     1      -5.433  17.559  20.532  1.00  0.00     0.002 A 
HETATM   52  C13 UNL     1      -6.250  17.978  21.538  1.00  0.00     0.001 A 
HETATM   53  C14 UNL     1      -5.899  17.949  22.862  1.00  0.00     0.014 A 
ENDBRANCH  43  44
ENDBRANCH  42  43
ENDBRANCH   5  42
TORSDOF 12
ENDMDL
