MODEL 1
REMARK VINA RESULT: -11.087965945      0.000      0.000
REMARK  10 active torsions:
REMARK  status: ('A' for Active; 'I' for Inactive)
REMARK    1  A    between atoms: C2_2  and  C3_3 
REMARK    2  A    between atoms: C3_3  and  N1_4 
REMARK    3  A    between atoms: N1_4  and  C4_6 
REMARK    4  A    between atoms: N3_10  and  C6_12 
REMARK    5  A    between atoms: C6_12  and  C7_13 
REMARK    6  A    between atoms: C6_12  and  C16_22 
REMARK    7  A    between atoms: C7_13  and  C8_14 
REMARK       I    between atoms: C16_22  and  N4_24 
REMARK    8  A    between atoms: N4_24  and  C17_26 
REMARK    9  A    between atoms: C17_26  and  C18_27 
REMARK   10  A    between atoms: N8_42  and  C26_44 
ROOT
HETATM    1  C4  UNL     1     -11.256  16.036  27.939  1.00  0.00     0.680 A 
HETATM    2  N2  UNL     1     -10.579  16.401  26.856  1.00  0.00    -0.175 N 
ATOM      3  H2  UNL     1     -11.061  16.404  25.957  1.00  0.00     0.186 HD
HETATM    4  C5  UNL     1      -9.251  16.776  26.895  1.00  0.00     0.147 A 
HETATM    5  N3  UNL     1      -8.659  17.100  25.887  1.00  0.00    -0.361 N 
ATOM      6  H3  UNL     1      -9.396  16.994  25.191  1.00  0.00     0.162 HD
HETATM    7  C23 UNL     1      -8.634  16.754  28.151  1.00  0.00     0.109 A 
HETATM    8  N6  UNL     1      -7.349  17.093  28.289  1.00  0.00    -0.347 N 
ATOM      9  H6  UNL     1      -6.801  17.378  27.476  1.00  0.00     0.167 HD
HETATM   10  C24 UNL     1      -6.784  17.056  29.507  1.00  0.00     0.182 A 
HETATM   11  N7  UNL     1      -7.436  16.695  30.617  1.00  0.00    -0.337 N 
ATOM     12  H7  UNL     1      -6.954  16.686  31.516  1.00  0.00     0.168 HD
HETATM   13  C25 UNL     1      -8.722  16.346  30.540  1.00  0.00     0.132 A 
HETATM   14  N8  UNL     1      -9.469  15.990  31.499  1.00  0.00    -0.370 N 
ATOM     15  H8  UNL     1     -10.429  15.759  31.247  1.00  0.00     0.161 HD
HETATM   16  C31 UNL     1      -9.334  16.376  29.278  1.00  0.00     0.123 A 
HETATM   17  N9  UNL     1     -10.623  16.030  29.128  1.00  0.00    -0.186 N 
ATOM     18  H9  UNL     1     -11.150  15.749  29.955  1.00  0.00     0.184 HD
ENDROOT
BRANCH   5  19
HETATM   19  C6  UNL     1      -7.636  17.515  25.109  1.00  0.00     0.175 C 
BRANCH  19  20
HETATM   20  C7  UNL     1      -7.286  16.503  23.991  1.00  0.00     0.040 C 
BRANCH  20  21
HETATM   21  C8  UNL     1      -8.340  16.378  22.960  1.00  0.00    -0.004 C 
HETATM   22  C9  UNL     1      -7.783  16.828  21.626  1.00  0.00     0.005 C 
HETATM   23  C10 UNL     1      -8.827  16.567  20.580  1.00  0.00     0.000 C 
HETATM   24  C11 UNL     1      -8.952  15.089  20.372  1.00  0.00     0.001 C 
HETATM   25  C12 UNL     1      -8.795  14.288  21.629  1.00  0.00     0.009 C 
HETATM   26  C13 UNL     1      -9.013  15.057  22.893  1.00  0.00    -0.044 C 
HETATM   27  C14 UNL     1      -8.576  14.125  24.035  1.00  0.00     0.015 C 
HETATM   28  C15 UNL     1     -10.525  15.202  23.099  1.00  0.00     0.015 C 
ENDBRANCH  20  21
ENDBRANCH  19  20
BRANCH  19  29
HETATM   29  C16 UNL     1      -6.344  17.800  25.842  1.00  0.00     0.240 C 
HETATM   30  O1  UNL     1      -6.183  18.869  26.472  1.00  0.00    -0.271 OA
HETATM   31  N4  UNL     1      -5.293  16.852  25.827  1.00  0.00    -0.359 N 
ATOM     32  H4  UNL     1      -5.426  15.985  25.307  1.00  0.00     0.162 HD
BRANCH  31  33
HETATM   33  C17 UNL     1      -4.060  17.056  26.503  1.00  0.00     0.127 C 
BRANCH  33  34
HETATM   34  C18 UNL     1      -2.837  17.159  25.636  1.00  0.00     0.006 C 
HETATM   35  C19 UNL     1      -2.925  18.318  24.672  1.00  0.00     0.034 C 
HETATM   36  C20 UNL     1      -1.809  18.194  23.670  1.00  0.00     0.232 C 
HETATM   37  N5  UNL     1      -1.946  16.952  22.931  1.00  0.00    -0.075 N 
HETATM   38  C21 UNL     1      -1.724  15.817  23.821  1.00  0.00     0.232 C 
ATOM     39  H52 UNL     1      -2.842  16.889  22.449  1.00  0.00     0.277 HD
ATOM     40  H51 UNL     1      -1.335  16.923  22.114  1.00  0.00     0.277 HD
HETATM   41  C22 UNL     1      -2.762  15.816  24.892  1.00  0.00     0.034 C 
ENDBRANCH  33  34
ENDBRANCH  31  33
ENDBRANCH  19  29
ENDBRANCH   5  19
BRANCH   1  42
HETATM   42  N1  UNL     1     -12.521  15.686  27.870  1.00  0.00    -0.223 N 
ATOM     43  H1  UNL     1     -13.268  16.378  27.801  1.00  0.00     0.178 HD
BRANCH  42  44
HETATM   44  C3  UNL     1     -12.802  14.245  27.899  1.00  0.00     0.164 C 
BRANCH  44  45
HETATM   45  C2  UNL     1     -12.175  13.576  26.726  1.00  0.00    -0.017 C 
HETATM   46  C1  UNL     1     -12.403  12.314  26.400  1.00  0.00     0.008 C 
ENDBRANCH  44  45
ENDBRANCH  42  44
ENDBRANCH   1  42
BRANCH  14  47
HETATM   47  C26 UNL     1      -9.147  15.869  32.885  1.00  0.00     0.083 C 
HETATM   48  C27 UNL     1      -8.025  14.880  33.139  1.00  0.00     0.025 C 
HETATM   49  C28 UNL     1      -8.698  13.529  33.232  1.00  0.00     0.002 C 
HETATM   50  C29 UNL     1     -10.025  13.830  33.881  1.00  0.00     0.002 C 
HETATM   51  C30 UNL     1     -10.369  15.247  33.559  1.00  0.00     0.025 C 
ENDBRANCH  14  47
TORSDOF 10
ENDMDL
MODEL 2
REMARK VINA RESULT: -11.025093199      2.654      9.734
REMARK  10 active torsions:
REMARK  status: ('A' for Active; 'I' for Inactive)
REMARK    1  A    between atoms: C2_2  and  C3_3 
REMARK    2  A    between atoms: C3_3  and  N1_4 
REMARK    3  A    between atoms: N1_4  and  C4_6 
REMARK    4  A    between atoms: N3_10  and  C6_12 
REMARK    5  A    between atoms: C6_12  and  C7_13 
REMARK    6  A    between atoms: C6_12  and  C16_22 
REMARK    7  A    between atoms: C7_13  and  C8_14 
REMARK       I    between atoms: C16_22  and  N4_24 
REMARK    8  A    between atoms: N4_24  and  C17_26 
REMARK    9  A    between atoms: C17_26  and  C18_27 
REMARK   10  A    between atoms: N8_42  and  C26_44 
ROOT
HETATM    1  C4  UNL     1      -8.035  17.700  26.493  1.00  0.00     0.680 A 
HETATM    2  N2  UNL     1      -8.698  17.340  27.587  1.00  0.00    -0.175 N 
ATOM      3  H2  UNL     1      -8.419  17.743  28.481  1.00  0.00     0.186 HD
HETATM    4  C5  UNL     1      -9.747  16.445  27.563  1.00  0.00     0.147 A 
HETATM    5  N3  UNL     1     -10.331  16.133  28.580  1.00  0.00    -0.361 N 
ATOM      6  H3  UNL     1      -9.823  16.686  29.269  1.00  0.00     0.162 HD
HETATM    7  C23 UNL     1     -10.091  15.920  26.312  1.00  0.00     0.109 A 
HETATM    8  N6  UNL     1     -11.089  15.039  26.189  1.00  0.00    -0.347 N 
ATOM      9  H6  UNL     1     -11.618  14.742  27.009  1.00  0.00     0.167 HD
HETATM   10  C24 UNL     1     -11.390  14.549  24.975  1.00  0.00     0.182 A 
HETATM   11  N7  UNL     1     -10.745  14.891  23.856  1.00  0.00    -0.337 N 
ATOM     12  H7  UNL     1     -11.017  14.485  22.960  1.00  0.00     0.168 HD
HETATM   13  C25 UNL     1      -9.739  15.766  23.918  1.00  0.00     0.132 A 
HETATM   14  N8  UNL     1      -9.042  16.189  22.948  1.00  0.00    -0.370 N 
ATOM     15  H8  UNL     1      -8.313  16.859  23.189  1.00  0.00     0.161 HD
HETATM   16  C31 UNL     1      -9.405  16.292  25.174  1.00  0.00     0.123 A 
HETATM   17  N9  UNL     1      -8.399  17.171  25.310  1.00  0.00    -0.186 N 
ATOM     18  H9  UNL     1      -7.885  17.453  24.475  1.00  0.00     0.184 HD
ENDROOT
BRANCH   5  19
HETATM   19  C6  UNL     1     -11.233  15.512  29.372  1.00  0.00     0.175 C 
BRANCH  19  20
HETATM   20  C7  UNL     1     -10.570  14.682  30.498  1.00  0.00     0.040 C 
BRANCH  20  21
HETATM   21  C8  UNL     1      -9.972  15.512  31.567  1.00  0.00    -0.004 C 
HETATM   22  C9  UNL     1     -10.680  15.220  32.873  1.00  0.00     0.005 C 
HETATM   23  C10 UNL     1      -9.970  15.974  33.959  1.00  0.00     0.000 C 
HETATM   24  C11 UNL     1      -8.630  15.348  34.194  1.00  0.00     0.001 C 
HETATM   25  C12 UNL     1      -7.973  14.845  32.944  1.00  0.00     0.009 C 
HETATM   26  C13 UNL     1      -8.494  15.443  31.678  1.00  0.00    -0.044 C 
HETATM   27  C14 UNL     1      -7.865  14.629  30.536  1.00  0.00     0.015 C 
HETATM   28  C15 UNL     1      -7.868  16.833  31.523  1.00  0.00     0.015 C 
ENDBRANCH  20  21
ENDBRANCH  19  20
BRANCH  19  29
HETATM   29  C16 UNL     1     -12.181  14.576  28.656  1.00  0.00     0.240 C 
HETATM   30  O1  UNL     1     -13.182  15.013  28.047  1.00  0.00    -0.271 OA
HETATM   31  N4  UNL     1     -11.944  13.180  28.665  1.00  0.00    -0.359 N 
ATOM     32  H4  UNL     1     -11.130  12.827  29.167  1.00  0.00     0.162 HD
BRANCH  31  33
HETATM   33  C17 UNL     1     -12.790  12.249  28.004  1.00  0.00     0.127 C 
BRANCH  33  34
HETATM   34  C18 UNL     1     -13.466  11.231  28.878  1.00  0.00     0.006 C 
HETATM   35  C19 UNL     1     -14.339  11.878  29.927  1.00  0.00     0.034 C 
HETATM   36  C20 UNL     1     -14.758  10.827  30.918  1.00  0.00     0.232 C 
HETATM   37  N5  UNL     1     -13.585  10.261  31.561  1.00  0.00    -0.075 N 
HETATM   38  C21 UNL     1     -12.799   9.510  30.589  1.00  0.00     0.232 C 
ATOM     39  H52 UNL     1     -13.029  10.972  32.036  1.00  0.00     0.277 HD
ATOM     40  H51 UNL     1     -13.831   9.696  32.375  1.00  0.00     0.277 HD
HETATM   41  C22 UNL     1     -12.320  10.432  29.519  1.00  0.00     0.034 C 
ENDBRANCH  33  34
ENDBRANCH  31  33
ENDBRANCH  19  29
ENDBRANCH   5  19
BRANCH   1  42
HETATM   42  N1  UNL     1      -7.040  18.558  26.547  1.00  0.00    -0.223 N 
ATOM     43  H1  UNL     1      -7.192  19.547  26.745  1.00  0.00     0.178 HD
BRANCH  42  44
HETATM   44  C3  UNL     1      -5.697  18.015  26.308  1.00  0.00     0.164 C 
BRANCH  44  45
HETATM   45  C2  UNL     1      -5.028  17.707  27.602  1.00  0.00    -0.017 C 
HETATM   46  C1  UNL     1      -5.113  16.531  28.203  1.00  0.00     0.008 C 
ENDBRANCH  44  45
ENDBRANCH  42  44
ENDBRANCH   1  42
BRANCH  14  47
HETATM   47  C26 UNL     1      -9.141  15.855  21.563  1.00  0.00     0.083 C 
HETATM   48  C27 UNL     1      -8.868  14.386  21.298  1.00  0.00     0.025 C 
HETATM   49  C28 UNL     1      -7.365  14.279  21.161  1.00  0.00     0.002 C 
HETATM   50  C29 UNL     1      -6.968  15.576  20.504  1.00  0.00     0.002 C 
HETATM   51  C30 UNL     1      -8.003  16.592  20.859  1.00  0.00     0.025 C 
ENDBRANCH  14  47
TORSDOF 10
ENDMDL
MODEL 3
REMARK VINA RESULT: -10.938189302      1.934      8.896
REMARK  10 active torsions:
REMARK  status: ('A' for Active; 'I' for Inactive)
REMARK    1  A    between atoms: C2_2  and  C3_3 
REMARK    2  A    between atoms: C3_3  and  N1_4 
REMARK    3  A    between atoms: N1_4  and  C4_6 
REMARK    4  A    between atoms: N3_10  and  C6_12 
REMARK    5  A    between atoms: C6_12  and  C7_13 
REMARK    6  A    between atoms: C6_12  and  C16_22 
REMARK    7  A    between atoms: C7_13  and  C8_14 
REMARK       I    between atoms: C16_22  and  N4_24 
REMARK    8  A    between atoms: N4_24  and  C17_26 
REMARK    9  A    between atoms: C17_26  and  C18_27 
REMARK   10  A    between atoms: N8_42  and  C26_44 
ROOT
HETATM    1  C4  UNL     1      -7.079  16.251  23.674  1.00  0.00     0.680 A 
HETATM    2  N2  UNL     1      -7.907  16.228  24.712  1.00  0.00    -0.175 N 
ATOM      3  H2  UNL     1      -8.911  16.214  24.536  1.00  0.00     0.186 HD
HETATM    4  C5  UNL     1      -7.465  16.222  26.020  1.00  0.00     0.147 A 
HETATM    5  N3  UNL     1      -8.246  16.204  26.948  1.00  0.00    -0.361 N 
ATOM      6  H3  UNL     1      -9.135  16.199  26.448  1.00  0.00     0.162 HD
HETATM    7  C23 UNL     1      -6.079  16.242  26.210  1.00  0.00     0.109 A 
HETATM    8  N6  UNL     1      -5.555  16.246  27.440  1.00  0.00    -0.347 N 
ATOM      9  H6  UNL     1      -6.164  16.229  28.259  1.00  0.00     0.167 HD
HETATM   10  C24 UNL     1      -4.220  16.272  27.588  1.00  0.00     0.182 A 
HETATM   11  N7  UNL     1      -3.360  16.295  26.566  1.00  0.00    -0.337 N 
ATOM     12  H7  UNL     1      -2.355  16.315  26.739  1.00  0.00     0.168 HD
HETATM   13  C25 UNL     1      -3.826  16.293  25.314  1.00  0.00     0.132 A 
HETATM   14  N8  UNL     1      -3.138  16.305  24.251  1.00  0.00    -0.370 N 
ATOM     15  H8  UNL     1      -3.671  16.301  23.382  1.00  0.00     0.161 HD
HETATM   16  C31 UNL     1      -5.216  16.266  25.133  1.00  0.00     0.123 A 
HETATM   17  N9  UNL     1      -5.752  16.270  23.902  1.00  0.00    -0.186 N 
ATOM     18  H9  UNL     1      -5.123  16.287  23.099  1.00  0.00     0.184 HD
ENDROOT
BRANCH   5  19
HETATM   19  C6  UNL     1      -8.678  16.186  28.228  1.00  0.00     0.175 C 
BRANCH  19  20
HETATM   20  C7  UNL     1      -8.208  14.930  29.001  1.00  0.00     0.040 C 
BRANCH  20  21
HETATM   21  C8  UNL     1      -7.777  15.218  30.386  1.00  0.00    -0.004 C 
HETATM   22  C9  UNL     1      -7.426  16.687  30.499  1.00  0.00     0.005 C 
HETATM   23  C10 UNL     1      -7.119  16.976  31.939  1.00  0.00     0.000 C 
HETATM   24  C11 UNL     1      -8.387  16.907  32.733  1.00  0.00     0.001 C 
HETATM   25  C12 UNL     1      -9.331  15.840  32.267  1.00  0.00     0.009 C 
HETATM   26  C13 UNL     1      -8.701  14.758  31.452  1.00  0.00    -0.044 C 
HETATM   27  C14 UNL     1      -9.862  13.921  30.890  1.00  0.00     0.015 C 
HETATM   28  C15 UNL     1      -7.992  13.798  32.414  1.00  0.00     0.015 C 
ENDBRANCH  20  21
ENDBRANCH  19  20
BRANCH  19  29
HETATM   29  C16 UNL     1     -10.178  16.256  28.403  1.00  0.00     0.240 C 
HETATM   30  O1  UNL     1     -10.702  17.111  29.151  1.00  0.00    -0.271 OA
HETATM   31  N4  UNL     1     -11.018  15.348  27.714  1.00  0.00    -0.359 N 
ATOM     32  H4  UNL     1     -10.587  14.649  27.109  1.00  0.00     0.162 HD
BRANCH  31  33
HETATM   33  C17 UNL     1     -12.434  15.368  27.827  1.00  0.00     0.127 C 
BRANCH  33  34
HETATM   34  C18 UNL     1     -13.129  14.044  27.684  1.00  0.00     0.006 C 
HETATM   35  C19 UNL     1     -13.274  13.337  29.011  1.00  0.00     0.034 C 
HETATM   36  C20 UNL     1     -13.724  11.925  28.755  1.00  0.00     0.232 C 
HETATM   37  N5  UNL     1     -12.733  11.229  27.953  1.00  0.00    -0.075 N 
HETATM   38  C21 UNL     1     -12.679  11.811  26.616  1.00  0.00     0.232 C 
ATOM     39  H52 UNL     1     -11.817  11.217  28.401  1.00  0.00     0.277 HD
ATOM     40  H51 UNL     1     -12.899  10.223  27.926  1.00  0.00     0.277 HD
HETATM   41  C22 UNL     1     -12.254  13.237  26.712  1.00  0.00     0.034 C 
ENDBRANCH  33  34
ENDBRANCH  31  33
ENDBRANCH  19  29
ENDBRANCH   5  19
BRANCH   1  42
HETATM   42  N1  UNL     1      -7.530  16.254  22.438  1.00  0.00    -0.223 N 
ATOM     43  H1  UNL     1      -7.418  17.062  21.826  1.00  0.00     0.178 HD
BRANCH  42  44
HETATM   44  C3  UNL     1      -8.205  15.030  21.988  1.00  0.00     0.164 C 
BRANCH  44  45
HETATM   45  C2  UNL     1      -9.642  15.305  21.717  1.00  0.00    -0.017 C 
HETATM   46  C1  UNL     1     -10.619  14.947  22.536  1.00  0.00     0.008 C 
ENDBRANCH  44  45
ENDBRANCH  42  44
ENDBRANCH   1  42
BRANCH  14  47
HETATM   47  C26 UNL     1      -1.717  16.324  24.104  1.00  0.00     0.083 C 
HETATM   48  C27 UNL     1      -1.273  17.012  22.827  1.00  0.00     0.025 C 
HETATM   49  C28 UNL     1      -1.315  15.939  21.761  1.00  0.00     0.002 C 
HETATM   50  C29 UNL     1      -0.915  14.685  22.495  1.00  0.00     0.002 C 
HETATM   51  C30 UNL     1      -1.282  14.870  23.931  1.00  0.00     0.025 C 
ENDBRANCH  14  47
TORSDOF 10
ENDMDL
MODEL 4
REMARK VINA RESULT: -10.642556665      2.053      2.995
REMARK  10 active torsions:
REMARK  status: ('A' for Active; 'I' for Inactive)
REMARK    1  A    between atoms: C2_2  and  C3_3 
REMARK    2  A    between atoms: C3_3  and  N1_4 
REMARK    3  A    between atoms: N1_4  and  C4_6 
REMARK    4  A    between atoms: N3_10  and  C6_12 
REMARK    5  A    between atoms: C6_12  and  C7_13 
REMARK    6  A    between atoms: C6_12  and  C16_22 
REMARK    7  A    between atoms: C7_13  and  C8_14 
REMARK       I    between atoms: C16_22  and  N4_24 
REMARK    8  A    between atoms: N4_24  and  C17_26 
REMARK    9  A    between atoms: C17_26  and  C18_27 
REMARK   10  A    between atoms: N8_42  and  C26_44 
ROOT
HETATM    1  C4  UNL     1     -11.366  12.897  29.008  1.00  0.00     0.680 A 
HETATM    2  N2  UNL     1     -10.750  13.725  28.172  1.00  0.00    -0.175 N 
ATOM      3  H2  UNL     1     -10.847  13.567  27.169  1.00  0.00     0.186 HD
HETATM    4  C5  UNL     1      -9.985  14.790  28.603  1.00  0.00     0.147 A 
HETATM    5  N3  UNL     1      -9.431  15.527  27.814  1.00  0.00    -0.361 N 
ATOM      6  H3  UNL     1      -9.715  15.107  26.930  1.00  0.00     0.162 HD
HETATM    7  C23 UNL     1      -9.882  14.964  29.987  1.00  0.00     0.109 A 
HETATM    8  N6  UNL     1      -9.156  15.962  30.501  1.00  0.00    -0.347 N 
ATOM      9  H6  UNL     1      -8.671  16.615  29.886  1.00  0.00     0.167 HD
HETATM   10  C24 UNL     1      -9.073  16.098  31.835  1.00  0.00     0.182 A 
HETATM   11  N7  UNL     1      -9.680  15.283  32.704  1.00  0.00    -0.337 N 
ATOM     12  H7  UNL     1      -9.580  15.435  33.708  1.00  0.00     0.168 HD
HETATM   13  C25 UNL     1     -10.418  14.269  32.248  1.00  0.00     0.132 A 
HETATM   14  N8  UNL     1     -11.055  13.424  32.944  1.00  0.00    -0.370 N 
ATOM     15  H8  UNL     1     -11.566  12.715  32.418  1.00  0.00     0.161 HD
HETATM   16  C31 UNL     1     -10.521  14.106  30.859  1.00  0.00     0.123 A 
HETATM   17  N9  UNL     1     -11.241  13.101  30.333  1.00  0.00    -0.186 N 
ATOM     18  H9  UNL     1     -11.717  12.461  30.969  1.00  0.00     0.184 HD
ENDROOT
BRANCH   5  19
HETATM   19  C6  UNL     1      -8.675  16.555  27.373  1.00  0.00     0.175 C 
BRANCH  19  20
HETATM   20  C7  UNL     1      -9.019  16.973  25.922  1.00  0.00     0.040 C 
BRANCH  20  21
HETATM   21  C8  UNL     1      -9.271  15.825  25.024  1.00  0.00    -0.004 C 
HETATM   22  C9  UNL     1     -10.762  15.696  24.793  1.00  0.00     0.005 C 
HETATM   23  C10 UNL     1     -10.978  14.611  23.779  1.00  0.00     0.000 C 
HETATM   24  C11 UNL     1     -10.507  15.092  22.441  1.00  0.00     0.001 C 
HETATM   25  C12 UNL     1      -9.283  15.956  22.509  1.00  0.00     0.009 C 
HETATM   26  C13 UNL     1      -8.486  15.816  23.765  1.00  0.00    -0.044 C 
HETATM   27  C14 UNL     1      -7.437  16.939  23.728  1.00  0.00     0.015 C 
HETATM   28  C15 UNL     1      -7.651  14.535  23.650  1.00  0.00     0.015 C 
ENDBRANCH  20  21
ENDBRANCH  19  20
BRANCH  19  29
HETATM   29  C16 UNL     1      -7.182  16.315  27.402  1.00  0.00     0.240 C 
HETATM   30  O1  UNL     1      -6.703  15.195  27.115  1.00  0.00    -0.271 OA
HETATM   31  N4  UNL     1      -6.299  17.363  27.755  1.00  0.00    -0.359 N 
ATOM     32  H4  UNL     1      -6.693  18.273  27.994  1.00  0.00     0.162 HD
BRANCH  31  33
HETATM   33  C17 UNL     1      -4.887  17.205  27.792  1.00  0.00     0.127 C 
BRANCH  33  34
HETATM   34  C18 UNL     1      -4.105  17.993  26.780  1.00  0.00     0.006 C 
HETATM   35  C19 UNL     1      -4.889  19.172  26.253  1.00  0.00     0.034 C 
HETATM   36  C20 UNL     1      -4.160  19.740  25.067  1.00  0.00     0.232 C 
HETATM   37  N5  UNL     1      -4.057  18.736  24.023  1.00  0.00    -0.075 N 
HETATM   38  C21 UNL     1      -3.185  17.651  24.462  1.00  0.00     0.232 C 
ATOM     39  H52 UNL     1      -4.972  18.395  23.728  1.00  0.00     0.277 HD
ATOM     40  H51 UNL     1      -3.753  19.136  23.135  1.00  0.00     0.277 HD
HETATM   41  C22 UNL     1      -3.780  16.991  25.660  1.00  0.00     0.034 C 
ENDBRANCH  33  34
ENDBRANCH  31  33
ENDBRANCH  19  29
ENDBRANCH   5  19
BRANCH   1  42
HETATM   42  N1  UNL     1     -12.091  11.892  28.567  1.00  0.00    -0.223 N 
ATOM     43  H1  UNL     1     -11.707  10.952  28.476  1.00  0.00     0.178 HD
BRANCH  42  44
HETATM   44  C3  UNL     1     -13.483  12.198  28.213  1.00  0.00     0.164 C 
BRANCH  44  45
HETATM   45  C2  UNL     1     -13.714  11.942  26.765  1.00  0.00    -0.017 C 
HETATM   46  C1  UNL     1     -12.761  12.020  25.851  1.00  0.00     0.008 C 
ENDBRANCH  44  45
ENDBRANCH  42  44
ENDBRANCH   1  42
BRANCH  14  47
HETATM   47  C26 UNL     1     -11.155  13.329  34.366  1.00  0.00     0.083 C 
HETATM   48  C27 UNL     1     -10.618  12.014  34.901  1.00  0.00     0.025 C 
HETATM   49  C28 UNL     1     -11.775  11.044  34.809  1.00  0.00     0.002 C 
HETATM   50  C29 UNL     1     -12.986  11.898  35.089  1.00  0.00     0.002 C 
HETATM   51  C30 UNL     1     -12.647  13.298  34.693  1.00  0.00     0.025 C 
ENDBRANCH  14  47
TORSDOF 10
ENDMDL
MODEL 5
REMARK VINA RESULT: -10.635260005      1.140      1.579
REMARK  10 active torsions:
REMARK  status: ('A' for Active; 'I' for Inactive)
REMARK    1  A    between atoms: C2_2  and  C3_3 
REMARK    2  A    between atoms: C3_3  and  N1_4 
REMARK    3  A    between atoms: N1_4  and  C4_6 
REMARK    4  A    between atoms: N3_10  and  C6_12 
REMARK    5  A    between atoms: C6_12  and  C7_13 
REMARK    6  A    between atoms: C6_12  and  C16_22 
REMARK    7  A    between atoms: C7_13  and  C8_14 
REMARK       I    between atoms: C16_22  and  N4_24 
REMARK    8  A    between atoms: N4_24  and  C17_26 
REMARK    9  A    between atoms: C17_26  and  C18_27 
REMARK   10  A    between atoms: N8_42  and  C26_44 
ROOT
HETATM    1  C4  UNL     1     -11.623  15.463  28.261  1.00  0.00     0.680 A 
HETATM    2  N2  UNL     1     -10.865  15.865  27.248  1.00  0.00    -0.175 N 
ATOM      3  H2  UNL     1     -11.243  15.808  26.302  1.00  0.00     0.186 HD
HETATM    4  C5  UNL     1      -9.586  16.355  27.420  1.00  0.00     0.147 A 
HETATM    5  N3  UNL     1      -8.916  16.711  26.473  1.00  0.00    -0.361 N 
ATOM      6  H3  UNL     1      -9.560  16.527  25.704  1.00  0.00     0.162 HD
HETATM    7  C23 UNL     1      -9.113  16.413  28.735  1.00  0.00     0.109 A 
HETATM    8  N6  UNL     1      -7.883  16.866  29.002  1.00  0.00    -0.347 N 
ATOM      9  H6  UNL     1      -7.275  17.182  28.246  1.00  0.00     0.167 HD
HETATM   10  C24 UNL     1      -7.456  16.902  30.275  1.00  0.00     0.182 A 
HETATM   11  N7  UNL     1      -8.193  16.507  31.317  1.00  0.00    -0.337 N 
ATOM     12  H7  UNL     1      -7.815  16.557  32.263  1.00  0.00     0.168 HD
HETATM   13  C25 UNL     1      -9.429  16.045  31.111  1.00  0.00     0.132 A 
HETATM   14  N8  UNL     1     -10.244  15.643  31.993  1.00  0.00    -0.370 N 
ATOM     15  H8  UNL     1     -11.148  15.324  31.645  1.00  0.00     0.161 HD
HETATM   16  C31 UNL     1      -9.898  15.997  29.791  1.00  0.00     0.123 A 
HETATM   17  N9  UNL     1     -11.128  15.536  29.511  1.00  0.00    -0.186 N 
ATOM     18  H9  UNL     1     -11.717  15.226  30.284  1.00  0.00     0.184 HD
ENDROOT
BRANCH   5  19
HETATM   19  C6  UNL     1      -7.852  17.199  25.799  1.00  0.00     0.175 C 
BRANCH  19  20
HETATM   20  C7  UNL     1      -8.057  17.184  24.264  1.00  0.00     0.040 C 
BRANCH  20  21
HETATM   21  C8  UNL     1      -8.715  15.955  23.770  1.00  0.00    -0.004 C 
HETATM   22  C9  UNL     1     -10.208  16.069  23.995  1.00  0.00     0.005 C 
HETATM   23  C10 UNL     1     -10.860  14.872  23.368  1.00  0.00     0.000 C 
HETATM   24  C11 UNL     1     -10.770  14.989  21.878  1.00  0.00     0.001 C 
HETATM   25  C12 UNL     1      -9.488  15.603  21.399  1.00  0.00     0.009 C 
HETATM   26  C13 UNL     1      -8.365  15.556  22.385  1.00  0.00    -0.044 C 
HETATM   27  C14 UNL     1      -7.249  16.433  21.794  1.00  0.00     0.015 C 
HETATM   28  C15 UNL     1      -7.773  14.143  22.355  1.00  0.00     0.015 C 
ENDBRANCH  20  21
ENDBRANCH  19  20
BRANCH  19  29
HETATM   29  C16 UNL     1      -6.544  16.486  26.058  1.00  0.00     0.240 C 
HETATM   30  O1  UNL     1      -6.518  15.372  26.627  1.00  0.00    -0.271 OA
HETATM   31  N4  UNL     1      -5.321  17.073  25.655  1.00  0.00    -0.359 N 
ATOM     32  H4  UNL     1      -5.346  17.984  25.197  1.00  0.00     0.162 HD
BRANCH  31  33
HETATM   33  C17 UNL     1      -4.060  16.451  25.860  1.00  0.00     0.127 C 
BRANCH  33  34
HETATM   34  C18 UNL     1      -3.021  16.693  24.804  1.00  0.00     0.006 C 
HETATM   35  C19 UNL     1      -3.637  17.124  23.493  1.00  0.00     0.034 C 
HETATM   36  C20 UNL     1      -2.577  17.082  22.428  1.00  0.00     0.232 C 
HETATM   37  N5  UNL     1      -2.069  15.728  22.290  1.00  0.00    -0.075 N 
HETATM   38  C21 UNL     1      -1.345  15.345  23.497  1.00  0.00     0.232 C 
ATOM     39  H52 UNL     1      -2.808  15.064  22.059  1.00  0.00     0.277 HD
ATOM     40  H51 UNL     1      -1.500  15.616  21.450  1.00  0.00     0.277 HD
HETATM   41  C22 UNL     1      -2.279  15.355  24.660  1.00  0.00     0.034 C 
ENDBRANCH  33  34
ENDBRANCH  31  33
ENDBRANCH  19  29
ENDBRANCH   5  19
BRANCH   1  42
HETATM   42  N1  UNL     1     -12.840  15.002  28.066  1.00  0.00    -0.223 N 
ATOM     43  H1  UNL     1     -13.611  15.614  27.798  1.00  0.00     0.178 HD
BRANCH  42  44
HETATM   44  C3  UNL     1     -13.027  13.558  28.252  1.00  0.00     0.164 C 
BRANCH  44  45
HETATM   45  C2  UNL     1     -12.616  12.823  27.025  1.00  0.00    -0.017 C 
HETATM   46  C1  UNL     1     -13.378  11.923  26.424  1.00  0.00     0.008 C 
ENDBRANCH  44  45
ENDBRANCH  42  44
ENDBRANCH   1  42
BRANCH  14  47
HETATM   47  C26 UNL     1     -10.069  15.578  33.410  1.00  0.00     0.083 C 
HETATM   48  C27 UNL     1      -8.777  14.886  33.805  1.00  0.00     0.025 C 
HETATM   49  C28 UNL     1      -9.107  13.410  33.832  1.00  0.00     0.002 C 
HETATM   50  C29 UNL     1     -10.535  13.368  34.315  1.00  0.00     0.002 C 
HETATM   51  C30 UNL     1     -11.173  14.664  33.939  1.00  0.00     0.025 C 
ENDBRANCH  14  47
TORSDOF 10
ENDMDL
