MODEL 1
REMARK VINA RESULT: -11.326372171      0.000      0.000
REMARK  13 active torsions:
REMARK  status: ('A' for Active; 'I' for Inactive)
REMARK    1  A    between atoms: N1_1  and  S1_4 
REMARK    2  A    between atoms: S1_4  and  N2_7 
REMARK    3  A    between atoms: N2_7  and  C1_9 
REMARK    4  A    between atoms: C1_9  and  C2_10 
REMARK    5  A    between atoms: C5_13  and  C6_14 
REMARK    6  A    between atoms: C6_14  and  N3_15 
REMARK    7  A    between atoms: N3_15  and  C7_17 
REMARK    8  A    between atoms: C8_20  and  N5_21 
REMARK    9  A    between atoms: N5_21  and  C9_23 
REMARK   10  A    between atoms: C9_23  and  C10_24 
REMARK   11  A    between atoms: C16_32  and  N7_33 
REMARK   12  A    between atoms: N7_33  and  C17_35 
REMARK   13  A    between atoms: C20_38  and  C21_39 
ROOT
HETATM    1  C7  UNL     1      -9.470  16.693  27.261  1.00  0.00     0.707 A 
HETATM    2  N4  UNL     1      -9.002  16.270  28.449  1.00  0.00    -0.022 N 
ATOM      3  H4  UNL     1      -9.573  15.618  28.987  1.00  0.00     0.203 HD
HETATM    4  C8  UNL     1      -7.826  16.657  28.964  1.00  0.00     0.707 A 
HETATM    5  N6  UNL     1      -7.074  17.514  28.256  1.00  0.00    -0.021 N 
ATOM      6  H6  UNL     1      -6.176  17.824  28.625  1.00  0.00     0.203 HD
HETATM    7  C16 UNL     1      -7.499  17.966  27.062  1.00  0.00     0.711 A 
HETATM    8  N8  UNL     1      -8.691  17.552  26.576  1.00  0.00    -0.021 N 
ATOM      9  H8  UNL     1      -9.008  17.898  25.670  1.00  0.00     0.203 HD
ENDROOT
BRANCH   1  10
HETATM   10  N3  UNL     1     -10.599  16.306  26.794  1.00  0.00    -0.221 N 
ATOM     11  H3  UNL     1     -11.394  16.945  26.819  1.00  0.00     0.178 HD
BRANCH  10  12
HETATM   12  C6  UNL     1     -10.771  14.986  26.234  1.00  0.00     0.176 C 
BRANCH  12  13
HETATM   13  C5  UNL     1     -10.154  14.902  24.892  1.00  0.00    -0.040 A 
HETATM   14  C4  UNL     1      -8.836  14.539  24.787  1.00  0.00     0.009 A 
HETATM   15  C3  UNL     1      -8.207  14.444  23.559  1.00  0.00     0.009 A 
HETATM   16  C2  UNL     1      -8.955  14.729  22.436  1.00  0.00    -0.040 A 
HETATM   17  C30 UNL     1     -10.266  15.090  22.519  1.00  0.00     0.009 A 
HETATM   18  C29 UNL     1     -10.880  15.180  23.762  1.00  0.00     0.009 A 
BRANCH  16  19
HETATM   19  C1  UNL     1      -8.283  14.627  21.125  1.00  0.00     0.172 C 
BRANCH  19  20
HETATM   20  N2  UNL     1      -6.992  15.294  21.214  1.00  0.00    -0.299 N 
ATOM     21  H2  UNL     1      -6.112  14.817  21.407  1.00  0.00     0.174 HD
BRANCH  20  22
HETATM   22  S1  UNL     1      -7.139  16.985  20.955  1.00  0.00     0.313 S 
HETATM   23  O1  UNL     1      -8.434  17.318  20.253  1.00  0.00    -0.183 OA
HETATM   24  O2  UNL     1      -6.024  17.450  20.050  1.00  0.00    -0.183 OA
BRANCH  22  25
HETATM   25  N1  UNL     1      -7.033  17.882  22.409  1.00  0.00    -0.312 N 
ATOM     26  H12 UNL     1      -7.725  18.566  22.717  1.00  0.00     0.170 HD
ATOM     27  H11 UNL     1      -6.181  17.624  22.906  1.00  0.00     0.170 HD
ENDBRANCH  22  25
ENDBRANCH  20  22
ENDBRANCH  19  20
ENDBRANCH  16  19
ENDBRANCH  12  13
ENDBRANCH  10  12
ENDBRANCH   1  10
BRANCH   4  28
HETATM   28  N5  UNL     1      -7.392  16.241  30.104  1.00  0.00    -0.221 N 
ATOM     29  H5  UNL     1      -6.835  15.387  30.137  1.00  0.00     0.178 HD
BRANCH  28  30
HETATM   30  C9  UNL     1      -7.665  16.937  31.327  1.00  0.00     0.176 C 
BRANCH  30  31
HETATM   31  C10 UNL     1      -8.198  16.048  32.382  1.00  0.00    -0.040 A 
HETATM   32  C11 UNL     1      -8.859  16.495  33.498  1.00  0.00     0.009 A 
HETATM   33  C12 UNL     1      -9.318  15.583  34.426  1.00  0.00     0.001 A 
HETATM   34  C13 UNL     1      -9.149  14.220  34.298  1.00  0.00     0.000 A 
HETATM   35  C14 UNL     1      -8.479  13.779  33.163  1.00  0.00     0.001 A 
HETATM   36  C15 UNL     1      -8.019  14.695  32.232  1.00  0.00     0.009 A 
ENDBRANCH  30  31
ENDBRANCH  28  30
ENDBRANCH   4  28
BRANCH   7  37
HETATM   37  N7  UNL     1      -6.753  18.776  26.425  1.00  0.00    -0.191 N 
ATOM     38  H7  UNL     1      -7.077  19.740  26.338  1.00  0.00     0.184 HD
BRANCH  37  39
HETATM   39  C17 UNL     1      -5.510  18.451  25.824  1.00  0.00     0.049 A 
HETATM   40  C18 UNL     1      -5.206  17.125  25.540  1.00  0.00     0.031 A 
HETATM   41  C19 UNL     1      -3.992  16.800  24.954  1.00  0.00     0.014 A 
HETATM   42  C20 UNL     1      -3.065  17.776  24.644  1.00  0.00    -0.026 A 
HETATM   43  C27 UNL     1      -3.390  19.085  24.936  1.00  0.00     0.014 A 
HETATM   44  C28 UNL     1      -4.592  19.432  25.518  1.00  0.00     0.031 A 
BRANCH  42  45
HETATM   45  C21 UNL     1      -1.808  17.391  24.032  1.00  0.00    -0.026 A 
HETATM   46  C22 UNL     1      -0.900  18.337  23.612  1.00  0.00     0.012 A 
HETATM   47  C23 UNL     1       0.296  17.955  23.030  1.00  0.00     0.001 A 
HETATM   48  C24 UNL     1       0.590  16.604  22.865  1.00  0.00     0.000 A 
HETATM   49  C25 UNL     1      -0.308  15.647  23.281  1.00  0.00     0.001 A 
HETATM   50  C26 UNL     1      -1.478  16.062  23.850  1.00  0.00     0.012 A 
ENDBRANCH  42  45
ENDBRANCH  37  39
ENDBRANCH   7  37
TORSDOF 13
ENDMDL
MODEL 2
REMARK VINA RESULT: -11.263724095      0.137      1.052
REMARK  13 active torsions:
REMARK  status: ('A' for Active; 'I' for Inactive)
REMARK    1  A    between atoms: N1_1  and  S1_4 
REMARK    2  A    between atoms: S1_4  and  N2_7 
REMARK    3  A    between atoms: N2_7  and  C1_9 
REMARK    4  A    between atoms: C1_9  and  C2_10 
REMARK    5  A    between atoms: C5_13  and  C6_14 
REMARK    6  A    between atoms: C6_14  and  N3_15 
REMARK    7  A    between atoms: N3_15  and  C7_17 
REMARK    8  A    between atoms: C8_20  and  N5_21 
REMARK    9  A    between atoms: N5_21  and  C9_23 
REMARK   10  A    between atoms: C9_23  and  C10_24 
REMARK   11  A    between atoms: C16_32  and  N7_33 
REMARK   12  A    between atoms: N7_33  and  C17_35 
REMARK   13  A    between atoms: C20_38  and  C21_39 
ROOT
HETATM    1  C7  UNL     1      -9.441  16.807  27.385  1.00  0.00     0.707 A 
HETATM    2  N4  UNL     1      -8.946  16.396  28.566  1.00  0.00    -0.022 N 
ATOM      3  H4  UNL     1      -9.513  15.766  29.133  1.00  0.00     0.203 HD
HETATM    4  C8  UNL     1      -7.748  16.770  29.041  1.00  0.00     0.707 A 
HETATM    5  N6  UNL     1      -7.002  17.600  28.295  1.00  0.00    -0.021 N 
ATOM      6  H6  UNL     1      -6.088  17.900  28.632  1.00  0.00     0.203 HD
HETATM    7  C16 UNL     1      -7.453  18.038  27.106  1.00  0.00     0.711 A 
HETATM    8  N8  UNL     1      -8.666  17.638  26.662  1.00  0.00    -0.021 N 
ATOM      9  H8  UNL     1      -9.002  17.973  25.758  1.00  0.00     0.203 HD
ENDROOT
BRANCH   1  10
HETATM   10  N3  UNL     1     -10.590  16.433  26.958  1.00  0.00    -0.221 N 
ATOM     11  H3  UNL     1     -11.373  17.085  26.999  1.00  0.00     0.178 HD
BRANCH  10  12
HETATM   12  C6  UNL     1     -10.800  15.109  26.420  1.00  0.00     0.176 C 
BRANCH  12  13
HETATM   13  C5  UNL     1     -10.202  14.990  25.072  1.00  0.00    -0.040 A 
HETATM   14  C4  UNL     1      -8.886  14.625  24.958  1.00  0.00     0.009 A 
HETATM   15  C3  UNL     1      -8.273  14.498  23.724  1.00  0.00     0.009 A 
HETATM   16  C2  UNL     1      -9.037  14.754  22.605  1.00  0.00    -0.040 A 
HETATM   17  C30 UNL     1     -10.347  15.117  22.696  1.00  0.00     0.009 A 
HETATM   18  C29 UNL     1     -10.943  15.239  23.945  1.00  0.00     0.009 A 
BRANCH  16  19
HETATM   19  C1  UNL     1      -8.384  14.618  21.287  1.00  0.00     0.172 C 
BRANCH  19  20
HETATM   20  N2  UNL     1      -7.078  15.258  21.351  1.00  0.00    -0.299 N 
ATOM     21  H2  UNL     1      -6.208  14.769  21.560  1.00  0.00     0.174 HD
BRANCH  20  22
HETATM   22  S1  UNL     1      -7.187  16.941  21.031  1.00  0.00     0.313 S 
HETATM   23  O1  UNL     1      -8.482  17.280  20.333  1.00  0.00    -0.183 OA
HETATM   24  O2  UNL     1      -6.074  17.345  20.095  1.00  0.00    -0.183 OA
BRANCH  22  25
HETATM   25  N1  UNL     1      -7.041  17.889  22.449  1.00  0.00    -0.312 N 
ATOM     26  H12 UNL     1      -7.301  17.574  23.384  1.00  0.00     0.170 HD
ATOM     27  H11 UNL     1      -6.657  18.803  22.208  1.00  0.00     0.170 HD
ENDBRANCH  22  25
ENDBRANCH  20  22
ENDBRANCH  19  20
ENDBRANCH  16  19
ENDBRANCH  12  13
ENDBRANCH  10  12
ENDBRANCH   1  10
BRANCH   4  28
HETATM   28  N5  UNL     1      -7.289  16.367  30.175  1.00  0.00    -0.221 N 
ATOM     29  H5  UNL     1      -6.620  15.598  30.190  1.00  0.00     0.178 HD
BRANCH  28  30
HETATM   30  C9  UNL     1      -7.688  16.962  31.417  1.00  0.00     0.176 C 
BRANCH  30  31
HETATM   31  C10 UNL     1      -8.184  15.968  32.393  1.00  0.00    -0.040 A 
HETATM   32  C11 UNL     1      -8.034  14.612  32.248  1.00  0.00     0.009 A 
HETATM   33  C12 UNL     1      -8.534  13.766  33.216  1.00  0.00     0.001 A 
HETATM   34  C13 UNL     1      -9.190  14.210  34.346  1.00  0.00     0.000 A 
HETATM   35  C14 UNL     1      -9.336  15.585  34.482  1.00  0.00     0.001 A 
HETATM   36  C15 UNL     1      -8.834  16.434  33.510  1.00  0.00     0.009 A 
ENDBRANCH  30  31
ENDBRANCH  28  30
ENDBRANCH   4  28
BRANCH   7  37
HETATM   37  N7  UNL     1      -6.711  18.822  26.432  1.00  0.00    -0.191 N 
ATOM     38  H7  UNL     1      -7.029  19.784  26.318  1.00  0.00     0.184 HD
BRANCH  37  39
HETATM   39  C17 UNL     1      -5.478  18.469  25.825  1.00  0.00     0.049 A 
HETATM   40  C18 UNL     1      -5.180  17.131  25.595  1.00  0.00     0.031 A 
HETATM   41  C19 UNL     1      -3.976  16.779  25.003  1.00  0.00     0.014 A 
HETATM   42  C20 UNL     1      -3.055  17.739  24.634  1.00  0.00    -0.026 A 
HETATM   43  C27 UNL     1      -3.374  19.061  24.873  1.00  0.00     0.014 A 
HETATM   44  C28 UNL     1      -4.565  19.434  25.460  1.00  0.00     0.031 A 
BRANCH  42  45
HETATM   45  C21 UNL     1      -1.808  17.326  24.018  1.00  0.00    -0.026 A 
HETATM   46  C22 UNL     1      -1.571  16.007  23.704  1.00  0.00     0.012 A 
HETATM   47  C23 UNL     1      -0.377  15.627  23.116  1.00  0.00     0.001 A 
HETATM   48  C24 UNL     1       0.597  16.583  22.838  1.00  0.00     0.000 A 
HETATM   49  C25 UNL     1       0.373  17.905  23.146  1.00  0.00     0.001 A 
HETATM   50  C26 UNL     1      -0.817  18.242  23.725  1.00  0.00     0.012 A 
ENDBRANCH  42  45
ENDBRANCH  37  39
ENDBRANCH   7  37
TORSDOF 13
ENDMDL
MODEL 3
REMARK VINA RESULT: -11.170791483      5.501     11.274
REMARK  13 active torsions:
REMARK  status: ('A' for Active; 'I' for Inactive)
REMARK    1  A    between atoms: N1_1  and  S1_4 
REMARK    2  A    between atoms: S1_4  and  N2_7 
REMARK    3  A    between atoms: N2_7  and  C1_9 
REMARK    4  A    between atoms: C1_9  and  C2_10 
REMARK    5  A    between atoms: C5_13  and  C6_14 
REMARK    6  A    between atoms: C6_14  and  N3_15 
REMARK    7  A    between atoms: N3_15  and  C7_17 
REMARK    8  A    between atoms: C8_20  and  N5_21 
REMARK    9  A    between atoms: N5_21  and  C9_23 
REMARK   10  A    between atoms: C9_23  and  C10_24 
REMARK   11  A    between atoms: C16_32  and  N7_33 
REMARK   12  A    between atoms: N7_33  and  C17_35 
REMARK   13  A    between atoms: C20_38  and  C21_39 
ROOT
HETATM    1  C7  UNL     1      -9.817  16.781  27.376  1.00  0.00     0.707 A 
HETATM    2  N4  UNL     1      -9.841  16.439  26.075  1.00  0.00    -0.022 N 
ATOM      3  H4  UNL     1      -9.062  16.731  25.486  1.00  0.00     0.203 HD
HETATM    4  C8  UNL     1     -10.835  15.736  25.511  1.00  0.00     0.707 A 
HETATM    5  N6  UNL     1     -11.860  15.352  26.287  1.00  0.00    -0.021 N 
ATOM      6  H6  UNL     1     -12.628  14.816  25.883  1.00  0.00     0.203 HD
HETATM    7  C16 UNL     1     -11.881  15.669  27.593  1.00  0.00     0.711 A 
HETATM    8  N8  UNL     1     -10.861  16.379  28.126  1.00  0.00    -0.021 N 
ATOM      9  H8  UNL     1     -10.882  16.616  29.118  1.00  0.00     0.203 HD
ENDROOT
BRANCH   1  10
HETATM   10  N3  UNL     1      -8.854  17.455  27.887  1.00  0.00    -0.221 N 
ATOM     11  H3  UNL     1      -8.935  18.469  27.950  1.00  0.00     0.178 HD
BRANCH  10  12
HETATM   12  C6  UNL     1      -7.658  16.809  28.375  1.00  0.00     0.176 C 
BRANCH  12  13
HETATM   13  C5  UNL     1      -7.885  16.232  29.719  1.00  0.00    -0.040 A 
HETATM   14  C4  UNL     1      -8.253  14.916  29.824  1.00  0.00     0.009 A 
HETATM   15  C3  UNL     1      -8.479  14.323  31.054  1.00  0.00     0.009 A 
HETATM   16  C2  UNL     1      -8.321  15.107  32.177  1.00  0.00    -0.040 A 
HETATM   17  C30 UNL     1      -7.955  16.417  32.094  1.00  0.00     0.009 A 
HETATM   18  C29 UNL     1      -7.733  16.993  30.850  1.00  0.00     0.009 A 
BRANCH  16  19
HETATM   19  C1  UNL     1      -8.562  14.475  33.490  1.00  0.00     0.172 C 
BRANCH  19  20
HETATM   20  N2  UNL     1      -9.788  13.694  33.409  1.00  0.00    -0.299 N 
ATOM     21  H2  UNL     1      -9.819  12.690  33.237  1.00  0.00     0.174 HD
BRANCH  20  22
HETATM   22  S1  UNL     1     -11.176  14.678  33.637  1.00  0.00     0.313 S 
HETATM   23  O1  UNL     1     -10.818  15.971  34.332  1.00  0.00    -0.183 OA
HETATM   24  O2  UNL     1     -12.154  13.962  34.536  1.00  0.00    -0.183 OA
BRANCH  22  25
HETATM   25  N1  UNL     1     -11.982  15.026  32.168  1.00  0.00    -0.312 N 
ATOM     26  H12 UNL     1     -12.963  15.299  32.098  1.00  0.00     0.170 HD
ATOM     27  H11 UNL     1     -11.331  14.918  31.390  1.00  0.00     0.170 HD
ENDBRANCH  22  25
ENDBRANCH  20  22
ENDBRANCH  19  20
ENDBRANCH  16  19
ENDBRANCH  12  13
ENDBRANCH  10  12
ENDBRANCH   1  10
BRANCH   4  28
HETATM   28  N5  UNL     1     -10.843  15.417  24.262  1.00  0.00    -0.221 N 
ATOM     29  H5  UNL     1     -11.416  15.961  23.619  1.00  0.00     0.178 HD
BRANCH  28  30
HETATM   30  C9  UNL     1     -10.074  14.321  23.747  1.00  0.00     0.176 C 
BRANCH  30  31
HETATM   31  C10 UNL     1      -9.365  14.661  22.495  1.00  0.00    -0.040 A 
HETATM   32  C11 UNL     1      -8.172  14.103  22.114  1.00  0.00     0.009 A 
HETATM   33  C12 UNL     1      -7.590  14.489  20.924  1.00  0.00     0.001 A 
HETATM   34  C13 UNL     1      -8.148  15.422  20.075  1.00  0.00     0.000 A 
HETATM   35  C14 UNL     1      -9.357  15.980  20.470  1.00  0.00     0.001 A 
HETATM   36  C15 UNL     1      -9.940  15.593  21.665  1.00  0.00     0.009 A 
ENDBRANCH  30  31
ENDBRANCH  28  30
ENDBRANCH   4  28
BRANCH   7  37
HETATM   37  N7  UNL     1     -12.872  15.282  28.291  1.00  0.00    -0.191 N 
ATOM     38  H7  UNL     1     -13.597  15.971  28.495  1.00  0.00     0.184 HD
BRANCH  37  39
HETATM   39  C17 UNL     1     -13.054  13.975  28.810  1.00  0.00     0.049 A 
HETATM   40  C18 UNL     1     -11.966  13.115  28.911  1.00  0.00     0.031 A 
HETATM   41  C19 UNL     1     -12.137  11.835  29.416  1.00  0.00     0.014 A 
HETATM   42  C20 UNL     1     -13.378  11.388  29.825  1.00  0.00    -0.026 A 
HETATM   43  C27 UNL     1     -14.442  12.261  29.714  1.00  0.00     0.014 A 
HETATM   44  C28 UNL     1     -14.296  13.538  29.216  1.00  0.00     0.031 A 
BRANCH  42  45
HETATM   45  C21 UNL     1     -13.510  10.041  30.347  1.00  0.00    -0.026 A 
HETATM   46  C22 UNL     1     -14.737   9.536  30.712  1.00  0.00     0.012 A 
HETATM   47  C23 UNL     1     -14.848   8.248  31.208  1.00  0.00     0.001 A 
HETATM   48  C24 UNL     1     -13.713   7.453  31.340  1.00  0.00     0.000 A 
HETATM   49  C25 UNL     1     -12.480   7.945  30.978  1.00  0.00     0.001 A 
HETATM   50  C26 UNL     1     -12.410   9.220  30.493  1.00  0.00     0.012 A 
ENDBRANCH  42  45
ENDBRANCH  37  39
ENDBRANCH   7  37
TORSDOF 13
ENDMDL
MODEL 4
REMARK VINA RESULT: -11.072041305      1.677      2.585
REMARK  13 active torsions:
REMARK  status: ('A' for Active; 'I' for Inactive)
REMARK    1  A    between atoms: N1_1  and  S1_4 
REMARK    2  A    between atoms: S1_4  and  N2_7 
REMARK    3  A    between atoms: N2_7  and  C1_9 
REMARK    4  A    between atoms: C1_9  and  C2_10 
REMARK    5  A    between atoms: C5_13  and  C6_14 
REMARK    6  A    between atoms: C6_14  and  N3_15 
REMARK    7  A    between atoms: N3_15  and  C7_17 
REMARK    8  A    between atoms: C8_20  and  N5_21 
REMARK    9  A    between atoms: N5_21  and  C9_23 
REMARK   10  A    between atoms: C9_23  and  C10_24 
REMARK   11  A    between atoms: C16_32  and  N7_33 
REMARK   12  A    between atoms: N7_33  and  C17_35 
REMARK   13  A    between atoms: C20_38  and  C21_39 
ROOT
HETATM    1  C7  UNL     1     -10.741  15.968  27.811  1.00  0.00     0.707 A 
HETATM    2  N4  UNL     1     -11.268  15.508  28.960  1.00  0.00    -0.022 N 
ATOM      3  H4  UNL     1     -12.158  15.012  28.917  1.00  0.00     0.203 HD
HETATM    4  C8  UNL     1     -10.687  15.666  30.159  1.00  0.00     0.707 A 
HETATM    5  N6  UNL     1      -9.516  16.319  30.215  1.00  0.00    -0.021 N 
ATOM      6  H6  UNL     1      -9.053  16.453  31.114  1.00  0.00     0.203 HD
HETATM    7  C16 UNL     1      -8.948  16.797  29.094  1.00  0.00     0.711 A 
HETATM    8  N8  UNL     1      -9.565  16.618  27.903  1.00  0.00    -0.021 N 
ATOM      9  H8  UNL     1      -9.129  16.983  27.055  1.00  0.00     0.203 HD
ENDROOT
BRANCH   1  10
HETATM   10  N3  UNL     1     -11.320  15.803  26.680  1.00  0.00    -0.221 N 
ATOM     11  H3  UNL     1     -11.818  16.585  26.257  1.00  0.00     0.178 HD
BRANCH  10  12
HETATM   12  C6  UNL     1     -11.281  14.533  25.992  1.00  0.00     0.176 C 
BRANCH  12  13
HETATM   13  C5  UNL     1     -10.428  14.616  24.787  1.00  0.00    -0.040 A 
HETATM   14  C4  UNL     1     -11.018  14.822  23.566  1.00  0.00     0.009 A 
HETATM   15  C3  UNL     1     -10.270  14.908  22.405  1.00  0.00     0.009 A 
HETATM   16  C2  UNL     1      -8.902  14.779  22.518  1.00  0.00    -0.040 A 
HETATM   17  C30 UNL     1      -8.296  14.575  23.721  1.00  0.00     0.009 A 
HETATM   18  C29 UNL     1      -9.065  14.491  24.876  1.00  0.00     0.009 A 
BRANCH  16  19
HETATM   19  C1  UNL     1      -8.103  14.871  21.279  1.00  0.00     0.172 C 
BRANCH  19  20
HETATM   20  N2  UNL     1      -6.862  15.570  21.581  1.00  0.00    -0.299 N 
ATOM     21  H2  UNL     1      -6.072  15.151  22.070  1.00  0.00     0.174 HD
BRANCH  20  22
HETATM   22  S1  UNL     1      -6.897  17.189  21.011  1.00  0.00     0.313 S 
HETATM   23  O1  UNL     1      -8.202  17.492  20.313  1.00  0.00    -0.183 OA
HETATM   24  O2  UNL     1      -5.805  17.382  19.987  1.00  0.00    -0.183 OA
BRANCH  22  25
HETATM   25  N1  UNL     1      -6.642  18.329  22.261  1.00  0.00    -0.312 N 
ATOM     26  H12 UNL     1      -7.388  18.790  22.784  1.00  0.00     0.170 HD
ATOM     27  H11 UNL     1      -5.640  18.470  22.394  1.00  0.00     0.170 HD
ENDBRANCH  22  25
ENDBRANCH  20  22
ENDBRANCH  19  20
ENDBRANCH  16  19
ENDBRANCH  12  13
ENDBRANCH  10  12
ENDBRANCH   1  10
BRANCH   4  28
HETATM   28  N5  UNL     1     -11.205  15.219  31.251  1.00  0.00    -0.221 N 
ATOM     29  H5  UNL     1     -12.170  14.890  31.239  1.00  0.00     0.178 HD
BRANCH  28  30
HETATM   30  C9  UNL     1     -10.472  15.168  32.482  1.00  0.00     0.176 C 
BRANCH  30  31
HETATM   31  C10 UNL     1     -10.918  14.071  33.366  1.00  0.00    -0.040 A 
HETATM   32  C11 UNL     1     -10.087  13.387  34.217  1.00  0.00     0.009 A 
HETATM   33  C12 UNL     1     -10.601  12.376  35.003  1.00  0.00     0.001 A 
HETATM   34  C13 UNL     1     -11.929  12.002  34.984  1.00  0.00     0.000 A 
HETATM   35  C14 UNL     1     -12.762  12.701  34.119  1.00  0.00     0.001 A 
HETATM   36  C15 UNL     1     -12.245  13.716  33.331  1.00  0.00     0.009 A 
ENDBRANCH  30  31
ENDBRANCH  28  30
ENDBRANCH   4  28
BRANCH   7  37
HETATM   37  N7  UNL     1      -7.837  17.408  29.194  1.00  0.00    -0.191 N 
ATOM     38  H7  UNL     1      -7.680  17.958  30.038  1.00  0.00     0.184 HD
BRANCH  37  39
HETATM   39  C17 UNL     1      -6.797  17.388  28.229  1.00  0.00     0.049 A 
HETATM   40  C18 UNL     1      -5.803  16.420  28.305  1.00  0.00     0.031 A 
HETATM   41  C19 UNL     1      -4.784  16.395  27.366  1.00  0.00     0.014 A 
HETATM   42  C20 UNL     1      -4.731  17.324  26.345  1.00  0.00    -0.026 A 
HETATM   43  C27 UNL     1      -5.729  18.276  26.291  1.00  0.00     0.014 A 
HETATM   44  C28 UNL     1      -6.754  18.319  27.214  1.00  0.00     0.031 A 
BRANCH  42  45
HETATM   45  C21 UNL     1      -3.645  17.261  25.384  1.00  0.00    -0.026 A 
HETATM   46  C22 UNL     1      -3.192  18.393  24.746  1.00  0.00     0.012 A 
HETATM   47  C23 UNL     1      -2.155  18.318  23.832  1.00  0.00     0.001 A 
HETATM   48  C24 UNL     1      -1.561  17.090  23.552  1.00  0.00     0.000 A 
HETATM   49  C25 UNL     1      -2.003  15.950  24.184  1.00  0.00     0.001 A 
HETATM   50  C26 UNL     1      -3.029  16.063  25.079  1.00  0.00     0.012 A 
ENDBRANCH  42  45
ENDBRANCH  37  39
ENDBRANCH   7  37
TORSDOF 13
ENDMDL
MODEL 5
REMARK VINA RESULT: -11.043392769      1.706      2.773
REMARK  13 active torsions:
REMARK  status: ('A' for Active; 'I' for Inactive)
REMARK    1  A    between atoms: N1_1  and  S1_4 
REMARK    2  A    between atoms: S1_4  and  N2_7 
REMARK    3  A    between atoms: N2_7  and  C1_9 
REMARK    4  A    between atoms: C1_9  and  C2_10 
REMARK    5  A    between atoms: C5_13  and  C6_14 
REMARK    6  A    between atoms: C6_14  and  N3_15 
REMARK    7  A    between atoms: N3_15  and  C7_17 
REMARK    8  A    between atoms: C8_20  and  N5_21 
REMARK    9  A    between atoms: N5_21  and  C9_23 
REMARK   10  A    between atoms: C9_23  and  C10_24 
REMARK   11  A    between atoms: C16_32  and  N7_33 
REMARK   12  A    between atoms: N7_33  and  C17_35 
REMARK   13  A    between atoms: C20_38  and  C21_39 
ROOT
HETATM    1  C7  UNL     1     -10.730  16.013  27.857  1.00  0.00     0.707 A 
HETATM    2  N4  UNL     1     -11.272  15.551  28.998  1.00  0.00    -0.022 N 
ATOM      3  H4  UNL     1     -12.169  15.068  28.945  1.00  0.00     0.203 HD
HETATM    4  C8  UNL     1     -10.698  15.690  30.203  1.00  0.00     0.707 A 
HETATM    5  N6  UNL     1      -9.518  16.325  30.273  1.00  0.00    -0.021 N 
ATOM      6  H6  UNL     1      -9.059  16.444  31.176  1.00  0.00     0.203 HD
HETATM    7  C16 UNL     1      -8.935  16.805  29.160  1.00  0.00     0.711 A 
HETATM    8  N8  UNL     1      -9.546  16.645  27.963  1.00  0.00    -0.021 N 
ATOM      9  H8  UNL     1      -9.099  17.011  27.122  1.00  0.00     0.203 HD
ENDROOT
BRANCH   1  10
HETATM   10  N3  UNL     1     -11.303  15.866  26.720  1.00  0.00    -0.221 N 
ATOM     11  H3  UNL     1     -11.774  16.663  26.293  1.00  0.00     0.178 HD
BRANCH  10  12
HETATM   12  C6  UNL     1     -11.296  14.596  26.031  1.00  0.00     0.176 C 
BRANCH  12  13
HETATM   13  C5  UNL     1     -10.438  14.658  24.828  1.00  0.00    -0.040 A 
HETATM   14  C4  UNL     1     -11.021  14.868  23.605  1.00  0.00     0.009 A 
HETATM   15  C3  UNL     1     -10.268  14.934  22.446  1.00  0.00     0.009 A 
HETATM   16  C2  UNL     1      -8.903  14.782  22.563  1.00  0.00    -0.040 A 
HETATM   17  C30 UNL     1      -8.304  14.573  23.769  1.00  0.00     0.009 A 
HETATM   18  C29 UNL     1      -9.078  14.509  24.922  1.00  0.00     0.009 A 
BRANCH  16  19
HETATM   19  C1  UNL     1      -8.099  14.853  21.327  1.00  0.00     0.172 C 
BRANCH  19  20
HETATM   20  N2  UNL     1      -6.870  15.578  21.616  1.00  0.00    -0.299 N 
ATOM     21  H2  UNL     1      -6.074  15.183  22.114  1.00  0.00     0.174 HD
BRANCH  20  22
HETATM   22  S1  UNL     1      -6.932  17.184  21.012  1.00  0.00     0.313 S 
HETATM   23  O1  UNL     1      -8.257  17.464  20.343  1.00  0.00    -0.183 OA
HETATM   24  O2  UNL     1      -5.869  17.362  19.955  1.00  0.00    -0.183 OA
BRANCH  22  25
HETATM   25  N1  UNL     1      -6.652  18.354  22.230  1.00  0.00    -0.312 N 
ATOM     26  H12 UNL     1      -6.213  18.157  23.130  1.00  0.00     0.170 HD
ATOM     27  H11 UNL     1      -6.989  19.262  21.912  1.00  0.00     0.170 HD
ENDBRANCH  22  25
ENDBRANCH  20  22
ENDBRANCH  19  20
ENDBRANCH  16  19
ENDBRANCH  12  13
ENDBRANCH  10  12
ENDBRANCH   1  10
BRANCH   4  28
HETATM   28  N5  UNL     1     -11.230  15.241  31.286  1.00  0.00    -0.221 N 
ATOM     29  H5  UNL     1     -12.200  14.925  31.264  1.00  0.00     0.178 HD
BRANCH  28  30
HETATM   30  C9  UNL     1     -10.507  15.169  32.522  1.00  0.00     0.176 C 
BRANCH  30  31
HETATM   31  C10 UNL     1     -10.953  14.050  33.380  1.00  0.00    -0.040 A 
HETATM   32  C11 UNL     1     -10.138  13.392  34.265  1.00  0.00     0.009 A 
HETATM   33  C12 UNL     1     -10.651  12.358  35.022  1.00  0.00     0.001 A 
HETATM   34  C13 UNL     1     -11.962  11.937  34.939  1.00  0.00     0.000 A 
HETATM   35  C14 UNL     1     -12.779  12.611  34.040  1.00  0.00     0.001 A 
HETATM   36  C15 UNL     1     -12.263  13.648  33.281  1.00  0.00     0.009 A 
ENDBRANCH  30  31
ENDBRANCH  28  30
ENDBRANCH   4  28
BRANCH   7  37
HETATM   37  N7  UNL     1      -7.816  17.399  29.273  1.00  0.00    -0.191 N 
ATOM     38  H7  UNL     1      -7.678  17.982  30.099  1.00  0.00     0.184 HD
BRANCH  37  39
HETATM   39  C17 UNL     1      -6.743  17.317  28.348  1.00  0.00     0.049 A 
HETATM   40  C18 UNL     1      -6.800  18.039  27.161  1.00  0.00     0.031 A 
HETATM   41  C19 UNL     1      -5.756  17.962  26.252  1.00  0.00     0.014 A 
HETATM   42  C20 UNL     1      -4.648  17.176  26.500  1.00  0.00    -0.026 A 
HETATM   43  C27 UNL     1      -4.617  16.469  27.685  1.00  0.00     0.014 A 
HETATM   44  C28 UNL     1      -5.643  16.529  28.605  1.00  0.00     0.031 A 
BRANCH  42  45
HETATM   45  C21 UNL     1      -3.580  17.126  25.520  1.00  0.00    -0.026 A 
HETATM   46  C22 UNL     1      -3.026  15.927  25.130  1.00  0.00     0.012 A 
HETATM   47  C23 UNL     1      -2.007  15.895  24.194  1.00  0.00     0.001 A 
HETATM   48  C24 UNL     1      -1.534  17.081  23.638  1.00  0.00     0.000 A 
HETATM   49  C25 UNL     1      -2.079  18.286  24.018  1.00  0.00     0.001 A 
HETATM   50  C26 UNL     1      -3.083  18.278  24.945  1.00  0.00     0.012 A 
ENDBRANCH  42  45
ENDBRANCH  37  39
ENDBRANCH   7  37
TORSDOF 13
ENDMDL
