MODEL 1
REMARK VINA RESULT: -10.277026098      0.000      0.000
REMARK  12 active torsions:
REMARK  status: ('A' for Active; 'I' for Inactive)
REMARK       I    between atoms: N2_4  and  C3_6 
REMARK    1  A    between atoms: N4_8  and  C4_10 
REMARK    2  A    between atoms: C4_10  and  C5_11 
REMARK    3  A    between atoms: C5_11  and  C6_12 
REMARK    4  A    between atoms: C6_12  and  O1_13 
REMARK    5  A    between atoms: O1_13  and  C7_14 
REMARK    6  A    between atoms: C11_18  and  N5_19 
REMARK    7  A    between atoms: N5_19  and  C12_20 
REMARK    8  A    between atoms: C12_20  and  C13_21 
REMARK    9  A    between atoms: C13_21  and  N6_22 
REMARK   10  A    between atoms: N6_22  and  C14_23 
REMARK   11  A    between atoms: C20_31  and  O2_32 
REMARK   12  A    between atoms: C27_40  and  C28_41 
ROOT
HETATM    1  C7  UNL     1      -9.513  15.530  24.530  1.00  0.00     0.070 A 
HETATM    2  C8  UNL     1      -9.952  15.247  25.855  1.00  0.00     0.038 A 
HETATM    3  C9  UNL     1      -9.140  15.435  26.921  1.00  0.00     0.020 A 
HETATM    4  C10 UNL     1      -7.836  15.913  26.799  1.00  0.00     0.032 A 
HETATM    5  C11 UNL     1      -7.039  16.087  27.942  1.00  0.00     0.125 A 
HETATM    6  C23 UNL     1      -5.740  16.567  27.741  1.00  0.00     0.032 A 
HETATM    7  C24 UNL     1      -4.877  16.781  28.798  1.00  0.00     0.017 A 
HETATM    8  C25 UNL     1      -3.602  17.262  28.580  1.00  0.00     0.002 A 
HETATM    9  C26 UNL     1      -3.215  17.522  27.279  1.00  0.00     0.010 A 
HETATM   10  C27 UNL     1      -4.034  17.325  26.211  1.00  0.00    -0.026 A 
HETATM   11  C31 UNL     1      -5.328  16.835  26.453  1.00  0.00     0.053 A 
HETATM   12  N8  UNL     1      -6.146  16.645  25.410  1.00  0.00    -0.354 N 
ATOM     13  H8  UNL     1      -5.798  16.858  24.475  1.00  0.00     0.166 HD
HETATM   14  C32 UNL     1      -7.422  16.181  25.537  1.00  0.00     0.049 A 
HETATM   15  C33 UNL     1      -8.224  16.001  24.424  1.00  0.00     0.067 A 
ENDROOT
BRANCH   5  16
HETATM   16  N5  UNL     1      -7.480  15.827  29.036  1.00  0.00    -0.440 NA
BRANCH  16  17
HETATM   17  C12 UNL     1      -7.965  15.894  30.279  1.00  0.00     0.277 C 
BRANCH  17  18
HETATM   18  C13 UNL     1      -8.523  14.551  30.783  1.00  0.00     0.188 C 
BRANCH  18  19
HETATM   19  N6  UNL     1      -9.844  14.463  30.905  1.00  0.00    -0.418 NA
BRANCH  19  20
HETATM   20  C14 UNL     1     -11.023  14.382  31.013  1.00  0.00     0.120 A 
HETATM   21  C15 UNL     1     -11.679  14.874  32.136  1.00  0.00     0.062 A 
HETATM   22  C16 UNL     1     -13.022  14.777  32.254  1.00  0.00     0.091 A 
HETATM   23  N7  UNL     1     -13.758  14.212  31.311  1.00  0.00    -0.365 N 
HETATM   24  C17 UNL     1     -13.183  13.710  30.186  1.00  0.00     0.045 A 
ATOM     25  H7  UNL     1     -14.769  14.152  31.429  1.00  0.00     0.165 HD
HETATM   26  C18 UNL     1     -13.955  13.121  29.208  1.00  0.00     0.033 A 
HETATM   27  C22 UNL     1     -11.814  13.793  30.034  1.00  0.00     0.034 A 
HETATM   28  C19 UNL     1     -13.396  12.608  28.070  1.00  0.00     0.039 A 
HETATM   29  C20 UNL     1     -12.034  12.684  27.906  1.00  0.00     0.066 A 
HETATM   30  C21 UNL     1     -11.232  13.273  28.878  1.00  0.00     0.053 A 
BRANCH  29  31
HETATM   31  O2  UNL     1     -11.434  12.180  26.777  1.00  0.00    -0.361 OA
ATOM     32  H2  UNL     1     -11.308  12.726  26.010  1.00  0.00     0.217 HD
ENDBRANCH  29  31
ENDBRANCH  19  20
ENDBRANCH  18  19
ENDBRANCH  17  18
ENDBRANCH  16  17
ENDBRANCH   5  16
BRANCH  10  33
HETATM   33  C28 UNL     1      -3.651  17.558  24.805  1.00  0.00     0.021 A 
HETATM   34  C29 UNL     1      -2.363  18.268  24.545  1.00  0.00     0.010 A 
HETATM   35  C30 UNL     1      -3.653  19.000  24.313  1.00  0.00     0.010 A 
ENDBRANCH  10  33
BRANCH   1  36
HETATM   36  O1  UNL     1     -10.358  15.328  23.518  1.00  0.00    -0.351 OA
BRANCH  36  37
HETATM   37  C6  UNL     1     -10.484  14.947  22.282  1.00  0.00     0.177 C 
BRANCH  37  38
HETATM   38  C5  UNL     1      -9.418  14.338  21.450  1.00  0.00     0.046 C 
BRANCH  38  39
HETATM   39  C4  UNL     1      -8.768  15.112  20.387  1.00  0.00     0.124 C 
BRANCH  39  40
HETATM   40  N4  UNL     1      -7.359  15.291  20.782  1.00  0.00    -0.364 N 
HETATM   41  C3  UNL     1      -6.811  16.456  20.766  1.00  0.00     0.189 C 
HETATM   42  N2  UNL     1      -5.462  16.692  21.134  1.00  0.00    -0.323 N 
HETATM   43  N3  UNL     1      -7.606  17.560  20.358  1.00  0.00    -0.064 NA
HETATM   44  C2  UNL     1      -4.433  16.193  20.565  1.00  0.00     0.091 C 
ATOM     45  H2  UNL     1      -5.299  17.318  21.923  1.00  0.00     0.169 HD
HETATM   46  C1  UNL     1      -3.095  16.586  21.128  1.00  0.00     0.085 C 
HETATM   47  N1  UNL     1      -4.428  15.316  19.470  1.00  0.00    -0.088 NA
ATOM     48  H4  UNL     1      -6.811  14.481  21.071  1.00  0.00     0.162 HD
ENDBRANCH  39  40
ENDBRANCH  38  39
ENDBRANCH  37  38
ENDBRANCH  36  37
ENDBRANCH   1  36
TORSDOF 12
ENDMDL
MODEL 2
REMARK VINA RESULT: -10.223670558      2.720     10.477
REMARK  12 active torsions:
REMARK  status: ('A' for Active; 'I' for Inactive)
REMARK       I    between atoms: N2_4  and  C3_6 
REMARK    1  A    between atoms: N4_8  and  C4_10 
REMARK    2  A    between atoms: C4_10  and  C5_11 
REMARK    3  A    between atoms: C5_11  and  C6_12 
REMARK    4  A    between atoms: C6_12  and  O1_13 
REMARK    5  A    between atoms: O1_13  and  C7_14 
REMARK    6  A    between atoms: C11_18  and  N5_19 
REMARK    7  A    between atoms: N5_19  and  C12_20 
REMARK    8  A    between atoms: C12_20  and  C13_21 
REMARK    9  A    between atoms: C13_21  and  N6_22 
REMARK   10  A    between atoms: N6_22  and  C14_23 
REMARK   11  A    between atoms: C20_31  and  O2_32 
REMARK   12  A    between atoms: C27_40  and  C28_41 
ROOT
HETATM    1  C7  UNL     1      -8.409  15.938  30.053  1.00  0.00     0.070 A 
HETATM    2  C8  UNL     1      -8.098  16.342  28.723  1.00  0.00     0.038 A 
HETATM    3  C9  UNL     1      -8.744  15.816  27.658  1.00  0.00     0.020 A 
HETATM    4  C10 UNL     1      -9.746  14.854  27.785  1.00  0.00     0.032 A 
HETATM    5  C11 UNL     1     -10.381  14.342  26.642  1.00  0.00     0.125 A 
HETATM    6  C23 UNL     1     -11.374  13.377  26.848  1.00  0.00     0.032 A 
HETATM    7  C24 UNL     1     -12.065  12.815  25.792  1.00  0.00     0.017 A 
HETATM    8  C25 UNL     1     -13.046  11.871  26.016  1.00  0.00     0.002 A 
HETATM    9  C26 UNL     1     -13.316  11.506  27.321  1.00  0.00     0.010 A 
HETATM   10  C27 UNL     1     -12.658  12.034  28.388  1.00  0.00    -0.026 A 
HETATM   11  C31 UNL     1     -11.663  12.995  28.140  1.00  0.00     0.053 A 
HETATM   12  N8  UNL     1     -11.015  13.529  29.183  1.00  0.00    -0.354 N 
ATOM     13  H8  UNL     1     -11.264  13.215  30.121  1.00  0.00     0.166 HD
HETATM   14  C32 UNL     1     -10.038  14.472  29.051  1.00  0.00     0.049 A 
HETATM   15  C33 UNL     1      -9.400  14.989  30.164  1.00  0.00     0.067 A 
ENDROOT
BRANCH   5  16
HETATM   16  N5  UNL     1     -10.065  14.734  25.544  1.00  0.00    -0.440 NA
BRANCH  16  17
HETATM   17  C12 UNL     1      -9.707  14.819  24.260  1.00  0.00     0.277 C 
BRANCH  17  18
HETATM   18  C13 UNL     1      -8.196  14.620  24.039  1.00  0.00     0.188 C 
BRANCH  18  19
HETATM   19  N6  UNL     1      -7.470  15.721  23.874  1.00  0.00    -0.418 NA
BRANCH  19  20
HETATM   20  C14 UNL     1      -6.822  16.703  23.722  1.00  0.00     0.120 A 
HETATM   21  C15 UNL     1      -6.974  17.501  22.594  1.00  0.00     0.062 A 
HETATM   22  C16 UNL     1      -6.232  18.618  22.427  1.00  0.00     0.091 A 
HETATM   23  N7  UNL     1      -5.336  18.991  23.327  1.00  0.00    -0.365 N 
HETATM   24  C17 UNL     1      -5.134  18.259  24.454  1.00  0.00     0.045 A 
ATOM     25  H7  UNL     1      -4.790  19.838  23.172  1.00  0.00     0.165 HD
HETATM   26  C18 UNL     1      -4.198  18.652  25.386  1.00  0.00     0.033 A 
HETATM   27  C22 UNL     1      -5.876  17.112  24.655  1.00  0.00     0.034 A 
HETATM   28  C19 UNL     1      -3.978  17.927  26.526  1.00  0.00     0.039 A 
HETATM   29  C20 UNL     1      -4.710  16.785  26.738  1.00  0.00     0.066 A 
HETATM   30  C21 UNL     1      -5.661  16.366  25.813  1.00  0.00     0.053 A 
BRANCH  29  31
HETATM   31  O2  UNL     1      -4.518  16.029  27.871  1.00  0.00    -0.361 OA
ATOM     32  H2  UNL     1      -4.044  15.207  27.830  1.00  0.00     0.217 HD
ENDBRANCH  29  31
ENDBRANCH  19  20
ENDBRANCH  18  19
ENDBRANCH  17  18
ENDBRANCH  16  17
ENDBRANCH   5  16
BRANCH  10  33
HETATM   33  C28 UNL     1     -12.891  11.650  29.793  1.00  0.00     0.021 A 
HETATM   34  C29 UNL     1     -14.045  10.747  30.083  1.00  0.00     0.010 A 
HETATM   35  C30 UNL     1     -14.145  12.195  30.465  1.00  0.00     0.010 A 
ENDBRANCH  10  33
BRANCH   1  36
HETATM   36  O1  UNL     1      -7.741  16.495  31.064  1.00  0.00    -0.351 OA
BRANCH  36  37
HETATM   37  C6  UNL     1      -7.724  16.726  32.344  1.00  0.00     0.177 C 
BRANCH  37  38
HETATM   38  C5  UNL     1      -8.241  15.817  33.395  1.00  0.00     0.046 C 
BRANCH  38  39
HETATM   39  C4  UNL     1      -9.646  15.879  33.809  1.00  0.00     0.124 C 
BRANCH  39  40
HETATM   40  N4  UNL     1     -10.145  14.491  33.852  1.00  0.00    -0.364 N 
HETATM   41  C3  UNL     1     -11.247  14.168  33.268  1.00  0.00     0.189 C 
HETATM   42  N2  UNL     1     -11.779  12.854  33.273  1.00  0.00    -0.323 N 
HETATM   43  N3  UNL     1     -11.962  15.187  32.584  1.00  0.00    -0.064 NA
HETATM   44  C2  UNL     1     -12.125  12.190  34.308  1.00  0.00     0.091 C 
ATOM     45  H2  UNL     1     -11.897  12.398  32.368  1.00  0.00     0.169 HD
HETATM   46  C1  UNL     1     -12.666  10.807  34.072  1.00  0.00     0.085 C 
HETATM   47  N1  UNL     1     -12.048  12.623  35.641  1.00  0.00    -0.088 NA
ATOM     48  H4  UNL     1      -9.612  13.780  34.350  1.00  0.00     0.162 HD
ENDBRANCH  39  40
ENDBRANCH  38  39
ENDBRANCH  37  38
ENDBRANCH  36  37
ENDBRANCH   1  36
TORSDOF 12
ENDMDL
MODEL 3
REMARK VINA RESULT: -9.975394500      1.726      4.640
REMARK  12 active torsions:
REMARK  status: ('A' for Active; 'I' for Inactive)
REMARK       I    between atoms: N2_4  and  C3_6 
REMARK    1  A    between atoms: N4_8  and  C4_10 
REMARK    2  A    between atoms: C4_10  and  C5_11 
REMARK    3  A    between atoms: C5_11  and  C6_12 
REMARK    4  A    between atoms: C6_12  and  O1_13 
REMARK    5  A    between atoms: O1_13  and  C7_14 
REMARK    6  A    between atoms: C11_18  and  N5_19 
REMARK    7  A    between atoms: N5_19  and  C12_20 
REMARK    8  A    between atoms: C12_20  and  C13_21 
REMARK    9  A    between atoms: C13_21  and  N6_22 
REMARK   10  A    between atoms: N6_22  and  C14_23 
REMARK   11  A    between atoms: C20_31  and  O2_32 
REMARK   12  A    between atoms: C27_40  and  C28_41 
ROOT
HETATM    1  C7  UNL     1      -3.981  16.984  25.900  1.00  0.00     0.070 A 
HETATM    2  C8  UNL     1      -4.238  16.778  27.286  1.00  0.00     0.038 A 
HETATM    3  C9  UNL     1      -5.428  16.302  27.718  1.00  0.00     0.020 A 
HETATM    4  C10 UNL     1      -6.472  15.984  26.850  1.00  0.00     0.032 A 
HETATM    5  C11 UNL     1      -7.686  15.494  27.358  1.00  0.00     0.125 A 
HETATM    6  C23 UNL     1      -8.689  15.200  26.425  1.00  0.00     0.032 A 
HETATM    7  C24 UNL     1      -9.918  14.706  26.819  1.00  0.00     0.017 A 
HETATM    8  C25 UNL     1     -10.891  14.414  25.884  1.00  0.00     0.002 A 
HETATM    9  C26 UNL     1     -10.601  14.630  24.550  1.00  0.00     0.010 A 
HETATM   10  C27 UNL     1      -9.404  15.115  24.122  1.00  0.00    -0.026 A 
HETATM   11  C31 UNL     1      -8.427  15.405  25.089  1.00  0.00     0.053 A 
HETATM   12  N8  UNL     1      -7.242  15.875  24.678  1.00  0.00    -0.354 N 
ATOM     13  H8  UNL     1      -7.093  16.010  23.679  1.00  0.00     0.166 HD
HETATM   14  C32 UNL     1      -6.223  16.181  25.533  1.00  0.00     0.049 A 
HETATM   15  C33 UNL     1      -5.020  16.665  25.055  1.00  0.00     0.067 A 
ENDROOT
BRANCH   5  16
HETATM   16  N5  UNL     1      -7.832  15.343  28.547  1.00  0.00    -0.440 NA
BRANCH  16  17
HETATM   17  C12 UNL     1      -8.102  15.515  29.844  1.00  0.00     0.277 C 
BRANCH  17  18
HETATM   18  C13 UNL     1      -8.645  14.244  30.521  1.00  0.00     0.188 C 
BRANCH  18  19
HETATM   19  N6  UNL     1      -9.956  14.203  30.745  1.00  0.00    -0.418 NA
BRANCH  19  20
HETATM   20  C14 UNL     1     -11.125  14.170  30.944  1.00  0.00     0.120 A 
HETATM   21  C15 UNL     1     -11.698  14.876  31.995  1.00  0.00     0.062 A 
HETATM   22  C16 UNL     1     -13.030  14.833  32.217  1.00  0.00     0.091 A 
HETATM   23  N7  UNL     1     -13.834  14.119  31.446  1.00  0.00    -0.365 N 
HETATM   24  C17 UNL     1     -13.344  13.404  30.400  1.00  0.00     0.045 A 
ATOM     25  H7  UNL     1     -14.836  14.106  31.640  1.00  0.00     0.165 HD
HETATM   26  C18 UNL     1     -14.187  12.662  29.602  1.00  0.00     0.033 A 
HETATM   27  C22 UNL     1     -11.987  13.426  30.146  1.00  0.00     0.034 A 
HETATM   28  C19 UNL     1     -13.711  11.933  28.545  1.00  0.00     0.039 A 
HETATM   29  C20 UNL     1     -12.364  11.948  28.281  1.00  0.00     0.066 A 
HETATM   30  C21 UNL     1     -11.491  12.689  29.072  1.00  0.00     0.053 A 
BRANCH  29  31
HETATM   31  O2  UNL     1     -11.847  11.229  27.229  1.00  0.00    -0.361 OA
ATOM     32  H2  UNL     1     -11.363  10.426  27.382  1.00  0.00     0.217 HD
ENDBRANCH  29  31
ENDBRANCH  19  20
ENDBRANCH  18  19
ENDBRANCH  17  18
ENDBRANCH  16  17
ENDBRANCH   5  16
BRANCH  10  33
HETATM   33  C28 UNL     1      -9.065  15.391  22.713  1.00  0.00     0.021 A 
HETATM   34  C29 UNL     1     -10.031  14.941  21.666  1.00  0.00     0.010 A 
HETATM   35  C30 UNL     1      -8.740  14.193  21.828  1.00  0.00     0.010 A 
ENDBRANCH  10  33
BRANCH   1  36
HETATM   36  O1  UNL     1      -2.787  17.452  25.533  1.00  0.00    -0.351 OA
BRANCH  36  37
HETATM   37  C6  UNL     1      -2.083  17.960  24.566  1.00  0.00     0.177 C 
BRANCH  37  38
HETATM   38  C5  UNL     1      -0.969  17.283  23.857  1.00  0.00     0.046 C 
BRANCH  38  39
HETATM   39  C4  UNL     1      -1.244  16.281  22.822  1.00  0.00     0.124 C 
BRANCH  39  40
HETATM   40  N4  UNL     1      -2.681  16.370  22.505  1.00  0.00    -0.364 N 
HETATM   41  C3  UNL     1      -3.083  16.501  21.288  1.00  0.00     0.189 C 
HETATM   42  N2  UNL     1      -4.448  16.592  20.919  1.00  0.00    -0.323 N 
HETATM   43  N3  UNL     1      -2.098  16.557  20.265  1.00  0.00    -0.064 NA
HETATM   44  C2  UNL     1      -5.266  17.499  21.294  1.00  0.00     0.091 C 
ATOM     45  H2  UNL     1      -4.810  15.868  20.298  1.00  0.00     0.169 HD
HETATM   46  C1  UNL     1      -6.673  17.392  20.775  1.00  0.00     0.085 C 
HETATM   47  N1  UNL     1      -4.981  18.581  22.141  1.00  0.00    -0.088 NA
ATOM     48  H4  UNL     1      -3.366  16.327  23.259  1.00  0.00     0.162 HD
ENDBRANCH  39  40
ENDBRANCH  38  39
ENDBRANCH  37  38
ENDBRANCH  36  37
ENDBRANCH   1  36
TORSDOF 12
ENDMDL
MODEL 4
REMARK VINA RESULT: -9.965468474      2.525      9.731
REMARK  12 active torsions:
REMARK  status: ('A' for Active; 'I' for Inactive)
REMARK       I    between atoms: N2_4  and  C3_6 
REMARK    1  A    between atoms: N4_8  and  C4_10 
REMARK    2  A    between atoms: C4_10  and  C5_11 
REMARK    3  A    between atoms: C5_11  and  C6_12 
REMARK    4  A    between atoms: C6_12  and  O1_13 
REMARK    5  A    between atoms: O1_13  and  C7_14 
REMARK    6  A    between atoms: C11_18  and  N5_19 
REMARK    7  A    between atoms: N5_19  and  C12_20 
REMARK    8  A    between atoms: C12_20  and  C13_21 
REMARK    9  A    between atoms: C13_21  and  N6_22 
REMARK   10  A    between atoms: N6_22  and  C14_23 
REMARK   11  A    between atoms: C20_31  and  O2_32 
REMARK   12  A    between atoms: C27_40  and  C28_41 
ROOT
HETATM    1  C7  UNL     1     -12.465  12.020  28.615  1.00  0.00     0.070 A 
HETATM    2  C8  UNL     1     -12.143  12.160  27.235  1.00  0.00     0.038 A 
HETATM    3  C9  UNL     1     -11.180  13.015  26.821  1.00  0.00     0.020 A 
HETATM    4  C10 UNL     1     -10.446  13.807  27.702  1.00  0.00     0.032 A 
HETATM    5  C11 UNL     1      -9.459  14.678  27.212  1.00  0.00     0.125 A 
HETATM    6  C23 UNL     1      -8.765  15.444  28.157  1.00  0.00     0.032 A 
HETATM    7  C24 UNL     1      -7.770  16.325  27.782  1.00  0.00     0.017 A 
HETATM    8  C25 UNL     1      -7.092  17.066  28.729  1.00  0.00     0.002 A 
HETATM    9  C26 UNL     1      -7.437  16.901  30.057  1.00  0.00     0.010 A 
HETATM   10  C27 UNL     1      -8.411  16.045  30.468  1.00  0.00    -0.026 A 
HETATM   11  C31 UNL     1      -9.089  15.299  29.489  1.00  0.00     0.053 A 
HETATM   12  N8  UNL     1     -10.043  14.446  29.882  1.00  0.00    -0.354 N 
ATOM     13  H8  UNL     1     -10.247  14.372  30.878  1.00  0.00     0.166 HD
HETATM   14  C32 UNL     1     -10.756  13.671  29.014  1.00  0.00     0.049 A 
HETATM   15  C33 UNL     1     -11.733  12.808  29.474  1.00  0.00     0.067 A 
ENDROOT
BRANCH   5  16
HETATM   16  N5  UNL     1      -9.239  14.743  26.027  1.00  0.00    -0.440 NA
BRANCH  16  17
HETATM   17  C12 UNL     1      -9.336  14.715  24.695  1.00  0.00     0.277 C 
BRANCH  17  18
HETATM   18  C13 UNL     1      -7.972  14.589  23.992  1.00  0.00     0.188 C 
BRANCH  18  19
HETATM   19  N6  UNL     1      -7.294  15.718  23.803  1.00  0.00    -0.418 NA
BRANCH  19  20
HETATM   20  C14 UNL     1      -6.687  16.723  23.633  1.00  0.00     0.120 A 
HETATM   21  C15 UNL     1      -6.994  17.581  22.584  1.00  0.00     0.062 A 
HETATM   22  C16 UNL     1      -6.298  18.724  22.394  1.00  0.00     0.091 A 
HETATM   23  N7  UNL     1      -5.302  19.065  23.196  1.00  0.00    -0.365 N 
HETATM   24  C17 UNL     1      -4.947  18.274  24.242  1.00  0.00     0.045 A 
ATOM     25  H7  UNL     1      -4.795  19.934  23.027  1.00  0.00     0.165 HD
HETATM   26  C18 UNL     1      -3.908  18.634  25.073  1.00  0.00     0.033 A 
HETATM   27  C22 UNL     1      -5.638  17.099  24.464  1.00  0.00     0.034 A 
HETATM   28  C19 UNL     1      -3.534  17.849  26.130  1.00  0.00     0.039 A 
HETATM   29  C20 UNL     1      -4.214  16.679  26.361  1.00  0.00     0.066 A 
HETATM   30  C21 UNL     1      -5.267  16.292  25.538  1.00  0.00     0.053 A 
BRANCH  29  31
HETATM   31  O2  UNL     1      -3.868  15.863  27.412  1.00  0.00    -0.361 OA
ATOM     32  H2  UNL     1      -4.533  15.382  27.891  1.00  0.00     0.217 HD
ENDBRANCH  29  31
ENDBRANCH  19  20
ENDBRANCH  18  19
ENDBRANCH  17  18
ENDBRANCH  16  17
ENDBRANCH   5  16
BRANCH  10  33
HETATM   33  C28 UNL     1      -8.833  15.862  31.870  1.00  0.00     0.021 A 
HETATM   34  C29 UNL     1      -8.031  16.544  32.930  1.00  0.00     0.010 A 
HETATM   35  C30 UNL     1      -7.909  15.056  32.775  1.00  0.00     0.010 A 
ENDBRANCH  10  33
BRANCH   1  36
HETATM   36  O1  UNL     1     -13.422  11.159  28.965  1.00  0.00    -0.351 OA
BRANCH  36  37
HETATM   37  C6  UNL     1     -14.291  10.828  29.874  1.00  0.00     0.177 C 
BRANCH  37  38
HETATM   38  C5  UNL     1     -14.341   9.533  30.594  1.00  0.00     0.046 C 
BRANCH  38  39
HETATM   39  C4  UNL     1     -13.475   9.289  31.751  1.00  0.00     0.124 C 
BRANCH  39  40
HETATM   40  N4  UNL     1     -12.825  10.571  32.082  1.00  0.00    -0.364 N 
HETATM   41  C3  UNL     1     -12.754  10.981  33.301  1.00  0.00     0.189 C 
HETATM   42  N2  UNL     1     -12.143  12.201  33.682  1.00  0.00    -0.323 N 
HETATM   43  N3  UNL     1     -13.321  10.160  34.313  1.00  0.00    -0.064 NA
HETATM   44  C2  UNL     1     -12.500  13.368  33.304  1.00  0.00     0.091 C 
ATOM     45  H2  UNL     1     -11.346  12.143  34.317  1.00  0.00     0.169 HD
HETATM   46  C1  UNL     1     -11.700  14.524  33.838  1.00  0.00     0.085 C 
HETATM   47  N1  UNL     1     -13.562  13.675  32.440  1.00  0.00    -0.088 NA
ATOM     48  H4  UNL     1     -12.426  11.140  31.336  1.00  0.00     0.162 HD
ENDBRANCH  39  40
ENDBRANCH  38  39
ENDBRANCH  37  38
ENDBRANCH  36  37
ENDBRANCH   1  36
TORSDOF 12
ENDMDL
MODEL 5
REMARK VINA RESULT: -9.943995369      2.070      7.273
REMARK  12 active torsions:
REMARK  status: ('A' for Active; 'I' for Inactive)
REMARK       I    between atoms: N2_4  and  C3_6 
REMARK    1  A    between atoms: N4_8  and  C4_10 
REMARK    2  A    between atoms: C4_10  and  C5_11 
REMARK    3  A    between atoms: C5_11  and  C6_12 
REMARK    4  A    between atoms: C6_12  and  O1_13 
REMARK    5  A    between atoms: O1_13  and  C7_14 
REMARK    6  A    between atoms: C11_18  and  N5_19 
REMARK    7  A    between atoms: N5_19  and  C12_20 
REMARK    8  A    between atoms: C12_20  and  C13_21 
REMARK    9  A    between atoms: C13_21  and  N6_22 
REMARK   10  A    between atoms: N6_22  and  C14_23 
REMARK   11  A    between atoms: C20_31  and  O2_32 
REMARK   12  A    between atoms: C27_40  and  C28_41 
ROOT
HETATM    1  C7  UNL     1      -8.538  14.654  23.973  1.00  0.00     0.070 A 
HETATM    2  C8  UNL     1      -7.419  15.367  24.489  1.00  0.00     0.038 A 
HETATM    3  C9  UNL     1      -7.262  15.565  25.818  1.00  0.00     0.020 A 
HETATM    4  C10 UNL     1      -8.172  15.091  26.762  1.00  0.00     0.032 A 
HETATM    5  C11 UNL     1      -7.957  15.329  28.130  1.00  0.00     0.125 A 
HETATM    6  C23 UNL     1      -8.915  14.826  29.018  1.00  0.00     0.032 A 
HETATM    7  C24 UNL     1      -8.795  14.998  30.383  1.00  0.00     0.017 A 
HETATM    8  C25 UNL     1      -9.746  14.487  31.244  1.00  0.00     0.002 A 
HETATM    9  C26 UNL     1     -10.817  13.803  30.701  1.00  0.00     0.010 A 
HETATM   10  C27 UNL     1     -10.972  13.612  29.364  1.00  0.00    -0.026 A 
HETATM   11  C31 UNL     1      -9.993  14.138  28.504  1.00  0.00     0.053 A 
HETATM   12  N8  UNL     1     -10.131  13.950  27.186  1.00  0.00    -0.354 N 
ATOM     13  H8  UNL     1     -10.945  13.434  26.852  1.00  0.00     0.166 HD
HETATM   14  C32 UNL     1      -9.235  14.413  26.267  1.00  0.00     0.049 A 
HETATM   15  C33 UNL     1      -9.428  14.191  24.916  1.00  0.00     0.067 A 
ENDROOT
BRANCH   5  16
HETATM   16  N5  UNL     1      -6.983  15.942  28.495  1.00  0.00    -0.440 NA
BRANCH  16  17
HETATM   17  C12 UNL     1      -6.130  16.735  29.149  1.00  0.00     0.277 C 
BRANCH  17  18
HETATM   18  C13 UNL     1      -4.707  16.708  28.562  1.00  0.00     0.188 C 
BRANCH  18  19
HETATM   19  N6  UNL     1      -4.537  17.311  27.388  1.00  0.00    -0.418 NA
BRANCH  19  20
HETATM   20  C14 UNL     1      -4.382  17.847  26.341  1.00  0.00     0.120 A 
HETATM   21  C15 UNL     1      -4.974  19.073  26.065  1.00  0.00     0.062 A 
HETATM   22  C16 UNL     1      -4.795  19.678  24.869  1.00  0.00     0.091 A 
HETATM   23  N7  UNL     1      -4.053  19.126  23.923  1.00  0.00    -0.365 N 
HETATM   24  C17 UNL     1      -3.444  17.929  24.124  1.00  0.00     0.045 A 
ATOM     25  H7  UNL     1      -3.937  19.607  23.030  1.00  0.00     0.165 HD
HETATM   26  C18 UNL     1      -2.674  17.359  23.133  1.00  0.00     0.033 A 
HETATM   27  C22 UNL     1      -3.606  17.284  25.334  1.00  0.00     0.034 A 
HETATM   28  C19 UNL     1      -2.054  16.152  23.315  1.00  0.00     0.039 A 
HETATM   29  C20 UNL     1      -2.208  15.501  24.515  1.00  0.00     0.066 A 
HETATM   30  C21 UNL     1      -2.980  16.055  25.531  1.00  0.00     0.053 A 
BRANCH  29  31
HETATM   31  O2  UNL     1      -1.602  14.287  24.736  1.00  0.00    -0.361 OA
ATOM     32  H2  UNL     1      -1.508  13.947  25.618  1.00  0.00     0.217 HD
ENDBRANCH  29  31
ENDBRANCH  19  20
ENDBRANCH  18  19
ENDBRANCH  17  18
ENDBRANCH  16  17
ENDBRANCH   5  16
BRANCH  10  33
HETATM   33  C28 UNL     1     -12.115  12.917  28.741  1.00  0.00     0.021 A 
HETATM   34  C29 UNL     1     -13.108  12.265  29.647  1.00  0.00     0.010 A 
HETATM   35  C30 UNL     1     -12.160  11.399  28.870  1.00  0.00     0.010 A 
ENDBRANCH  10  33
BRANCH   1  36
HETATM   36  O1  UNL     1      -8.638  14.486  22.653  1.00  0.00    -0.351 OA
BRANCH  36  37
HETATM   37  C6  UNL     1      -9.401  14.610  21.609  1.00  0.00     0.177 C 
BRANCH  37  38
HETATM   38  C5  UNL     1      -9.492  15.807  20.739  1.00  0.00     0.046 C 
BRANCH  38  39
HETATM   39  C4  UNL     1      -8.496  16.878  20.838  1.00  0.00     0.124 C 
BRANCH  39  40
HETATM   40  N4  UNL     1      -7.174  16.259  20.631  1.00  0.00    -0.364 N 
HETATM   41  C3  UNL     1      -6.095  16.875  20.971  1.00  0.00     0.189 C 
HETATM   42  N2  UNL     1      -4.796  16.334  20.798  1.00  0.00    -0.323 N 
HETATM   43  N3  UNL     1      -6.220  18.167  21.550  1.00  0.00    -0.064 NA
HETATM   44  C2  UNL     1      -4.265  16.004  19.683  1.00  0.00     0.091 C 
ATOM     45  H2  UNL     1      -4.235  16.196  21.638  1.00  0.00     0.169 HD
HETATM   46  C1  UNL     1      -2.869  15.448  19.742  1.00  0.00     0.085 C 
HETATM   47  N1  UNL     1      -4.855  16.109  18.415  1.00  0.00    -0.088 NA
ATOM     48  H4  UNL     1      -7.113  15.331  20.213  1.00  0.00     0.162 HD
ENDBRANCH  39  40
ENDBRANCH  38  39
ENDBRANCH  37  38
ENDBRANCH  36  37
ENDBRANCH   1  36
TORSDOF 12
ENDMDL
