MODEL 1
REMARK VINA RESULT: -7.812825279      0.000      0.000
REMARK  5 active torsions:
REMARK  status: ('A' for Active; 'I' for Inactive)
REMARK    1  A    between atoms: C2_2  and  C5_5 
REMARK    2  A    between atoms: N1_10  and  C10_12 
REMARK    3  A    between atoms: C10_12  and  O1_13 
REMARK    4  A    between atoms: C10_12  and  C11_15 
REMARK    5  A    between atoms: C11_15  and  C12_16 
ROOT
HETATM    1  C5  UNL     1      18.521  -8.719  -2.290  1.00  0.00     0.018 A 
HETATM    2  C6  UNL     1      18.507  -8.010  -3.490  1.00  0.00     0.026 A 
HETATM    3  C7  UNL     1      19.560  -8.088  -4.363  1.00  0.00     0.006 A 
HETATM    4  C8  UNL     1      20.631  -8.877  -4.037  1.00  0.00     0.048 A 
HETATM    5  C9  UNL     1      20.644  -9.568  -2.866  1.00  0.00     0.103 A 
HETATM    6  N1  UNL     1      21.616 -10.279  -2.526  1.00  0.00    -0.350 N 
ATOM      7  H1  UNL     1      21.462 -10.729  -1.624  1.00  0.00     0.163 HD
HETATM    8  N3  UNL     1      19.594  -9.470  -2.035  1.00  0.00    -0.345 N 
ATOM      9  H3  UNL     1      19.617  -9.999  -1.162  1.00  0.00     0.167 HD
ENDROOT
BRANCH   6  10
HETATM   10  C10 UNL     1      22.854 -10.612  -3.066  1.00  0.00     0.223 C 
BRANCH  10  11
HETATM   11  O1  UNL     1      23.701 -11.064  -2.019  1.00  0.00    -0.377 OA
ATOM     12  H1  UNL     1      23.563 -11.996  -1.898  1.00  0.00     0.212 HD
ENDBRANCH  10  11
BRANCH  10  13
HETATM   13  C11 UNL     1      22.970 -11.574  -4.178  1.00  0.00     0.093 C 
BRANCH  13  14
HETATM   14  C12 UNL     1      23.427 -11.031  -5.474  1.00  0.00    -0.039 A 
HETATM   15  C13 UNL     1      22.507 -10.589  -6.433  1.00  0.00     0.010 A 
HETATM   16  C14 UNL     1      22.937 -10.099  -7.665  1.00  0.00     0.018 A 
HETATM   17  C15 UNL     1      24.283 -10.058  -7.908  1.00  0.00     0.087 A 
HETATM   18  N2  UNL     1      25.191 -10.474  -7.006  1.00  0.00    -0.375 N 
HETATM   19  C16 UNL     1      24.758 -10.949  -5.815  1.00  0.00     0.094 A 
ATOM     20  H2  UNL     1      26.188 -10.431  -7.216  1.00  0.00     0.164 HD
ENDBRANCH  13  14
ENDBRANCH  10  13
ENDBRANCH   6  10
BRANCH   1  21
HETATM   21  C2  UNL     1      17.347  -8.524  -1.414  1.00  0.00    -0.009 C 
HETATM   22  C1  UNL     1      17.760  -8.653   0.066  1.00  0.00     0.021 C 
HETATM   23  C3  UNL     1      16.230  -9.484  -1.632  1.00  0.00     0.021 C 
HETATM   24  C4  UNL     1      16.791  -7.120  -1.532  1.00  0.00     0.021 C 
ENDBRANCH   1  21
TORSDOF 5
ENDMDL
MODEL 2
REMARK VINA RESULT: -7.582271834      0.900      1.120
REMARK  5 active torsions:
REMARK  status: ('A' for Active; 'I' for Inactive)
REMARK    1  A    between atoms: C2_2  and  C5_5 
REMARK    2  A    between atoms: N1_10  and  C10_12 
REMARK    3  A    between atoms: C10_12  and  O1_13 
REMARK    4  A    between atoms: C10_12  and  C11_15 
REMARK    5  A    between atoms: C11_15  and  C12_16 
ROOT
HETATM    1  C5  UNL     1      17.951  -8.268  -2.807  1.00  0.00     0.018 A 
HETATM    2  C6  UNL     1      18.300  -7.499  -3.916  1.00  0.00     0.026 A 
HETATM    3  C7  UNL     1      19.495  -7.690  -4.556  1.00  0.00     0.006 A 
HETATM    4  C8  UNL     1      20.347  -8.656  -4.089  1.00  0.00     0.048 A 
HETATM    5  C9  UNL     1      20.007  -9.407  -3.008  1.00  0.00     0.103 A 
HETATM    6  N1  UNL     1      20.771 -10.280  -2.540  1.00  0.00    -0.350 N 
ATOM      7  H1  UNL     1      20.362 -10.752  -1.733  1.00  0.00     0.163 HD
HETATM    8  N3  UNL     1      18.826  -9.193  -2.406  1.00  0.00    -0.345 N 
ATOM      9  H3  UNL     1      18.584  -9.768  -1.598  1.00  0.00     0.167 HD
ENDROOT
BRANCH   6  10
HETATM   10  C10 UNL     1      22.037 -10.772  -2.841  1.00  0.00     0.223 C 
BRANCH  10  11
HETATM   11  O1  UNL     1      22.563 -11.412  -1.687  1.00  0.00    -0.377 OA
ATOM     12  H1  UNL     1      22.186 -12.282  -1.623  1.00  0.00     0.212 HD
ENDBRANCH  10  11
BRANCH  10  13
HETATM   13  C11 UNL     1      22.255 -11.674  -3.987  1.00  0.00     0.093 C 
BRANCH  13  14
HETATM   14  C12 UNL     1      23.026 -11.124  -5.121  1.00  0.00    -0.039 A 
HETATM   15  C13 UNL     1      22.375 -10.608  -6.249  1.00  0.00     0.010 A 
HETATM   16  C14 UNL     1      23.102 -10.110  -7.329  1.00  0.00     0.018 A 
HETATM   17  C15 UNL     1      24.469 -10.138  -7.254  1.00  0.00     0.087 A 
HETATM   18  N2  UNL     1      25.121 -10.626  -6.184  1.00  0.00    -0.375 N 
HETATM   19  C16 UNL     1      24.401 -11.107  -5.143  1.00  0.00     0.094 A 
ATOM     20  H2  UNL     1      26.141 -10.634  -6.157  1.00  0.00     0.164 HD
ENDBRANCH  13  14
ENDBRANCH  10  13
ENDBRANCH   6  10
BRANCH   1  21
HETATM   21  C2  UNL     1      16.655  -7.942  -2.179  1.00  0.00    -0.009 C 
HETATM   22  C1  UNL     1      16.654  -6.478  -1.690  1.00  0.00     0.021 C 
HETATM   23  C3  UNL     1      16.291  -8.785  -1.007  1.00  0.00     0.021 C 
HETATM   24  C4  UNL     1      15.519  -8.008  -3.179  1.00  0.00     0.021 C 
ENDBRANCH   1  21
TORSDOF 5
ENDMDL
MODEL 3
REMARK VINA RESULT: -7.310333420      3.672      5.032
REMARK  5 active torsions:
REMARK  status: ('A' for Active; 'I' for Inactive)
REMARK    1  A    between atoms: C2_2  and  C5_5 
REMARK    2  A    between atoms: N1_10  and  C10_12 
REMARK    3  A    between atoms: C10_12  and  O1_13 
REMARK    4  A    between atoms: C10_12  and  C11_15 
REMARK    5  A    between atoms: C11_15  and  C12_16 
ROOT
HETATM    1  C5  UNL     1      20.321  -7.580  -7.575  1.00  0.00     0.018 A 
HETATM    2  C6  UNL     1      20.073  -7.885  -8.912  1.00  0.00     0.026 A 
HETATM    3  C7  UNL     1      20.833  -8.811  -9.575  1.00  0.00     0.006 A 
HETATM    4  C8  UNL     1      21.847  -9.438  -8.899  1.00  0.00     0.048 A 
HETATM    5  C9  UNL     1      22.088  -9.142  -7.594  1.00  0.00     0.103 A 
HETATM    6  N1  UNL     1      23.020  -9.677  -6.954  1.00  0.00    -0.350 N 
ATOM      7  H1  UNL     1      23.060  -9.346  -5.990  1.00  0.00     0.163 HD
HETATM    8  N3  UNL     1      21.321  -8.229  -6.975  1.00  0.00    -0.345 N 
ATOM      9  H3  UNL     1      21.513  -8.021  -5.995  1.00  0.00     0.167 HD
ENDROOT
BRANCH   6  10
HETATM   10  C10 UNL     1      24.016 -10.611  -7.222  1.00  0.00     0.223 C 
BRANCH  10  11
HETATM   11  O1  UNL     1      25.269  -9.942  -7.259  1.00  0.00    -0.377 OA
ATOM     12  H1  UNL     1      25.166  -9.129  -7.739  1.00  0.00     0.212 HD
ENDBRANCH  10  11
BRANCH  10  13
HETATM   13  C11 UNL     1      24.181 -11.816  -6.389  1.00  0.00     0.093 C 
BRANCH  13  14
HETATM   14  C12 UNL     1      23.996 -11.640  -4.933  1.00  0.00    -0.039 A 
HETATM   15  C13 UNL     1      22.718 -11.672  -4.361  1.00  0.00     0.010 A 
HETATM   16  C14 UNL     1      22.543 -11.484  -2.991  1.00  0.00     0.018 A 
HETATM   17  C15 UNL     1      23.654 -11.269  -2.222  1.00  0.00     0.087 A 
HETATM   18  N2  UNL     1      24.895 -11.234  -2.743  1.00  0.00    -0.375 N 
HETATM   19  C16 UNL     1      25.049 -11.418  -4.075  1.00  0.00     0.094 A 
ATOM     20  H2  UNL     1      25.705 -11.072  -2.144  1.00  0.00     0.164 HD
ENDBRANCH  13  14
ENDBRANCH  10  13
ENDBRANCH   6  10
BRANCH   1  21
HETATM   21  C2  UNL     1      19.459  -6.537  -6.981  1.00  0.00    -0.009 C 
HETATM   22  C1  UNL     1      19.916  -6.227  -5.541  1.00  0.00     0.021 C 
HETATM   23  C3  UNL     1      18.012  -6.880  -6.908  1.00  0.00     0.021 C 
HETATM   24  C4  UNL     1      19.595  -5.219  -7.715  1.00  0.00     0.021 C 
ENDBRANCH   1  21
TORSDOF 5
ENDMDL
MODEL 4
REMARK VINA RESULT: -7.288126476      3.556      5.278
REMARK  5 active torsions:
REMARK  status: ('A' for Active; 'I' for Inactive)
REMARK    1  A    between atoms: C2_2  and  C5_5 
REMARK    2  A    between atoms: N1_10  and  C10_12 
REMARK    3  A    between atoms: C10_12  and  O1_13 
REMARK    4  A    between atoms: C10_12  and  C11_15 
REMARK    5  A    between atoms: C11_15  and  C12_16 
ROOT
HETATM    1  C5  UNL     1      20.305  -7.562  -7.687  1.00  0.00     0.018 A 
HETATM    2  C6  UNL     1      20.067  -7.869  -9.026  1.00  0.00     0.026 A 
HETATM    3  C7  UNL     1      20.836  -8.794  -9.681  1.00  0.00     0.006 A 
HETATM    4  C8  UNL     1      21.846  -9.417  -8.997  1.00  0.00     0.048 A 
HETATM    5  C9  UNL     1      22.078  -9.117  -7.691  1.00  0.00     0.103 A 
HETATM    6  N1  UNL     1      23.007  -9.649  -7.044  1.00  0.00    -0.350 N 
ATOM      7  H1  UNL     1      23.039  -9.316  -6.080  1.00  0.00     0.163 HD
HETATM    8  N3  UNL     1      21.304  -8.206  -7.080  1.00  0.00    -0.345 N 
ATOM      9  H3  UNL     1      21.488  -7.996  -6.098  1.00  0.00     0.167 HD
ENDROOT
BRANCH   6  10
HETATM   10  C10 UNL     1      24.008 -10.579  -7.304  1.00  0.00     0.223 C 
BRANCH  10  11
HETATM   11  O1  UNL     1      25.251  -9.897  -7.398  1.00  0.00    -0.377 OA
ATOM     12  H1  UNL     1      25.863 -10.296  -6.791  1.00  0.00     0.212 HD
ENDBRANCH  10  11
BRANCH  10  13
HETATM   13  C11 UNL     1      24.210 -11.750  -6.431  1.00  0.00     0.093 C 
BRANCH  13  14
HETATM   14  C12 UNL     1      23.969 -11.545  -4.987  1.00  0.00    -0.039 A 
HETATM   15  C13 UNL     1      25.007 -11.152  -4.134  1.00  0.00     0.010 A 
HETATM   16  C14 UNL     1      24.785 -10.981  -2.769  1.00  0.00     0.018 A 
HETATM   17  C15 UNL     1      23.523 -11.206  -2.287  1.00  0.00     0.087 A 
HETATM   18  N2  UNL     1      22.506 -11.584  -3.083  1.00  0.00    -0.375 N 
HETATM   19  C16 UNL     1      22.738 -11.746  -4.407  1.00  0.00     0.094 A 
ATOM     20  H2  UNL     1      21.576 -11.744  -2.696  1.00  0.00     0.164 HD
ENDBRANCH  13  14
ENDBRANCH  10  13
ENDBRANCH   6  10
BRANCH   1  21
HETATM   21  C2  UNL     1      19.436  -6.520  -7.101  1.00  0.00    -0.009 C 
HETATM   22  C1  UNL     1      19.650  -5.178  -7.830  1.00  0.00     0.021 C 
HETATM   23  C3  UNL     1      19.652  -6.260  -5.652  1.00  0.00     0.021 C 
HETATM   24  C4  UNL     1      17.970  -6.837  -7.311  1.00  0.00     0.021 C 
ENDBRANCH   1  21
TORSDOF 5
ENDMDL
MODEL 5
REMARK VINA RESULT: -7.241936442      1.206      1.973
REMARK  5 active torsions:
REMARK  status: ('A' for Active; 'I' for Inactive)
REMARK    1  A    between atoms: C2_2  and  C5_5 
REMARK    2  A    between atoms: N1_10  and  C10_12 
REMARK    3  A    between atoms: C10_12  and  O1_13 
REMARK    4  A    between atoms: C10_12  and  C11_15 
REMARK    5  A    between atoms: C11_15  and  C12_16 
ROOT
HETATM    1  C5  UNL     1      18.226  -8.075  -2.586  1.00  0.00     0.018 A 
HETATM    2  C6  UNL     1      17.509  -9.084  -1.945  1.00  0.00     0.026 A 
HETATM    3  C7  UNL     1      18.104 -10.277  -1.632  1.00  0.00     0.006 A 
HETATM    4  C8  UNL     1      19.421 -10.464  -1.958  1.00  0.00     0.048 A 
HETATM    5  C9  UNL     1      20.120  -9.479  -2.583  1.00  0.00     0.103 A 
HETATM    6  N1  UNL     1      21.317  -9.626  -2.918  1.00  0.00    -0.350 N 
ATOM      7  H1  UNL     1      21.690  -8.792  -3.372  1.00  0.00     0.163 HD
HETATM    8  N3  UNL     1      19.505  -8.321  -2.874  1.00  0.00    -0.345 N 
ATOM      9  H3  UNL     1      20.045  -7.591  -3.339  1.00  0.00     0.167 HD
ENDROOT
BRANCH   6  10
HETATM   10  C10 UNL     1      22.268 -10.636  -2.827  1.00  0.00     0.223 C 
BRANCH  10  11
HETATM   11  O1  UNL     1      22.035 -11.376  -1.637  1.00  0.00    -0.377 OA
ATOM     12  H1  UNL     1      21.098 -11.482  -1.523  1.00  0.00     0.212 HD
ENDBRANCH  10  11
BRANCH  10  13
HETATM   13  C11 UNL     1      22.461 -11.606  -3.921  1.00  0.00     0.093 C 
BRANCH  13  14
HETATM   14  C12 UNL     1      23.129 -11.102  -5.139  1.00  0.00    -0.039 A 
HETATM   15  C13 UNL     1      22.384 -10.580  -6.204  1.00  0.00     0.010 A 
HETATM   16  C14 UNL     1      23.013 -10.126  -7.362  1.00  0.00     0.018 A 
HETATM   17  C15 UNL     1      24.379 -10.202  -7.427  1.00  0.00     0.087 A 
HETATM   18  N2  UNL     1      25.120 -10.697  -6.419  1.00  0.00    -0.375 N 
HETATM   19  C16 UNL     1      24.495 -11.135  -5.302  1.00  0.00     0.094 A 
ATOM     20  H2  UNL     1      26.137 -10.741  -6.496  1.00  0.00     0.164 HD
ENDBRANCH  13  14
ENDBRANCH  10  13
ENDBRANCH   6  10
BRANCH   1  21
HETATM   21  C2  UNL     1      17.465  -6.850  -2.907  1.00  0.00    -0.009 C 
HETATM   22  C1  UNL     1      18.433  -5.686  -3.207  1.00  0.00     0.021 C 
HETATM   23  C3  UNL     1      16.548  -6.377  -1.834  1.00  0.00     0.021 C 
HETATM   24  C4  UNL     1      16.659  -7.011  -4.179  1.00  0.00     0.021 C 
ENDBRANCH   1  21
TORSDOF 5
ENDMDL
