MODEL 1
REMARK VINA RESULT: -7.185693370      0.000      0.000
REMARK  2 active torsions:
REMARK  status: ('A' for Active; 'I' for Inactive)
REMARK    1  A    between atoms: C2_2  and  N1_3 
REMARK       I    between atoms: N1_3  and  C3_5 
REMARK    2  A    between atoms: C3_5  and  C4_7 
ROOT
HETATM    1  C4  UNL     1      -2.919   4.473  10.763  1.00  0.00     0.144 C 
HETATM    2  C5  UNL     1      -3.446   5.822  11.108  1.00  0.00     0.234 C 
HETATM    3  C6  UNL     1      -4.706   6.252  10.430  1.00  0.00     0.044 C 
HETATM    4  N2  UNL     1      -3.523   5.437  12.475  1.00  0.00     0.101 N 
HETATM    5  C7  UNL     1      -4.774   5.116  13.040  1.00  0.00     0.294 C 
HETATM    6  C8  UNL     1      -4.554   4.300  14.284  1.00  0.00     0.145 C 
HETATM    7  C9  UNL     1      -5.887   4.027  14.862  1.00  0.00     0.067 C 
HETATM    8  N3  UNL     1      -6.930   3.795  15.319  1.00  0.00    -0.197 NA
HETATM    9  C10 UNL     1      -3.770   3.065  14.041  1.00  0.00     0.089 A 
HETATM   10  C11 UNL     1      -3.393   2.352  15.288  1.00  0.00     0.072 C 
HETATM   11  N4  UNL     1      -3.101   1.804  16.263  1.00  0.00    -0.196 NA
HETATM   12  C12 UNL     1      -2.815   3.104  12.911  1.00  0.00     0.063 A 
HETATM   13  C13 UNL     1      -2.597   4.402  12.254  1.00  0.00     0.245 C 
HETATM   14  C14 UNL     1      -3.978   2.283  12.878  1.00  0.00     0.057 A 
HETATM   15  C15 UNL     1      -4.197   0.896  12.671  1.00  0.00     0.099 A 
HETATM   16  C16 UNL     1      -5.007   2.036  11.990  1.00  0.00     0.139 A 
HETATM   17  O2  UNL     1      -5.949   2.048  11.182  1.00  0.00    -0.297 OA
ENDROOT
BRANCH   1  18
HETATM   18  C3  UNL     1      -1.720   4.552   9.889  1.00  0.00     0.226 C 
HETATM   19  N1  UNL     1      -0.467   5.036  10.369  1.00  0.00    -0.361 N 
ATOM     20  H1  UNL     1      -0.353   5.346  11.334  1.00  0.00     0.162 HD
HETATM   21  O1  UNL     1      -1.840   4.176   8.696  1.00  0.00    -0.273 OA
BRANCH  19  22
HETATM   22  C2  UNL     1       0.637   5.071   9.433  1.00  0.00     0.118 C 
HETATM   23  C1  UNL     1       1.845   4.349   9.933  1.00  0.00     0.026 C 
ENDBRANCH  19  22
ENDBRANCH   1  18
TORSDOF 2
ENDMDL
MODEL 2
REMARK VINA RESULT: -6.986300435      2.194      6.080
REMARK  2 active torsions:
REMARK  status: ('A' for Active; 'I' for Inactive)
REMARK    1  A    between atoms: C2_2  and  N1_3 
REMARK       I    between atoms: N1_3  and  C3_5 
REMARK    2  A    between atoms: C3_5  and  C4_7 
ROOT
HETATM    1  C4  UNL     1      -4.911   3.425  13.610  1.00  0.00     0.144 C 
HETATM    2  C5  UNL     1      -4.285   2.174  13.098  1.00  0.00     0.234 C 
HETATM    3  C6  UNL     1      -4.962   1.496  11.952  1.00  0.00     0.044 C 
HETATM    4  N2  UNL     1      -3.083   2.889  12.835  1.00  0.00     0.101 N 
HETATM    5  C7  UNL     1      -2.765   3.252  11.511  1.00  0.00     0.294 C 
HETATM    6  C8  UNL     1      -1.761   4.372  11.540  1.00  0.00     0.145 C 
HETATM    7  C9  UNL     1      -1.426   4.686  10.134  1.00  0.00     0.067 C 
HETATM    8  N3  UNL     1      -1.165   4.952   9.033  1.00  0.00    -0.197 NA
HETATM    9  C10 UNL     1      -2.231   5.557  12.297  1.00  0.00     0.089 A 
HETATM   10  C11 UNL     1      -1.181   6.590  12.485  1.00  0.00     0.072 C 
HETATM   11  N4  UNL     1      -0.357   7.387  12.629  1.00  0.00    -0.196 NA
HETATM   12  C12 UNL     1      -3.198   5.300  13.386  1.00  0.00     0.063 A 
HETATM   13  C13 UNL     1      -3.464   3.897  13.738  1.00  0.00     0.245 C 
HETATM   14  C14 UNL     1      -3.574   6.000  12.204  1.00  0.00     0.057 A 
HETATM   15  C15 UNL     1      -4.160   7.268  11.957  1.00  0.00     0.099 A 
HETATM   16  C16 UNL     1      -4.603   5.938  11.286  1.00  0.00     0.139 A 
HETATM   17  O2  UNL     1      -5.480   5.652  10.454  1.00  0.00    -0.297 OA
ENDROOT
BRANCH   1  18
HETATM   18  C3  UNL     1      -5.595   3.212  14.911  1.00  0.00     0.226 C 
HETATM   19  N1  UNL     1      -5.324   2.076  15.729  1.00  0.00    -0.361 N 
ATOM     20  H1  UNL     1      -4.647   1.368  15.446  1.00  0.00     0.162 HD
HETATM   21  O1  UNL     1      -6.433   4.074  15.278  1.00  0.00    -0.273 OA
BRANCH  19  22
HETATM   22  C2  UNL     1      -6.047   1.967  16.979  1.00  0.00     0.118 C 
HETATM   23  C1  UNL     1      -7.275   1.124  16.867  1.00  0.00     0.026 C 
ENDBRANCH  19  22
ENDBRANCH   1  18
TORSDOF 2
ENDMDL
MODEL 3
REMARK VINA RESULT: -6.744185150      2.203      6.047
REMARK  2 active torsions:
REMARK  status: ('A' for Active; 'I' for Inactive)
REMARK    1  A    between atoms: C2_2  and  N1_3 
REMARK       I    between atoms: N1_3  and  C3_5 
REMARK    2  A    between atoms: C3_5  and  C4_7 
ROOT
HETATM    1  C4  UNL     1      -4.354   3.009  13.435  1.00  0.00     0.144 C 
HETATM    2  C5  UNL     1      -4.043   1.904  12.487  1.00  0.00     0.234 C 
HETATM    3  C6  UNL     1      -5.107   1.531  11.507  1.00  0.00     0.044 C 
HETATM    4  N2  UNL     1      -2.921   2.636  12.008  1.00  0.00     0.101 N 
HETATM    5  C7  UNL     1      -3.000   3.297  10.766  1.00  0.00     0.294 C 
HETATM    6  C8  UNL     1      -1.934   4.357  10.709  1.00  0.00     0.145 C 
HETATM    7  C9  UNL     1      -2.027   4.989   9.375  1.00  0.00     0.067 C 
HETATM    8  N3  UNL     1      -2.098   5.504   8.336  1.00  0.00    -0.197 NA
HETATM    9  C10 UNL     1      -2.026   5.337  11.818  1.00  0.00     0.089 A 
HETATM   10  C11 UNL     1      -0.876   6.274  11.872  1.00  0.00     0.072 C 
HETATM   11  N4  UNL     1       0.025   6.997  11.910  1.00  0.00    -0.196 NA
HETATM   12  C12 UNL     1      -2.624   4.849  13.079  1.00  0.00     0.063 A 
HETATM   13  C13 UNL     1      -2.901   3.408  13.184  1.00  0.00     0.245 C 
HETATM   14  C14 UNL     1      -3.282   5.817  12.268  1.00  0.00     0.057 A 
HETATM   15  C15 UNL     1      -3.790   7.119  12.509  1.00  0.00     0.099 A 
HETATM   16  C16 UNL     1      -4.548   5.996  11.746  1.00  0.00     0.139 A 
HETATM   17  O2  UNL     1      -5.663   5.934  11.205  1.00  0.00    -0.297 OA
ENDROOT
BRANCH   1  18
HETATM   18  C3  UNL     1      -4.613   2.507  14.809  1.00  0.00     0.226 C 
HETATM   19  N1  UNL     1      -5.905   2.582  15.408  1.00  0.00    -0.361 N 
ATOM     20  H1  UNL     1      -6.698   2.985  14.910  1.00  0.00     0.162 HD
HETATM   21  O1  UNL     1      -3.648   2.007  15.440  1.00  0.00    -0.273 OA
BRANCH  19  22
HETATM   22  C2  UNL     1      -6.047   2.062  16.752  1.00  0.00     0.118 C 
HETATM   23  C1  UNL     1      -7.302   1.274  16.940  1.00  0.00     0.026 C 
ENDBRANCH  19  22
ENDBRANCH   1  18
TORSDOF 2
ENDMDL
MODEL 4
REMARK VINA RESULT: -6.589990233      2.241      2.619
REMARK  2 active torsions:
REMARK  status: ('A' for Active; 'I' for Inactive)
REMARK    1  A    between atoms: C2_2  and  N1_3 
REMARK       I    between atoms: N1_3  and  C3_5 
REMARK    2  A    between atoms: C3_5  and  C4_7 
ROOT
HETATM    1  C4  UNL     1      -1.362   5.792  12.268  1.00  0.00     0.144 C 
HETATM    2  C5  UNL     1      -1.457   6.395  13.626  1.00  0.00     0.234 C 
HETATM    3  C6  UNL     1      -2.165   7.706  13.738  1.00  0.00     0.044 C 
HETATM    4  N2  UNL     1      -2.131   5.232  14.091  1.00  0.00     0.101 N 
HETATM    5  C7  UNL     1      -3.526   5.266  14.288  1.00  0.00     0.294 C 
HETATM    6  C8  UNL     1      -4.053   3.858  14.298  1.00  0.00     0.145 C 
HETATM    7  C9  UNL     1      -5.507   3.944  14.552  1.00  0.00     0.067 C 
HETATM    8  N3  UNL     1      -6.653   3.999  14.737  1.00  0.00    -0.197 NA
HETATM    9  C10 UNL     1      -3.729   3.106  13.062  1.00  0.00     0.089 A 
HETATM   10  C11 UNL     1      -4.085   1.666  13.138  1.00  0.00     0.072 C 
HETATM   11  N4  UNL     1      -4.361   0.546  13.207  1.00  0.00    -0.196 NA
HETATM   12  C12 UNL     1      -2.499   3.511  12.348  1.00  0.00     0.063 A 
HETATM   13  C13 UNL     1      -1.620   4.484  13.014  1.00  0.00     0.245 C 
HETATM   14  C14 UNL     1      -3.791   3.727  11.789  1.00  0.00     0.057 A 
HETATM   15  C15 UNL     1      -4.405   3.363  10.563  1.00  0.00     0.099 A 
HETATM   16  C16 UNL     1      -4.468   4.778  11.203  1.00  0.00     0.139 A 
HETATM   17  O2  UNL     1      -5.004   5.845  10.864  1.00  0.00    -0.297 OA
ENDROOT
BRANCH   1  18
HETATM   18  C3  UNL     1       0.008   5.906  11.705  1.00  0.00     0.226 C 
HETATM   19  N1  UNL     1       1.042   4.985  12.044  1.00  0.00    -0.361 N 
ATOM     20  H1  UNL     1       0.875   4.213  12.689  1.00  0.00     0.162 HD
HETATM   21  O1  UNL     1       0.235   6.851  10.908  1.00  0.00    -0.273 OA
BRANCH  19  22
HETATM   22  C2  UNL     1       2.341   5.188  11.437  1.00  0.00     0.118 C 
HETATM   23  C1  UNL     1       3.392   5.571  12.427  1.00  0.00     0.026 C 
ENDBRANCH  19  22
ENDBRANCH   1  18
TORSDOF 2
ENDMDL
MODEL 5
REMARK VINA RESULT: -6.583959375      2.297      6.207
REMARK  2 active torsions:
REMARK  status: ('A' for Active; 'I' for Inactive)
REMARK    1  A    between atoms: C2_2  and  N1_3 
REMARK       I    between atoms: N1_3  and  C3_5 
REMARK    2  A    between atoms: C3_5  and  C4_7 
ROOT
HETATM    1  C4  UNL     1      -4.727   4.060  13.617  1.00  0.00     0.144 C 
HETATM    2  C5  UNL     1      -3.708   2.976  13.627  1.00  0.00     0.234 C 
HETATM    3  C6  UNL     1      -3.726   2.017  12.482  1.00  0.00     0.044 C 
HETATM    4  N2  UNL     1      -2.674   3.952  13.663  1.00  0.00     0.101 N 
HETATM    5  C7  UNL     1      -1.945   4.238  12.491  1.00  0.00     0.294 C 
HETATM    6  C8  UNL     1      -1.287   5.582  12.641  1.00  0.00     0.145 C 
HETATM    7  C9  UNL     1      -0.500   5.816  11.410  1.00  0.00     0.067 C 
HETATM    8  N3  UNL     1       0.111   6.017  10.443  1.00  0.00    -0.197 NA
HETATM    9  C10 UNL     1      -2.249   6.674  12.924  1.00  0.00     0.089 A 
HETATM   10  C11 UNL     1      -1.594   7.966  13.252  1.00  0.00     0.072 C 
HETATM   11  N4  UNL     1      -1.076   8.966  13.511  1.00  0.00    -0.196 NA
HETATM   12  C12 UNL     1      -3.490   6.290  13.631  1.00  0.00     0.063 A 
HETATM   13  C13 UNL     1      -3.578   4.916  14.147  1.00  0.00     0.245 C 
HETATM   14  C14 UNL     1      -3.508   6.727  12.275  1.00  0.00     0.057 A 
HETATM   15  C15 UNL     1      -4.197   7.755  11.582  1.00  0.00     0.099 A 
HETATM   16  C16 UNL     1      -4.058   6.288  11.087  1.00  0.00     0.139 A 
HETATM   17  O2  UNL     1      -4.459   5.687  10.077  1.00  0.00    -0.297 OA
ENDROOT
BRANCH   1  18
HETATM   18  C3  UNL     1      -5.806   3.819  14.608  1.00  0.00     0.226 C 
HETATM   19  N1  UNL     1      -5.719   2.780  15.581  1.00  0.00    -0.361 N 
ATOM     20  H1  UNL     1      -4.906   2.166  15.629  1.00  0.00     0.162 HD
HETATM   21  O1  UNL     1      -6.817   4.565  14.565  1.00  0.00    -0.273 OA
BRANCH  19  22
HETATM   22  C2  UNL     1      -6.828   2.632  16.500  1.00  0.00     0.118 C 
HETATM   23  C1  UNL     1      -7.022   1.222  16.953  1.00  0.00     0.026 C 
ENDBRANCH  19  22
ENDBRANCH   1  18
TORSDOF 2
ENDMDL
