MODEL 1
REMARK VINA RESULT: -7.575463409      0.000      0.000
REMARK  3 active torsions:
REMARK  status: ('A' for Active; 'I' for Inactive)
REMARK    1  A    between atoms: C3_3  and  C4_4 
REMARK       I    between atoms: C4_4  and  N1_6 
REMARK    2  A    between atoms: N1_6  and  N2_7 
REMARK    3  A    between atoms: C5_9  and  C6_10 
ROOT
HETATM    1  C1  UNL     1      -6.326   2.308  18.819  1.00  0.00     0.112 C 
HETATM    2  C2  UNL     1      -5.748   1.734  17.608  1.00  0.00    -0.100 C 
HETATM    3  C3  UNL     1      -5.255   1.279  16.612  1.00  0.00     0.011 C 
ENDROOT
BRANCH   3   4
HETATM    4  C4  UNL     1      -4.635   0.742  15.378  1.00  0.00     0.390 C 
HETATM    5  O1  UNL     1      -4.732  -0.496  15.214  1.00  0.00    -0.239 OA
HETATM    6  N1  UNL     1      -4.021   1.641  14.539  1.00  0.00    -0.273 NA
BRANCH   6   7
HETATM    7  N2  UNL     1      -3.441   2.491  13.747  1.00  0.00    -0.240 N 
HETATM    8  C5  UNL     1      -3.164   3.781  13.987  1.00  0.00     0.151 C 
ATOM      9  H2  UNL     1      -3.164   2.135  12.832  1.00  0.00     0.201 HD
BRANCH   8  10
HETATM   10  C6  UNL     1      -2.517   4.428  12.895  1.00  0.00     0.066 A 
HETATM   11  N3  UNL     1      -1.281   3.936  12.510  1.00  0.00    -0.344 N 
HETATM   12  C7  UNL     1      -0.518   4.502  11.584  1.00  0.00     0.079 A 
ATOM     13  H3  UNL     1      -0.938   3.089  12.963  1.00  0.00     0.167 HD
HETATM   14  C8  UNL     1       0.821   3.917  11.207  1.00  0.00     0.089 C 
HETATM   15  N4  UNL     1      -0.982   5.607  11.001  1.00  0.00    -0.331 N 
HETATM   16  C9  UNL     1      -2.183   6.153  11.318  1.00  0.00     0.121 A 
ATOM     17  H4  UNL     1      -0.411   6.062  10.287  1.00  0.00     0.168 HD
HETATM   18  C10 UNL     1      -2.977   5.546  12.294  1.00  0.00     0.042 A 
HETATM   19  N5  UNL     1      -2.599   7.255  10.674  1.00  0.00    -0.341 N 
HETATM   20  C11 UNL     1      -4.222   6.069  12.612  1.00  0.00    -0.044 A 
HETATM   21  C12 UNL     1      -5.160   5.492  13.560  1.00  0.00     0.049 C 
HETATM   22  C13 UNL     1      -4.554   7.220  11.875  1.00  0.00     0.032 A 
HETATM   23  C14 UNL     1      -3.775   7.801  10.936  1.00  0.00     0.009 A 
HETATM   24  C15 UNL     1      -4.259   9.037  10.220  1.00  0.00     0.068 C 
HETATM   25  C16 UNL     1      -1.742   7.856   9.672  1.00  0.00     0.158 C 
ENDBRANCH   8  10
ENDBRANCH   6   7
ENDBRANCH   3   4
TORSDOF 3
ENDMDL
MODEL 2
REMARK VINA RESULT: -7.391314527      2.197      2.326
REMARK  3 active torsions:
REMARK  status: ('A' for Active; 'I' for Inactive)
REMARK    1  A    between atoms: C3_3  and  C4_4 
REMARK       I    between atoms: C4_4  and  N1_6 
REMARK    2  A    between atoms: N1_6  and  N2_7 
REMARK    3  A    between atoms: C5_9  and  C6_10 
ROOT
HETATM    1  C1  UNL     1      -6.331   2.109  18.532  1.00  0.00     0.112 C 
HETATM    2  C2  UNL     1      -5.709   1.750  17.261  1.00  0.00    -0.100 C 
HETATM    3  C3  UNL     1      -5.186   1.477  16.216  1.00  0.00     0.011 C 
ENDROOT
BRANCH   3   4
HETATM    4  C4  UNL     1      -4.538   1.166  14.920  1.00  0.00     0.390 C 
HETATM    5  O1  UNL     1      -4.757   0.021  14.462  1.00  0.00    -0.239 OA
HETATM    6  N1  UNL     1      -3.770   2.152  14.348  1.00  0.00    -0.273 NA
BRANCH   6   7
HETATM    7  N2  UNL     1      -3.045   3.084  13.808  1.00  0.00    -0.240 N 
HETATM    8  C5  UNL     1      -3.456   4.107  13.044  1.00  0.00     0.151 C 
ATOM      9  H2  UNL     1      -2.042   3.032  13.986  1.00  0.00     0.201 HD
BRANCH   8  10
HETATM   10  C6  UNL     1      -2.390   4.949  12.615  1.00  0.00     0.066 A 
HETATM   11  N3  UNL     1      -1.595   4.487  11.580  1.00  0.00    -0.344 N 
HETATM   12  C7  UNL     1      -0.507   5.112  11.151  1.00  0.00     0.079 A 
ATOM     13  H3  UNL     1      -1.861   3.616  11.121  1.00  0.00     0.167 HD
HETATM   14  C8  UNL     1       0.319   4.557  10.016  1.00  0.00     0.089 C 
HETATM   15  N4  UNL     1      -0.173   6.249  11.761  1.00  0.00    -0.331 N 
HETATM   16  C9  UNL     1      -0.898   6.772  12.782  1.00  0.00     0.121 A 
ATOM     17  H4  UNL     1       0.662   6.746  11.449  1.00  0.00     0.168 HD
HETATM   18  C10 UNL     1      -2.043   6.104  13.223  1.00  0.00     0.042 A 
HETATM   19  N5  UNL     1      -0.516   7.934  13.336  1.00  0.00    -0.341 N 
HETATM   20  C11 UNL     1      -2.817   6.636  14.244  1.00  0.00    -0.044 A 
HETATM   21  C12 UNL     1      -4.058   6.068  14.744  1.00  0.00     0.049 C 
HETATM   22  C13 UNL     1      -2.325   7.854  14.747  1.00  0.00     0.032 A 
HETATM   23  C14 UNL     1      -1.213   8.489  14.314  1.00  0.00     0.009 A 
HETATM   24  C15 UNL     1      -0.800   9.795  14.946  1.00  0.00     0.068 C 
HETATM   25  C16 UNL     1       0.680   8.591  12.851  1.00  0.00     0.158 C 
ENDBRANCH   8  10
ENDBRANCH   6   7
ENDBRANCH   3   4
TORSDOF 3
ENDMDL
MODEL 3
REMARK VINA RESULT: -7.049996862      3.362      4.022
REMARK  3 active torsions:
REMARK  status: ('A' for Active; 'I' for Inactive)
REMARK    1  A    between atoms: C3_3  and  C4_4 
REMARK       I    between atoms: C4_4  and  N1_6 
REMARK    2  A    between atoms: N1_6  and  N2_7 
REMARK    3  A    between atoms: C5_9  and  C6_10 
ROOT
HETATM    1  C1  UNL     1      -3.348  -2.279  11.608  1.00  0.00     0.112 C 
HETATM    2  C2  UNL     1      -3.858  -0.913  11.550  1.00  0.00    -0.100 C 
HETATM    3  C3  UNL     1      -4.266   0.214  11.480  1.00  0.00     0.011 C 
ENDROOT
BRANCH   3   4
HETATM    4  C4  UNL     1      -4.747   1.612  11.379  1.00  0.00     0.390 C 
HETATM    5  O1  UNL     1      -5.983   1.754  11.235  1.00  0.00    -0.239 OA
HETATM    6  N1  UNL     1      -3.803   2.609  11.452  1.00  0.00    -0.273 NA
BRANCH   6   7
HETATM    7  N2  UNL     1      -2.912   3.550  11.522  1.00  0.00    -0.240 N 
HETATM    8  C5  UNL     1      -2.355   4.075  12.623  1.00  0.00     0.151 C 
ATOM      9  H2  UNL     1      -2.598   3.938  10.632  1.00  0.00     0.201 HD
BRANCH   8  10
HETATM   10  C6  UNL     1      -1.406   5.098  12.338  1.00  0.00     0.066 A 
HETATM   11  N3  UNL     1      -0.447   4.822  11.377  1.00  0.00    -0.344 N 
HETATM   12  C7  UNL     1       0.560   5.633  11.086  1.00  0.00     0.079 A 
ATOM     13  H3  UNL     1      -0.521   3.944  10.863  1.00  0.00     0.167 HD
HETATM   14  C8  UNL     1       1.574   5.276  10.026  1.00  0.00     0.089 C 
HETATM   15  N4  UNL     1       0.642   6.777  11.767  1.00  0.00    -0.331 N 
HETATM   16  C9  UNL     1      -0.257   7.125  12.722  1.00  0.00     0.121 A 
ATOM     17  H4  UNL     1       1.410   7.416  11.561  1.00  0.00     0.168 HD
HETATM   18  C10 UNL     1      -1.314   6.261  13.018  1.00  0.00     0.042 A 
HETATM   19  N5  UNL     1      -0.127   8.303  13.353  1.00  0.00    -0.341 N 
HETATM   20  C11 UNL     1      -2.261   6.610  13.970  1.00  0.00    -0.044 A 
HETATM   21  C12 UNL     1      -3.435   5.826  14.316  1.00  0.00     0.049 C 
HETATM   22  C13 UNL     1      -2.028   7.864  14.562  1.00  0.00     0.032 A 
HETATM   23  C14 UNL     1      -0.998   8.690  14.271  1.00  0.00     0.009 A 
HETATM   24  C15 UNL     1      -0.870  10.011  14.987  1.00  0.00     0.068 C 
HETATM   25  C16 UNL     1       0.986   9.167  13.019  1.00  0.00     0.158 C 
ENDBRANCH   8  10
ENDBRANCH   6   7
ENDBRANCH   3   4
TORSDOF 3
ENDMDL
MODEL 4
REMARK VINA RESULT: -6.844343054      2.452      3.950
REMARK  3 active torsions:
REMARK  status: ('A' for Active; 'I' for Inactive)
REMARK    1  A    between atoms: C3_3  and  C4_4 
REMARK       I    between atoms: C4_4  and  N1_6 
REMARK    2  A    between atoms: N1_6  and  N2_7 
REMARK    3  A    between atoms: C5_9  and  C6_10 
ROOT
HETATM    1  C1  UNL     1      -7.421   0.990  17.272  1.00  0.00     0.112 C 
HETATM    2  C2  UNL     1      -6.226   1.534  16.636  1.00  0.00    -0.100 C 
HETATM    3  C3  UNL     1      -5.256   2.000  16.104  1.00  0.00     0.011 C 
ENDROOT
BRANCH   3   4
HETATM    4  C4  UNL     1      -4.075   2.587  15.428  1.00  0.00     0.390 C 
HETATM    5  O1  UNL     1      -2.960   2.244  15.883  1.00  0.00    -0.239 OA
HETATM    6  N1  UNL     1      -4.311   3.440  14.377  1.00  0.00    -0.273 NA
BRANCH   6   7
HETATM    7  N2  UNL     1      -4.535   4.246  13.384  1.00  0.00    -0.240 N 
HETATM    8  C5  UNL     1      -3.663   5.065  12.776  1.00  0.00     0.151 C 
ATOM      9  H2  UNL     1      -5.489   4.259  13.022  1.00  0.00     0.201 HD
BRANCH   8  10
HETATM   10  C6  UNL     1      -4.245   5.814  11.715  1.00  0.00     0.066 A 
HETATM   11  N3  UNL     1      -5.353   6.588  12.019  1.00  0.00    -0.344 N 
HETATM   12  C7  UNL     1      -6.060   7.251  11.113  1.00  0.00     0.079 A 
ATOM     13  H3  UNL     1      -5.642   6.652  12.994  1.00  0.00     0.167 HD
HETATM   14  C8  UNL     1      -7.259   8.079  11.508  1.00  0.00     0.089 C 
HETATM   15  N4  UNL     1      -5.669   7.157   9.842  1.00  0.00    -0.331 N 
HETATM   16  C9  UNL     1      -4.594   6.423   9.460  1.00  0.00     0.121 A 
ATOM     17  H4  UNL     1      -6.200   7.657   9.128  1.00  0.00     0.168 HD
HETATM   18  C10 UNL     1      -3.858   5.731  10.424  1.00  0.00     0.042 A 
HETATM   19  N5  UNL     1      -4.243   6.392   8.164  1.00  0.00    -0.341 N 
HETATM   20  C11 UNL     1      -2.736   4.999  10.059  1.00  0.00    -0.044 A 
HETATM   21  C12 UNL     1      -1.858   4.292  10.976  1.00  0.00     0.049 C 
HETATM   22  C13 UNL     1      -2.462   5.039   8.680  1.00  0.00     0.032 A 
HETATM   23  C14 UNL     1      -3.185   5.710   7.756  1.00  0.00     0.009 A 
HETATM   24  C15 UNL     1      -2.774   5.665   6.306  1.00  0.00     0.068 C 
HETATM   25  C16 UNL     1      -5.037   7.120   7.197  1.00  0.00     0.158 C 
ENDBRANCH   8  10
ENDBRANCH   6   7
ENDBRANCH   3   4
TORSDOF 3
ENDMDL
MODEL 5
REMARK VINA RESULT: -6.723124425      3.302      6.626
REMARK  3 active torsions:
REMARK  status: ('A' for Active; 'I' for Inactive)
REMARK    1  A    between atoms: C3_3  and  C4_4 
REMARK       I    between atoms: C4_4  and  N1_6 
REMARK    2  A    between atoms: N1_6  and  N2_7 
REMARK    3  A    between atoms: C5_9  and  C6_10 
ROOT
HETATM    1  C1  UNL     1       4.168   6.688  13.206  1.00  0.00     0.112 C 
HETATM    2  C2  UNL     1       3.382   5.808  12.347  1.00  0.00    -0.100 C 
HETATM    3  C3  UNL     1       2.731   5.069  11.660  1.00  0.00     0.011 C 
ENDROOT
BRANCH   3   4
HETATM    4  C4  UNL     1       1.937   4.135  10.829  1.00  0.00     0.390 C 
HETATM    5  O1  UNL     1       2.455   3.802   9.738  1.00  0.00    -0.239 OA
HETATM    6  N1  UNL     1       0.723   3.725  11.326  1.00  0.00    -0.273 NA
BRANCH   6   7
HETATM    7  N2  UNL     1      -0.423   3.338  11.797  1.00  0.00    -0.240 N 
HETATM    8  C5  UNL     1      -1.640   3.813  11.492  1.00  0.00     0.151 C 
ATOM      9  H2  UNL     1      -0.396   2.582  12.481  1.00  0.00     0.201 HD
BRANCH   8  10
HETATM   10  C6  UNL     1      -2.690   3.157  12.196  1.00  0.00     0.066 A 
HETATM   11  N3  UNL     1      -2.906   1.820  11.908  1.00  0.00    -0.344 N 
HETATM   12  C7  UNL     1      -3.913   1.112  12.404  1.00  0.00     0.079 A 
ATOM     13  H3  UNL     1      -2.255   1.352  11.279  1.00  0.00     0.167 HD
HETATM   14  C8  UNL     1      -4.095  -0.344  12.052  1.00  0.00     0.089 C 
HETATM   15  N4  UNL     1      -4.756   1.739  13.225  1.00  0.00    -0.331 N 
HETATM   16  C9  UNL     1      -4.614   3.046  13.561  1.00  0.00     0.121 A 
ATOM     17  H4  UNL     1      -5.539   1.215  13.617  1.00  0.00     0.168 HD
HETATM   18  C10 UNL     1      -3.549   3.779  13.032  1.00  0.00     0.042 A 
HETATM   19  N5  UNL     1      -5.487   3.607  14.412  1.00  0.00    -0.341 N 
HETATM   20  C11 UNL     1      -3.367   5.108  13.386  1.00  0.00    -0.044 A 
HETATM   21  C12 UNL     1      -2.266   5.952  12.952  1.00  0.00     0.049 C 
HETATM   22  C13 UNL     1      -4.337   5.590  14.283  1.00  0.00     0.032 A 
HETATM   23  C14 UNL     1      -5.366   4.871  14.785  1.00  0.00     0.009 A 
HETATM   24  C15 UNL     1      -6.336   5.518  15.742  1.00  0.00     0.068 C 
HETATM   25  C16 UNL     1      -6.580   2.813  14.934  1.00  0.00     0.158 C 
ENDBRANCH   8  10
ENDBRANCH   6   7
ENDBRANCH   3   4
TORSDOF 3
ENDMDL
