MODEL 1
REMARK VINA RESULT: -7.052341436      0.000      0.000
REMARK  10 active torsions:
REMARK  status: ('A' for Active; 'I' for Inactive)
REMARK    1  A    between atoms: N1_2  and  C3_4 
REMARK    2  A    between atoms: C3_4  and  C4_5 
REMARK       I    between atoms: C4_5  and  N2_7 
REMARK    3  A    between atoms: N2_7  and  N3_9 
REMARK    4  A    between atoms: C5_11  and  C6_12 
REMARK    5  A    between atoms: C7_17  and  N6_18 
REMARK    6  A    between atoms: N7_21  and  C10_22 
REMARK    7  A    between atoms: C11_23  and  O2_24 
REMARK    8  A    between atoms: C12_26  and  O3_27 
REMARK    9  A    between atoms: C14_31  and  O4_32 
REMARK   10  A    between atoms: C17_38  and  N10_39 
ROOT
HETATM    1  C6  UNL     1       9.973   3.528 106.491  1.00  0.00     0.109 A 
HETATM    2  N4  UNL     1      10.886   4.483 106.352  1.00  0.00    -0.281 N 
ATOM      3  H4  UNL     1      11.621   4.574 107.054  1.00  0.00     0.187 HD
HETATM    4  N5  UNL     1      10.868   5.321 105.327  1.00  0.00    -0.131 N 
ATOM      5  H5  UNL     1      11.586   6.042 105.256  1.00  0.00     0.205 HD
HETATM    6  C7  UNL     1       9.929   5.240 104.386  1.00  0.00     0.696 A 
HETATM    7  N9  UNL     1       8.998   4.289 104.502  1.00  0.00    -0.173 N 
ATOM      8  H9  UNL     1       8.274   4.218 103.788  1.00  0.00     0.186 HD
HETATM    9  C17 UNL     1       8.985   3.425 105.525  1.00  0.00     0.144 A 
ENDROOT
BRANCH   6  10
HETATM   10  N6  UNL     1       9.928   6.144 103.303  1.00  0.00    -0.213 N 
HETATM   11  C8  UNL     1       9.607   5.760 101.952  1.00  0.00     0.161 C 
HETATM   12  C9  UNL     1      10.563   6.293 100.940  1.00  0.00     0.143 C 
HETATM   13  N7  UNL     1      11.597   7.166 101.448  1.00  0.00    -0.372 N 
HETATM   14  C15 UNL     1      11.567   7.782 102.739  1.00  0.00     0.143 C 
HETATM   15  C16 UNL     1      10.251   7.567 103.463  1.00  0.00     0.161 C 
BRANCH  13  16
HETATM   16  C10 UNL     1      12.703   7.437 100.553  1.00  0.00     0.120 A 
HETATM   17  C11 UNL     1      14.048   7.191 100.737  1.00  0.00     0.148 A 
HETATM   18  C12 UNL     1      14.693   7.685  99.577  1.00  0.00     0.180 A 
HETATM   19  N8  UNL     1      13.814   8.197  98.735  1.00  0.00    -0.309 N 
HETATM   20  C13 UNL     1      14.099   8.805  97.425  1.00  0.00     0.161 C 
HETATM   21  C14 UNL     1      12.613   8.055  99.311  1.00  0.00     0.174 A 
BRANCH  17  22
HETATM   22  O2  UNL     1      14.703   6.605 101.776  1.00  0.00    -0.355 OA
ATOM     23  H2  UNL     1      14.373   6.067 102.486  1.00  0.00     0.218 HD
ENDBRANCH  17  22
BRANCH  18  24
HETATM   24  O3  UNL     1      16.056   7.612  99.407  1.00  0.00    -0.344 OA
ATOM     25  H3  UNL     1      16.641   7.360 100.111  1.00  0.00     0.219 HD
ENDBRANCH  18  24
BRANCH  21  26
HETATM   26  O4  UNL     1      11.442   8.497  98.681  1.00  0.00    -0.344 OA
ATOM     27  H4  UNL     1      11.322   8.649  97.751  1.00  0.00     0.219 HD
ENDBRANCH  21  26
ENDBRANCH  13  16
ENDBRANCH   6  10
BRANCH   9  28
HETATM   28  N10 UNL     1       8.115   2.499 105.680  1.00  0.00    -0.383 N 
ATOM     29 2H10 UNL     1       7.859   2.091 106.579  1.00  0.00     0.157 HD
ATOM     30 1H10 UNL     1       7.652   2.152 104.839  1.00  0.00     0.157 HD
ENDBRANCH   9  28
BRANCH   1  31
HETATM   31  C5  UNL     1      10.032   2.639 107.626  1.00  0.00     0.142 C 
HETATM   32  N3  UNL     1      10.772   1.632 107.715  1.00  0.00    -0.307 N 
ATOM     33  H3  UNL     1      10.687   1.113 108.589  1.00  0.00     0.186 HD
BRANCH  32  34
HETATM   34  N2  UNL     1      11.684   1.112 106.818  1.00  0.00    -0.269 N 
HETATM   35  C4  UNL     1      12.721   0.259 107.273  1.00  0.00     0.253 C 
HETATM   36  O1  UNL     1      12.714   0.022 108.540  1.00  0.00    -0.270 OA
ATOM     37  H2  UNL     1      11.611   1.341 105.827  1.00  0.00     0.190 HD
BRANCH  35  38
HETATM   38  C3  UNL     1      13.765  -0.350 106.446  1.00  0.00     0.220 C 
BRANCH  38  39
HETATM   39  N1  UNL     1      14.149   0.376 105.293  1.00  0.00    -0.413 N 
HETATM   40  C1  UNL     1      14.698   1.646 105.561  1.00  0.00     0.143 C 
HETATM   41  C2  UNL     1      14.783  -0.435 104.318  1.00  0.00     0.143 C 
ENDBRANCH  38  39
ENDBRANCH  35  38
ENDBRANCH  32  34
ENDBRANCH   1  31
TORSDOF 10
ENDMDL
MODEL 2
REMARK VINA RESULT: -6.993716396      2.541      4.266
REMARK  10 active torsions:
REMARK  status: ('A' for Active; 'I' for Inactive)
REMARK    1  A    between atoms: N1_2  and  C3_4 
REMARK    2  A    between atoms: C3_4  and  C4_5 
REMARK       I    between atoms: C4_5  and  N2_7 
REMARK    3  A    between atoms: N2_7  and  N3_9 
REMARK    4  A    between atoms: C5_11  and  C6_12 
REMARK    5  A    between atoms: C7_17  and  N6_18 
REMARK    6  A    between atoms: N7_21  and  C10_22 
REMARK    7  A    between atoms: C11_23  and  O2_24 
REMARK    8  A    between atoms: C12_26  and  O3_27 
REMARK    9  A    between atoms: C14_31  and  O4_32 
REMARK   10  A    between atoms: C17_38  and  N10_39 
ROOT
HETATM    1  C6  UNL     1      10.873   4.102 105.800  1.00  0.00     0.109 A 
HETATM    2  N4  UNL     1      10.345   5.290 106.074  1.00  0.00    -0.281 N 
ATOM      3  H4  UNL     1       9.778   5.400 106.915  1.00  0.00     0.187 HD
HETATM    4  N5  UNL     1      10.537   6.336 105.285  1.00  0.00    -0.131 N 
ATOM      5  H5  UNL     1      10.115   7.232 105.529  1.00  0.00     0.205 HD
HETATM    6  C7  UNL     1      11.270   6.240 104.178  1.00  0.00     0.696 A 
HETATM    7  N9  UNL     1      11.811   5.056 103.879  1.00  0.00    -0.173 N 
ATOM      8  H9  UNL     1      12.374   4.970 103.032  1.00  0.00     0.186 HD
HETATM    9  C17 UNL     1      11.638   3.977 104.652  1.00  0.00     0.144 A 
ENDROOT
BRANCH   6  10
HETATM   10  N6  UNL     1      11.460   7.367 103.351  1.00  0.00    -0.213 N 
HETATM   11  C8  UNL     1      10.545   7.744 102.303  1.00  0.00     0.161 C 
HETATM   12  C9  UNL     1      11.220   8.087 101.019  1.00  0.00     0.143 C 
HETATM   13  N7  UNL     1      12.666   8.073 101.044  1.00  0.00    -0.372 N 
HETATM   14  C15 UNL     1      13.450   8.072 102.240  1.00  0.00     0.143 C 
HETATM   15  C16 UNL     1      12.613   8.264 103.493  1.00  0.00     0.161 C 
BRANCH  13  16
HETATM   16  C10 UNL     1      13.328   8.093  99.756  1.00  0.00     0.120 A 
HETATM   17  C11 UNL     1      14.026   7.085  99.124  1.00  0.00     0.148 A 
HETATM   18  C12 UNL     1      14.501   7.645  97.913  1.00  0.00     0.180 A 
HETATM   19  N8  UNL     1      14.125   8.906  97.802  1.00  0.00    -0.309 N 
HETATM   20  C13 UNL     1      14.425   9.819  96.686  1.00  0.00     0.161 C 
HETATM   21  C14 UNL     1      13.419   9.188  98.904  1.00  0.00     0.174 A 
BRANCH  17  22
HETATM   22  O2  UNL     1      14.258   5.800  99.506  1.00  0.00    -0.355 OA
ATOM     23  H2  UNL     1      14.417   5.022  98.984  1.00  0.00     0.218 HD
ENDBRANCH  17  22
BRANCH  18  24
HETATM   24  O3  UNL     1      15.249   6.922  97.014  1.00  0.00    -0.344 OA
ATOM     25  H3  UNL     1      14.987   6.815  96.107  1.00  0.00     0.219 HD
ENDBRANCH  18  24
BRANCH  21  26
HETATM   26  O4  UNL     1      12.863  10.457  99.113  1.00  0.00    -0.344 OA
ATOM     27  H4  UNL     1      12.422  10.995  98.466  1.00  0.00     0.219 HD
ENDBRANCH  21  26
ENDBRANCH  13  16
ENDBRANCH   6  10
BRANCH   9  28
HETATM   28  N10 UNL     1      12.135   2.823 104.407  1.00  0.00    -0.383 N 
ATOM     29 2H10 UNL     1      13.005   2.472 104.807  1.00  0.00     0.157 HD
ATOM     30 1H10 UNL     1      11.616   2.221 103.766  1.00  0.00     0.157 HD
ENDBRANCH   9  28
BRANCH   1  31
HETATM   31  C5  UNL     1      10.635   2.990 106.688  1.00  0.00     0.142 C 
HETATM   32  N3  UNL     1       9.598   2.288 106.703  1.00  0.00    -0.307 N 
ATOM     33  H3  UNL     1       9.596   1.540 107.397  1.00  0.00     0.186 HD
BRANCH  32  34
HETATM   34  N2  UNL     1       8.456   2.365 105.930  1.00  0.00    -0.269 N 
HETATM   35  C4  UNL     1       7.400   3.232 106.306  1.00  0.00     0.253 C 
HETATM   36  O1  UNL     1       7.613   3.915 107.380  1.00  0.00    -0.270 OA
ATOM     37  H2  UNL     1       8.372   1.797 105.087  1.00  0.00     0.190 HD
BRANCH  35  38
HETATM   38  C3  UNL     1       6.130   3.407 105.599  1.00  0.00     0.220 C 
BRANCH  38  39
HETATM   39  N1  UNL     1       5.911   4.678 105.015  1.00  0.00    -0.413 N 
HETATM   40  C1  UNL     1       6.832   5.020 104.005  1.00  0.00     0.143 C 
HETATM   41  C2  UNL     1       4.538   4.951 104.791  1.00  0.00     0.143 C 
ENDBRANCH  38  39
ENDBRANCH  35  38
ENDBRANCH  32  34
ENDBRANCH   1  31
TORSDOF 10
ENDMDL
MODEL 3
REMARK VINA RESULT: -6.975066464      2.093      3.831
REMARK  10 active torsions:
REMARK  status: ('A' for Active; 'I' for Inactive)
REMARK    1  A    between atoms: N1_2  and  C3_4 
REMARK    2  A    between atoms: C3_4  and  C4_5 
REMARK       I    between atoms: C4_5  and  N2_7 
REMARK    3  A    between atoms: N2_7  and  N3_9 
REMARK    4  A    between atoms: C5_11  and  C6_12 
REMARK    5  A    between atoms: C7_17  and  N6_18 
REMARK    6  A    between atoms: N7_21  and  C10_22 
REMARK    7  A    between atoms: C11_23  and  O2_24 
REMARK    8  A    between atoms: C12_26  and  O3_27 
REMARK    9  A    between atoms: C14_31  and  O4_32 
REMARK   10  A    between atoms: C17_38  and  N10_39 
ROOT
HETATM    1  C6  UNL     1      12.220   1.290 106.751  1.00  0.00     0.109 A 
HETATM    2  N4  UNL     1      11.058   1.885 107.004  1.00  0.00    -0.281 N 
ATOM      3  H4  UNL     1      10.499   1.566 107.795  1.00  0.00     0.187 HD
HETATM    4  N5  UNL     1      10.609   2.881 106.257  1.00  0.00    -0.131 N 
ATOM      5  H5  UNL     1       9.712   3.312 106.483  1.00  0.00     0.205 HD
HETATM    6  C7  UNL     1      11.306   3.331 105.215  1.00  0.00     0.696 A 
HETATM    7  N9  UNL     1      12.476   2.750 104.939  1.00  0.00    -0.173 N 
ATOM      8  H9  UNL     1      13.018   3.086 104.143  1.00  0.00     0.186 HD
HETATM    9  C17 UNL     1      12.962   1.740 105.672  1.00  0.00     0.144 A 
ENDROOT
BRANCH   6  10
HETATM   10  N6  UNL     1      10.807   4.393 104.432  1.00  0.00    -0.213 N 
HETATM   11  C8  UNL     1      10.137   4.200 103.170  1.00  0.00     0.161 C 
HETATM   12  C9  UNL     1      10.615   5.117 102.097  1.00  0.00     0.143 C 
HETATM   13  N7  UNL     1      11.597   6.099 102.498  1.00  0.00    -0.372 N 
HETATM   14  C15 UNL     1      11.882   6.443 103.857  1.00  0.00     0.143 C 
HETATM   15  C16 UNL     1      10.923   5.798 104.841  1.00  0.00     0.161 C 
BRANCH  13  16
HETATM   16  C10 UNL     1      12.296   6.780 101.428  1.00  0.00     0.120 A 
HETATM   17  C11 UNL     1      13.650   7.000 101.277  1.00  0.00     0.148 A 
HETATM   18  C12 UNL     1      13.789   7.746 100.081  1.00  0.00     0.180 A 
HETATM   19  N8  UNL     1      12.610   7.971  99.530  1.00  0.00    -0.309 N 
HETATM   20  C13 UNL     1      12.347   8.709  98.284  1.00  0.00     0.161 C 
HETATM   21  C14 UNL     1      11.703   7.395 100.331  1.00  0.00     0.174 A 
BRANCH  17  22
HETATM   22  O2  UNL     1      14.697   6.618 102.058  1.00  0.00    -0.355 OA
ATOM     23  H2  UNL     1      15.532   7.042 102.217  1.00  0.00     0.218 HD
ENDBRANCH  17  22
BRANCH  18  24
HETATM   24  O3  UNL     1      15.015   8.153  99.609  1.00  0.00    -0.344 OA
ATOM     25  H3  UNL     1      15.700   7.536  99.380  1.00  0.00     0.219 HD
ENDBRANCH  18  24
BRANCH  21  26
HETATM   26  O4  UNL     1      10.334   7.443 100.039  1.00  0.00    -0.344 OA
ATOM     27  H4  UNL     1       9.791   6.719  99.749  1.00  0.00     0.219 HD
ENDBRANCH  21  26
ENDBRANCH  13  16
ENDBRANCH   6  10
BRANCH   9  28
HETATM   28  N10 UNL     1      14.076   1.152 105.446  1.00  0.00    -0.383 N 
ATOM     29 2H10 UNL     1      14.992   1.551 105.653  1.00  0.00     0.157 HD
ATOM     30 1H10 UNL     1      14.033   0.220 105.031  1.00  0.00     0.157 HD
ENDBRANCH   9  28
BRANCH   1  31
HETATM   31  C5  UNL     1      12.668   0.207 107.593  1.00  0.00     0.142 C 
HETATM   32  N3  UNL     1      12.211  -0.061 108.728  1.00  0.00    -0.307 N 
ATOM     33  H3  UNL     1      12.644  -0.863 109.186  1.00  0.00     0.186 HD
BRANCH  32  34
HETATM   34  N2  UNL     1      11.215   0.557 109.458  1.00  0.00    -0.269 N 
HETATM   35  C4  UNL     1      11.521   1.181 110.693  1.00  0.00     0.253 C 
HETATM   36  O1  UNL     1      12.763   1.126 111.037  1.00  0.00    -0.270 OA
ATOM     37  H2  UNL     1      10.257   0.564 109.108  1.00  0.00     0.190 HD
BRANCH  35  38
HETATM   38  C3  UNL     1      10.572   1.856 111.581  1.00  0.00     0.220 C 
BRANCH  38  39
HETATM   39  N1  UNL     1       9.389   2.342 110.974  1.00  0.00    -0.413 N 
HETATM   40  C1  UNL     1       8.217   1.659 111.355  1.00  0.00     0.143 C 
HETATM   41  C2  UNL     1       9.348   3.758 110.905  1.00  0.00     0.143 C 
ENDBRANCH  38  39
ENDBRANCH  35  38
ENDBRANCH  32  34
ENDBRANCH   1  31
TORSDOF 10
ENDMDL
MODEL 4
REMARK VINA RESULT: -6.840783749      1.853      2.383
REMARK  10 active torsions:
REMARK  status: ('A' for Active; 'I' for Inactive)
REMARK    1  A    between atoms: N1_2  and  C3_4 
REMARK    2  A    between atoms: C3_4  and  C4_5 
REMARK       I    between atoms: C4_5  and  N2_7 
REMARK    3  A    between atoms: N2_7  and  N3_9 
REMARK    4  A    between atoms: C5_11  and  C6_12 
REMARK    5  A    between atoms: C7_17  and  N6_18 
REMARK    6  A    between atoms: N7_21  and  C10_22 
REMARK    7  A    between atoms: C11_23  and  O2_24 
REMARK    8  A    between atoms: C12_26  and  O3_27 
REMARK    9  A    between atoms: C14_31  and  O4_32 
REMARK   10  A    between atoms: C17_38  and  N10_39 
ROOT
HETATM    1  C6  UNL     1       8.512   5.874 106.047  1.00  0.00     0.109 A 
HETATM    2  N4  UNL     1       9.287   6.953 106.033  1.00  0.00    -0.281 N 
ATOM      3  H4  UNL     1       9.626   7.333 106.916  1.00  0.00     0.187 HD
HETATM    4  N5  UNL     1       9.631   7.549 104.901  1.00  0.00    -0.131 N 
ATOM      5  H5  UNL     1      10.227   8.376 104.932  1.00  0.00     0.205 HD
HETATM    6  C7  UNL     1       9.213   7.088 103.724  1.00  0.00     0.696 A 
HETATM    7  N9  UNL     1       8.432   6.004 103.710  1.00  0.00    -0.173 N 
ATOM      8  H9  UNL     1       8.105   5.643 102.814  1.00  0.00     0.186 HD
HETATM    9  C17 UNL     1       8.063   5.377 104.834  1.00  0.00     0.144 A 
ENDROOT
BRANCH   6  10
HETATM   10  N6  UNL     1       9.590   7.739 102.531  1.00  0.00    -0.213 N 
HETATM   11  C8  UNL     1       9.359   7.187 101.220  1.00  0.00     0.161 C 
HETATM   12  C9  UNL     1      10.546   7.274 100.321  1.00  0.00     0.143 C 
HETATM   13  N7  UNL     1      11.697   7.961 100.861  1.00  0.00    -0.372 N 
HETATM   14  C15 UNL     1      11.662   8.805 102.016  1.00  0.00     0.143 C 
HETATM   15  C16 UNL     1      10.252   9.049 102.523  1.00  0.00     0.161 C 
BRANCH  13  16
HETATM   16  C10 UNL     1      12.942   7.786 100.143  1.00  0.00     0.120 A 
HETATM   17  C11 UNL     1      14.162   7.347 100.615  1.00  0.00     0.148 A 
HETATM   18  C12 UNL     1      15.046   7.402  99.511  1.00  0.00     0.180 A 
HETATM   19  N8  UNL     1      14.422   7.841  98.433  1.00  0.00    -0.309 N 
HETATM   20  C13 UNL     1      15.005   8.034  97.095  1.00  0.00     0.161 C 
HETATM   21  C14 UNL     1      13.155   8.076  98.800  1.00  0.00     0.174 A 
BRANCH  17  22
HETATM   22  O2  UNL     1      14.528   6.930 101.858  1.00  0.00    -0.355 OA
ATOM     23  H2  UNL     1      15.366   6.978 102.301  1.00  0.00     0.218 HD
ENDBRANCH  17  22
BRANCH  18  24
HETATM   24  O3  UNL     1      16.368   7.035  99.609  1.00  0.00    -0.344 OA
ATOM     25  H3  UNL     1      16.634   6.138  99.771  1.00  0.00     0.219 HD
ENDBRANCH  18  24
BRANCH  21  26
HETATM   26  O4  UNL     1      12.206   8.556  97.888  1.00  0.00    -0.344 OA
ATOM     27  H4  UNL     1      11.969   8.161  97.057  1.00  0.00     0.219 HD
ENDBRANCH  21  26
ENDBRANCH  13  16
ENDBRANCH   6  10
BRANCH   9  28
HETATM   28  N10 UNL     1       7.317   4.337 104.872  1.00  0.00    -0.383 N 
ATOM     29 2H10 UNL     1       6.525   4.172 104.250  1.00  0.00     0.157 HD
ATOM     30 1H10 UNL     1       7.539   3.632 105.576  1.00  0.00     0.157 HD
ENDBRANCH   9  28
BRANCH   1  31
HETATM   31  C5  UNL     1       8.162   5.259 107.304  1.00  0.00     0.142 C 
HETATM   32  N3  UNL     1       8.866   4.426 107.920  1.00  0.00    -0.307 N 
ATOM     33  H3  UNL     1       8.467   4.092 108.798  1.00  0.00     0.186 HD
BRANCH  32  34
HETATM   34  N2  UNL     1      10.097   3.887 107.601  1.00  0.00    -0.269 N 
HETATM   35  C4  UNL     1      10.176   2.726 106.792  1.00  0.00     0.253 C 
HETATM   36  O1  UNL     1       9.040   2.259 106.397  1.00  0.00    -0.270 OA
ATOM     37  H2  UNL     1      10.950   4.325 107.947  1.00  0.00     0.190 HD
BRANCH  35  38
HETATM   38  C3  UNL     1      11.402   2.035 106.388  1.00  0.00     0.220 C 
BRANCH  38  39
HETATM   39  N1  UNL     1      12.219   2.713 105.452  1.00  0.00    -0.413 N 
HETATM   40  C1  UNL     1      13.375   2.003 105.067  1.00  0.00     0.143 C 
HETATM   41  C2  UNL     1      11.472   3.373 104.444  1.00  0.00     0.143 C 
ENDBRANCH  38  39
ENDBRANCH  35  38
ENDBRANCH  32  34
ENDBRANCH   1  31
TORSDOF 10
ENDMDL
MODEL 5
REMARK VINA RESULT: -6.786030917      2.893      3.893
REMARK  10 active torsions:
REMARK  status: ('A' for Active; 'I' for Inactive)
REMARK    1  A    between atoms: N1_2  and  C3_4 
REMARK    2  A    between atoms: C3_4  and  C4_5 
REMARK       I    between atoms: C4_5  and  N2_7 
REMARK    3  A    between atoms: N2_7  and  N3_9 
REMARK    4  A    between atoms: C5_11  and  C6_12 
REMARK    5  A    between atoms: C7_17  and  N6_18 
REMARK    6  A    between atoms: N7_21  and  C10_22 
REMARK    7  A    between atoms: C11_23  and  O2_24 
REMARK    8  A    between atoms: C12_26  and  O3_27 
REMARK    9  A    between atoms: C14_31  and  O4_32 
REMARK   10  A    between atoms: C17_38  and  N10_39 
ROOT
HETATM    1  C6  UNL     1       9.471   5.805 107.172  1.00  0.00     0.109 A 
HETATM    2  N4  UNL     1       8.991   6.990 106.810  1.00  0.00    -0.281 N 
ATOM      3  H4  UNL     1       8.522   7.570 107.506  1.00  0.00     0.187 HD
HETATM    4  N5  UNL     1       9.106   7.438 105.569  1.00  0.00    -0.131 N 
ATOM      5  H5  UNL     1       8.723   8.353 105.330  1.00  0.00     0.205 HD
HETATM    6  C7  UNL     1       9.710   6.716 104.628  1.00  0.00     0.696 A 
HETATM    7  N9  UNL     1      10.201   5.521 104.966  1.00  0.00    -0.173 N 
ATOM      8  H9  UNL     1      10.666   4.958 104.253  1.00  0.00     0.186 HD
HETATM    9  C17 UNL     1      10.103   5.035 106.209  1.00  0.00     0.144 A 
ENDROOT
BRANCH   6  10
HETATM   10  N6  UNL     1       9.820   7.212 103.312  1.00  0.00    -0.213 N 
HETATM   11  C8  UNL     1       9.601   6.404 102.139  1.00  0.00     0.161 C 
HETATM   12  C9  UNL     1      10.650   6.577 101.094  1.00  0.00     0.143 C 
HETATM   13  N7  UNL     1      11.660   7.574 101.373  1.00  0.00    -0.372 N 
HETATM   14  C15 UNL     1      11.539   8.580 102.382  1.00  0.00     0.143 C 
HETATM   15  C16 UNL     1      10.163   8.610 103.023  1.00  0.00     0.161 C 
BRANCH  13  16
HETATM   16  C10 UNL     1      12.841   7.539 100.537  1.00  0.00     0.120 A 
HETATM   17  C11 UNL     1      14.130   7.173 100.869  1.00  0.00     0.148 A 
HETATM   18  C12 UNL     1      14.900   7.361  99.696  1.00  0.00     0.180 A 
HETATM   19  N8  UNL     1      14.146   7.810  98.709  1.00  0.00    -0.309 N 
HETATM   20  C13 UNL     1      14.584   8.125  97.339  1.00  0.00     0.161 C 
HETATM   21  C14 UNL     1      12.905   7.921  99.201  1.00  0.00     0.174 A 
BRANCH  17  22
HETATM   22  O2  UNL     1      14.640   6.716 102.045  1.00  0.00    -0.355 OA
ATOM     23  H2  UNL     1      14.802   5.828 102.342  1.00  0.00     0.218 HD
ENDBRANCH  17  22
BRANCH  18  24
HETATM   24  O3  UNL     1      16.248   7.095  99.652  1.00  0.00    -0.344 OA
ATOM     25  H3  UNL     1      16.640   6.382 100.142  1.00  0.00     0.219 HD
ENDBRANCH  18  24
BRANCH  21  26
HETATM   26  O4  UNL     1      11.841   8.376  98.411  1.00  0.00    -0.344 OA
ATOM     27  H4  UNL     1      10.950   8.046  98.417  1.00  0.00     0.219 HD
ENDBRANCH  21  26
ENDBRANCH  13  16
ENDBRANCH   6  10
BRANCH   9  28
HETATM   28  N10 UNL     1      10.556   3.897 106.581  1.00  0.00    -0.383 N 
ATOM     29 2H10 UNL     1       9.991   3.052 106.670  1.00  0.00     0.157 HD
ATOM     30 1H10 UNL     1      11.551   3.842 106.799  1.00  0.00     0.157 HD
ENDBRANCH   9  28
BRANCH   1  31
HETATM   31  C5  UNL     1       9.321   5.357 108.536  1.00  0.00     0.142 C 
HETATM   32  N3  UNL     1       8.374   4.659 108.965  1.00  0.00    -0.307 N 
ATOM     33  H3  UNL     1       8.424   4.431 109.958  1.00  0.00     0.186 HD
BRANCH  32  34
HETATM   34  N2  UNL     1       7.271   4.147 108.308  1.00  0.00    -0.269 N 
HETATM   35  C4  UNL     1       7.297   2.824 107.802  1.00  0.00     0.253 C 
HETATM   36  O1  UNL     1       8.392   2.178 108.020  1.00  0.00    -0.270 OA
ATOM     37  H2  UNL     1       6.439   4.723 108.187  1.00  0.00     0.190 HD
BRANCH  35  38
HETATM   38  C3  UNL     1       6.217   2.156 107.072  1.00  0.00     0.220 C 
BRANCH  38  39
HETATM   39  N1  UNL     1       5.920   2.673 105.788  1.00  0.00    -0.413 N 
HETATM   40  C1  UNL     1       4.999   3.739 105.790  1.00  0.00     0.143 C 
HETATM   41  C2  UNL     1       7.065   2.777 104.958  1.00  0.00     0.143 C 
ENDBRANCH  38  39
ENDBRANCH  35  38
ENDBRANCH  32  34
ENDBRANCH   1  31
TORSDOF 10
ENDMDL
