MODEL 1
REMARK VINA RESULT: -6.372718525      0.000      0.000
REMARK  1 active torsions:
REMARK  status: ('A' for Active; 'I' for Inactive)
REMARK    1  A    between atoms: C9_11  and  O2_12 
ROOT
HETATM    1  C1  UNL     1      15.420   5.462  14.183  1.00  0.00     0.046 C 
HETATM    2  C2  UNL     1      16.440   5.245  13.056  1.00  0.00     0.175 C 
HETATM    3  C3  UNL     1      15.956   4.104  12.243  1.00  0.00     0.278 C 
HETATM    4  N1  UNL     1      16.892   3.483  11.392  1.00  0.00     0.040 N 
HETATM    5  O1  UNL     1      16.793   3.883  10.094  1.00  0.00    -0.060 OA
HETATM    6  C4  UNL     1      16.617   2.044  11.379  1.00  0.00     0.318 C 
HETATM    7  C5  UNL     1      17.913   1.359  11.072  1.00  0.00     0.039 C 
HETATM    8  C6  UNL     1      18.885   2.513  10.843  1.00  0.00     0.045 C 
HETATM    9  C7  UNL     1      18.258   3.563  11.771  1.00  0.00     0.265 C 
HETATM   10  C8  UNL     1      18.872   4.912  11.587  1.00  0.00     0.103 C 
HETATM   11  C9  UNL     1      18.614   5.725  12.835  1.00  0.00     0.260 C 
HETATM   12  O3  UNL     1      17.661   5.083  13.647  1.00  0.00    -0.351 OA
ENDROOT
BRANCH  11  13
HETATM   13  O2  UNL     1      19.751   5.926  13.591  1.00  0.00    -0.371 OA
ATOM     14  H2  UNL     1      20.269   5.137  13.697  1.00  0.00     0.212 HD
ENDBRANCH  11  13
TORSDOF 1
ENDMDL
MODEL 2
REMARK VINA RESULT: -5.817889689      1.128      1.360
REMARK  1 active torsions:
REMARK  status: ('A' for Active; 'I' for Inactive)
REMARK    1  A    between atoms: C9_11  and  O2_12 
ROOT
HETATM    1  C1  UNL     1      17.320   6.745  13.572  1.00  0.00     0.046 C 
HETATM    2  C2  UNL     1      17.805   5.859  12.416  1.00  0.00     0.175 C 
HETATM    3  C3  UNL     1      16.738   4.863  12.153  1.00  0.00     0.278 C 
HETATM    4  N1  UNL     1      17.099   3.723  11.405  1.00  0.00     0.040 N 
HETATM    5  O1  UNL     1      16.743   3.803  10.093  1.00  0.00    -0.060 OA
HETATM    6  C4  UNL     1      16.365   2.574  11.940  1.00  0.00     0.318 C 
HETATM    7  C5  UNL     1      17.192   1.360  11.646  1.00  0.00     0.039 C 
HETATM    8  C6  UNL     1      18.374   1.912  10.854  1.00  0.00     0.045 C 
HETATM    9  C7  UNL     1      18.458   3.317  11.467  1.00  0.00     0.265 C 
HETATM   10  C8  UNL     1      19.400   4.200  10.717  1.00  0.00     0.103 C 
HETATM   11  C9  UNL     1      19.831   5.322  11.634  1.00  0.00     0.260 C 
HETATM   12  O3  UNL     1      19.019   5.351  12.782  1.00  0.00    -0.351 OA
ENDROOT
BRANCH  11  13
HETATM   13  O2  UNL     1      21.144   5.208  12.044  1.00  0.00    -0.371 OA
ATOM     14  H2  UNL     1      21.706   5.881  11.678  1.00  0.00     0.212 HD
ENDBRANCH  11  13
TORSDOF 1
ENDMDL
MODEL 3
REMARK VINA RESULT: -5.766544234      2.937      4.435
REMARK  1 active torsions:
REMARK  status: ('A' for Active; 'I' for Inactive)
REMARK    1  A    between atoms: C9_11  and  O2_12 
ROOT
HETATM    1  C1  UNL     1      14.021   6.096  17.228  1.00  0.00     0.046 C 
HETATM    2  C2  UNL     1      15.083   5.167  16.624  1.00  0.00     0.175 C 
HETATM    3  C3  UNL     1      15.525   5.781  15.348  1.00  0.00     0.278 C 
HETATM    4  N1  UNL     1      16.207   4.946  14.440  1.00  0.00     0.040 N 
HETATM    5  O1  UNL     1      17.560   5.099  14.475  1.00  0.00    -0.060 OA
HETATM    6  C4  UNL     1      15.806   5.323  13.082  1.00  0.00     0.318 C 
HETATM    7  C5  UNL     1      15.963   4.101  12.231  1.00  0.00     0.039 C 
HETATM    8  C6  UNL     1      16.545   3.065  13.190  1.00  0.00     0.045 C 
HETATM    9  C7  UNL     1      15.921   3.557  14.504  1.00  0.00     0.265 C 
HETATM   10  C8  UNL     1      16.500   2.862  15.693  1.00  0.00     0.103 C 
HETATM   11  C9  UNL     1      15.519   2.983  16.837  1.00  0.00     0.260 C 
HETATM   12  O3  UNL     1      14.522   3.925  16.526  1.00  0.00    -0.351 OA
ENDROOT
BRANCH  11  13
HETATM   13  O2  UNL     1      14.896   1.789  17.140  1.00  0.00    -0.371 OA
ATOM     14  H2  UNL     1      15.380   1.031  16.834  1.00  0.00     0.212 HD
ENDBRANCH  11  13
TORSDOF 1
ENDMDL
MODEL 4
REMARK VINA RESULT: -5.616326646      1.611      4.069
REMARK  1 active torsions:
REMARK  status: ('A' for Active; 'I' for Inactive)
REMARK    1  A    between atoms: C9_11  and  O2_12 
ROOT
HETATM    1  C1  UNL     1      16.220   2.286  10.974  1.00  0.00     0.046 C 
HETATM    2  C2  UNL     1      16.819   3.597  11.501  1.00  0.00     0.175 C 
HETATM    3  C3  UNL     1      16.347   3.762  12.897  1.00  0.00     0.278 C 
HETATM    4  N1  UNL     1      16.452   5.051  13.459  1.00  0.00     0.040 N 
HETATM    5  O1  UNL     1      17.535   5.201  14.271  1.00  0.00    -0.060 OA
HETATM    6  C4  UNL     1      15.287   5.272  14.319  1.00  0.00     0.318 C 
HETATM    7  C5  UNL     1      15.051   6.750  14.354  1.00  0.00     0.039 C 
HETATM    8  C6  UNL     1      16.201   7.319  13.529  1.00  0.00     0.045 C 
HETATM    9  C7  UNL     1      16.423   6.149  12.560  1.00  0.00     0.265 C 
HETATM   10  C8  UNL     1      17.667   6.318  11.752  1.00  0.00     0.103 C 
HETATM   11  C9  UNL     1      17.546   5.466  10.509  1.00  0.00     0.260 C 
HETATM   12  O3  UNL     1      16.457   4.583  10.628  1.00  0.00    -0.351 OA
ENDROOT
BRANCH  11  13
HETATM   13  O2  UNL     1      17.366   6.211   9.361  1.00  0.00    -0.371 OA
ATOM     14  H2  UNL     1      16.531   6.045   8.939  1.00  0.00     0.212 HD
ENDBRANCH  11  13
TORSDOF 1
ENDMDL
MODEL 5
REMARK VINA RESULT: -5.582254623      3.761      6.116
REMARK  1 active torsions:
REMARK  status: ('A' for Active; 'I' for Inactive)
REMARK    1  A    between atoms: C9_11  and  O2_12 
ROOT
HETATM    1  C1  UNL     1      16.304   5.380  13.462  1.00  0.00     0.046 C 
HETATM    2  C2  UNL     1      15.635   4.554  14.569  1.00  0.00     0.175 C 
HETATM    3  C3  UNL     1      14.726   5.465  15.305  1.00  0.00     0.278 C 
HETATM    4  N1  UNL     1      14.292   5.043  16.578  1.00  0.00     0.040 N 
HETATM    5  O1  UNL     1      13.039   4.507  16.572  1.00  0.00    -0.060 OA
HETATM    6  C4  UNL     1      14.210   6.218  17.447  1.00  0.00     0.318 C 
HETATM    7  C5  UNL     1      14.415   5.733  18.850  1.00  0.00     0.039 C 
HETATM    8  C6  UNL     1      14.534   4.220  18.694  1.00  0.00     0.045 C 
HETATM    9  C7  UNL     1      15.144   4.155  17.287  1.00  0.00     0.265 C 
HETATM   10  C8  UNL     1      15.168   2.762  16.750  1.00  0.00     0.103 C 
HETATM   11  C9  UNL     1      16.216   2.691  15.663  1.00  0.00     0.260 C 
HETATM   12  O3  UNL     1      16.636   3.984  15.304  1.00  0.00    -0.351 OA
ENDROOT
BRANCH  11  13
HETATM   13  O2  UNL     1      17.332   1.970  16.037  1.00  0.00    -0.371 OA
ATOM     14  H2  UNL     1      17.380   1.117  15.621  1.00  0.00     0.212 HD
ENDBRANCH  11  13
TORSDOF 1
ENDMDL
