MODEL 1
REMARK VINA RESULT: -5.594772807      0.000      0.000
REMARK  1 active torsions:
REMARK  status: ('A' for Active; 'I' for Inactive)
REMARK    1  A    between atoms: O1_1  and  C1_3 
ROOT
HETATM    1  C1  UNL     1      16.646   1.683  11.250  1.00  0.00     0.141 C 
HETATM    2  C2  UNL     1      17.989   1.493  10.622  1.00  0.00     0.049 C 
HETATM    3  C3  UNL     1      18.852   2.589  11.148  1.00  0.00     0.111 C 
HETATM    4  N1  UNL     1      18.103   3.368  12.078  1.00  0.00    -0.239 NA
HETATM    5  C4  UNL     1      16.875   2.623  12.374  1.00  0.00     0.132 C 
HETATM    6  C5  UNL     1      16.138   3.949  12.117  1.00  0.00     0.157 C 
HETATM    7  S1  UNL     1      15.859   4.787  13.658  1.00  0.00    -0.146 SA
HETATM    8  C6  UNL     1      16.972   6.172  13.779  1.00  0.00     0.077 C 
HETATM    9  C7  UNL     1      17.610   6.604  12.503  1.00  0.00     0.026 C 
HETATM   10  C8  UNL     1      17.732   5.653  11.405  1.00  0.00     0.110 C 
HETATM   11  N2  UNL     1      17.319   4.331  11.526  1.00  0.00    -0.233 NA
ENDROOT
BRANCH   1  12
HETATM   12  O1  UNL     1      15.756   2.184  10.291  1.00  0.00    -0.394 OA
ATOM     13  H1  UNL     1      15.080   2.689  10.726  1.00  0.00     0.210 HD
ENDBRANCH   1  12
TORSDOF 1
ENDMDL
MODEL 2
REMARK VINA RESULT: -5.456151616      2.945      3.744
REMARK  1 active torsions:
REMARK  status: ('A' for Active; 'I' for Inactive)
REMARK    1  A    between atoms: O1_1  and  C1_3 
ROOT
HETATM    1  C1  UNL     1      17.370   4.917  12.357  1.00  0.00     0.141 C 
HETATM    2  C2  UNL     1      17.557   3.529  11.836  1.00  0.00     0.049 C 
HETATM    3  C3  UNL     1      16.656   2.657  12.646  1.00  0.00     0.111 C 
HETATM    4  N1  UNL     1      15.925   3.466  13.564  1.00  0.00    -0.239 NA
HETATM    5  C4  UNL     1      16.127   4.863  13.164  1.00  0.00     0.132 C 
HETATM    6  C5  UNL     1      16.443   5.129  14.646  1.00  0.00     0.157 C 
HETATM    7  S1  UNL     1      14.982   5.702  15.477  1.00  0.00    -0.146 SA
HETATM    8  C6  UNL     1      14.348   4.397  16.511  1.00  0.00     0.077 C 
HETATM    9  C7  UNL     1      15.293   3.282  16.799  1.00  0.00     0.026 C 
HETATM   10  C8  UNL     1      16.402   3.029  15.886  1.00  0.00     0.110 C 
HETATM   11  N2  UNL     1      16.578   3.762  14.719  1.00  0.00    -0.233 NA
ENDROOT
BRANCH   1  12
HETATM   12  O1  UNL     1      18.495   5.282  13.109  1.00  0.00    -0.394 OA
ATOM     13  H1  UNL     1      18.227   5.873  13.803  1.00  0.00     0.210 HD
ENDBRANCH   1  12
TORSDOF 1
ENDMDL
MODEL 3
REMARK VINA RESULT: -5.409147269      2.231      2.981
REMARK  1 active torsions:
REMARK  status: ('A' for Active; 'I' for Inactive)
REMARK    1  A    between atoms: O1_1  and  C1_3 
ROOT
HETATM    1  C1  UNL     1      18.126   4.288  11.460  1.00  0.00     0.141 C 
HETATM    2  C2  UNL     1      17.782   2.835  11.401  1.00  0.00     0.049 C 
HETATM    3  C3  UNL     1      16.536   2.669  12.203  1.00  0.00     0.111 C 
HETATM    4  N1  UNL     1      16.113   3.945  12.678  1.00  0.00    -0.239 NA
HETATM    5  C4  UNL     1      16.898   4.955  11.959  1.00  0.00     0.132 C 
HETATM    6  C5  UNL     1      17.157   5.580  13.341  1.00  0.00     0.157 C 
HETATM    7  S1  UNL     1      15.982   6.878  13.640  1.00  0.00    -0.146 SA
HETATM    8  C6  UNL     1      14.782   6.318  14.831  1.00  0.00     0.077 C 
HETATM    9  C7  UNL     1      15.165   5.110  15.617  1.00  0.00     0.026 C 
HETATM   10  C8  UNL     1      16.156   4.188  15.076  1.00  0.00     0.110 C 
HETATM   11  N2  UNL     1      16.720   4.367  13.819  1.00  0.00    -0.233 NA
ENDROOT
BRANCH   1  12
HETATM   12  O1  UNL     1      19.227   4.466  12.308  1.00  0.00    -0.394 OA
ATOM     13  H1  UNL     1      19.210   3.802  12.987  1.00  0.00     0.210 HD
ENDBRANCH   1  12
TORSDOF 1
ENDMDL
MODEL 4
REMARK VINA RESULT: -5.382212790      2.575      4.234
REMARK  1 active torsions:
REMARK  status: ('A' for Active; 'I' for Inactive)
REMARK    1  A    between atoms: O1_1  and  C1_3 
ROOT
HETATM    1  C1  UNL     1      15.373   6.034  14.869  1.00  0.00     0.141 C 
HETATM    2  C2  UNL     1      15.085   4.955  15.862  1.00  0.00     0.049 C 
HETATM    3  C3  UNL     1      15.992   3.822  15.519  1.00  0.00     0.111 C 
HETATM    4  N1  UNL     1      16.820   4.202  14.422  1.00  0.00    -0.239 NA
HETATM    5  C4  UNL     1      16.662   5.650  14.243  1.00  0.00     0.132 C 
HETATM    6  C5  UNL     1      16.455   5.333  12.752  1.00  0.00     0.157 C 
HETATM    7  S1  UNL     1      17.993   5.514  11.883  1.00  0.00    -0.146 SA
HETATM    8  C6  UNL     1      18.628   3.900  11.477  1.00  0.00     0.077 C 
HETATM    9  C7  UNL     1      17.650   2.779  11.562  1.00  0.00     0.026 C 
HETATM   10  C8  UNL     1      16.473   2.918  12.412  1.00  0.00     0.110 C 
HETATM   11  N2  UNL     1      16.258   4.046  13.194  1.00  0.00    -0.233 NA
ENDROOT
BRANCH   1  12
HETATM   12  O1  UNL     1      14.318   6.106  13.949  1.00  0.00    -0.394 OA
ATOM     13  H1  UNL     1      14.002   5.229  13.768  1.00  0.00     0.210 HD
ENDBRANCH   1  12
TORSDOF 1
ENDMDL
MODEL 5
REMARK VINA RESULT: -5.192819885      1.166      1.300
REMARK  1 active torsions:
REMARK  status: ('A' for Active; 'I' for Inactive)
REMARK    1  A    between atoms: O1_1  and  C1_3 
ROOT
HETATM    1  C1  UNL     1      16.697   2.167  10.725  1.00  0.00     0.141 C 
HETATM    2  C2  UNL     1      17.967   1.388  10.613  1.00  0.00     0.049 C 
HETATM    3  C3  UNL     1      19.032   2.240  11.218  1.00  0.00     0.111 C 
HETATM    4  N1  UNL     1      18.443   3.439  11.716  1.00  0.00    -0.239 NA
HETATM    5  C4  UNL     1      16.989   3.244  11.702  1.00  0.00     0.132 C 
HETATM    6  C5  UNL     1      16.921   4.619  11.014  1.00  0.00     0.157 C 
HETATM    7  S1  UNL     1      16.620   5.881  12.226  1.00  0.00    -0.146 SA
HETATM    8  C6  UNL     1      18.119   6.805  12.492  1.00  0.00     0.077 C 
HETATM    9  C7  UNL     1      19.171   6.647  11.448  1.00  0.00     0.026 C 
HETATM   10  C8  UNL     1      19.178   5.452  10.612  1.00  0.00     0.110 C 
HETATM   11  N2  UNL     1      18.264   4.421  10.794  1.00  0.00    -0.233 NA
ENDROOT
BRANCH   1  12
HETATM   12  O1  UNL     1      16.344   2.657   9.460  1.00  0.00    -0.394 OA
ATOM     13  H1  UNL     1      15.791   3.422   9.565  1.00  0.00     0.210 HD
ENDBRANCH   1  12
TORSDOF 1
ENDMDL
