MODEL 1
REMARK VINA RESULT: -6.195498593      0.000      0.000
REMARK  3 active torsions:
REMARK  status: ('A' for Active; 'I' for Inactive)
REMARK    1  A    between atoms: O1_1  and  C1_3 
REMARK    2  A    between atoms: C1_3  and  C2_4 
REMARK    3  A    between atoms: C3_5  and  C4_6 
ROOT
HETATM    1  C2  UNL     1      15.976   4.081  13.271  1.00  0.00    -0.038 C 
HETATM    2  C3  UNL     1      15.809   4.312  14.447  1.00  0.00    -0.096 C 
ENDROOT
BRANCH   1   3
HETATM    3  C1  UNL     1      16.162   3.784  11.852  1.00  0.00     0.231 C 
HETATM    4  C9  UNL     1      17.589   3.360  11.569  1.00  0.00     0.109 C 
HETATM    5  C10 UNL     1      17.010   2.066  12.102  1.00  0.00     0.178 C 
HETATM    6  O3  UNL     1      15.782   2.463  11.518  1.00  0.00    -0.345 OA
BRANCH   3   7
HETATM    7  O1  UNL     1      15.675   4.741  10.976  1.00  0.00    -0.355 OA
ATOM      8  H1  UNL     1      15.881   4.597  10.059  1.00  0.00     0.214 HD
ENDBRANCH   3   7
ENDBRANCH   1   3
BRANCH   2   9
HETATM    9  C4  UNL     1      15.589   4.578  15.860  1.00  0.00     0.069 C 
HETATM   10  C5  UNL     1      14.759   5.852  15.968  1.00  0.00     0.043 C 
HETATM   11  C6  UNL     1      14.034   5.861  17.315  1.00  0.00     0.169 C 
HETATM   12  O2  UNL     1      14.828   5.136  18.212  1.00  0.00    -0.391 OA
HETATM   13  C7  UNL     1      14.664   3.766  17.981  1.00  0.00     0.169 C 
HETATM   14  C8  UNL     1      14.813   3.447  16.506  1.00  0.00     0.043 C 
ENDBRANCH   2   9
TORSDOF 3
ENDMDL
MODEL 2
REMARK VINA RESULT: -6.037545901      1.133      1.607
REMARK  3 active torsions:
REMARK  status: ('A' for Active; 'I' for Inactive)
REMARK    1  A    between atoms: O1_1  and  C1_3 
REMARK    2  A    between atoms: C1_3  and  C2_4 
REMARK    3  A    between atoms: C3_5  and  C4_6 
ROOT
HETATM    1  C2  UNL     1      16.354   3.250  13.869  1.00  0.00    -0.038 C 
HETATM    2  C3  UNL     1      16.050   3.693  14.953  1.00  0.00    -0.096 C 
ENDROOT
BRANCH   1   3
HETATM    3  C1  UNL     1      16.730   2.694  12.570  1.00  0.00     0.231 C 
HETATM    4  C9  UNL     1      15.999   3.401  11.446  1.00  0.00     0.109 C 
HETATM    5  C10 UNL     1      17.119   4.384  11.718  1.00  0.00     0.178 C 
HETATM    6  O3  UNL     1      17.918   3.265  12.057  1.00  0.00    -0.345 OA
BRANCH   3   7
HETATM    7  O1  UNL     1      16.694   1.311  12.482  1.00  0.00    -0.355 OA
ATOM      8  H1  UNL     1      16.613   0.961  11.603  1.00  0.00     0.214 HD
ENDBRANCH   3   7
ENDBRANCH   1   3
BRANCH   2   9
HETATM    9  C4  UNL     1      15.685   4.204  16.265  1.00  0.00     0.069 C 
HETATM   10  C5  UNL     1      14.889   5.487  16.057  1.00  0.00     0.043 C 
HETATM   11  C6  UNL     1      14.022   5.740  17.292  1.00  0.00     0.169 C 
HETATM   12  O2  UNL     1      14.690   5.172  18.384  1.00  0.00    -0.391 OA
HETATM   13  C7  UNL     1      14.509   3.785  18.375  1.00  0.00     0.169 C 
HETATM   14  C8  UNL     1      14.807   3.212  17.003  1.00  0.00     0.043 C 
ENDBRANCH   2   9
TORSDOF 3
ENDMDL
MODEL 3
REMARK VINA RESULT: -6.015575765      0.928      1.191
REMARK  3 active torsions:
REMARK  status: ('A' for Active; 'I' for Inactive)
REMARK    1  A    between atoms: O1_1  and  C1_3 
REMARK    2  A    between atoms: C1_3  and  C2_4 
REMARK    3  A    between atoms: C3_5  and  C4_6 
ROOT
HETATM    1  C2  UNL     1      15.995   4.340  13.353  1.00  0.00    -0.038 C 
HETATM    2  C3  UNL     1      15.810   4.482  14.540  1.00  0.00    -0.096 C 
ENDROOT
BRANCH   1   3
HETATM    3  C1  UNL     1      16.195   4.167  11.915  1.00  0.00     0.231 C 
HETATM    4  C9  UNL     1      16.833   5.398  11.303  1.00  0.00     0.109 C 
HETATM    5  C10 UNL     1      18.049   4.711  11.889  1.00  0.00     0.178 C 
HETATM    6  O3  UNL     1      17.397   3.486  11.611  1.00  0.00    -0.345 OA
BRANCH   3   7
HETATM    7  O1  UNL     1      15.096   3.696  11.215  1.00  0.00    -0.355 OA
ATOM      8  H1  UNL     1      14.257   3.809  11.649  1.00  0.00     0.214 HD
ENDBRANCH   3   7
ENDBRANCH   1   3
BRANCH   2   9
HETATM    9  C4  UNL     1      15.565   4.661  15.963  1.00  0.00     0.069 C 
HETATM   10  C5  UNL     1      14.718   5.915  16.134  1.00  0.00     0.043 C 
HETATM   11  C6  UNL     1      13.974   5.834  17.468  1.00  0.00     0.169 C 
HETATM   12  O2  UNL     1      14.764   5.066  18.332  1.00  0.00    -0.391 OA
HETATM   13  C7  UNL     1      14.621   3.711  18.016  1.00  0.00     0.169 C 
HETATM   14  C8  UNL     1      14.794   3.483  16.527  1.00  0.00     0.043 C 
ENDBRANCH   2   9
TORSDOF 3
ENDMDL
MODEL 4
REMARK VINA RESULT: -5.803103633      2.655      5.174
REMARK  3 active torsions:
REMARK  status: ('A' for Active; 'I' for Inactive)
REMARK    1  A    between atoms: O1_1  and  C1_3 
REMARK    2  A    between atoms: C1_3  and  C2_4 
REMARK    3  A    between atoms: C3_5  and  C4_6 
ROOT
HETATM    1  C2  UNL     1      15.662   4.287  15.502  1.00  0.00    -0.038 C 
HETATM    2  C3  UNL     1      15.664   5.175  14.680  1.00  0.00    -0.096 C 
ENDROOT
BRANCH   1   3
HETATM    3  C1  UNL     1      15.679   3.206  16.485  1.00  0.00     0.231 C 
HETATM    4  C9  UNL     1      15.179   3.689  17.832  1.00  0.00     0.109 C 
HETATM    5  C10 UNL     1      13.869   3.454  17.111  1.00  0.00     0.178 C 
HETATM    6  O3  UNL     1      14.519   2.398  16.428  1.00  0.00    -0.345 OA
BRANCH   3   7
HETATM    7  O1  UNL     1      16.859   2.481  16.550  1.00  0.00    -0.355 OA
ATOM      8  H1  UNL     1      16.798   1.641  16.991  1.00  0.00     0.214 HD
ENDBRANCH   3   7
ENDBRANCH   1   3
BRANCH   2   9
HETATM    9  C4  UNL     1      15.690   6.240  13.689  1.00  0.00     0.069 C 
HETATM   10  C5  UNL     1      16.306   7.469  14.346  1.00  0.00     0.043 C 
HETATM   11  C6  UNL     1      16.873   8.383  13.258  1.00  0.00     0.169 C 
HETATM   12  O2  UNL     1      16.103   8.175  12.106  1.00  0.00    -0.391 OA
HETATM   13  C7  UNL     1      16.491   6.979  11.493  1.00  0.00     0.169 C 
HETATM   14  C8  UNL     1      16.551   5.850  12.503  1.00  0.00     0.043 C 
ENDBRANCH   2   9
TORSDOF 3
ENDMDL
MODEL 5
REMARK VINA RESULT: -5.739090343      1.433      5.536
REMARK  3 active torsions:
REMARK  status: ('A' for Active; 'I' for Inactive)
REMARK    1  A    between atoms: O1_1  and  C1_3 
REMARK    2  A    between atoms: C1_3  and  C2_4 
REMARK    3  A    between atoms: C3_5  and  C4_6 
ROOT
HETATM    1  C2  UNL     1      15.173   4.671  15.845  1.00  0.00    -0.038 C 
HETATM    2  C3  UNL     1      15.580   4.840  14.719  1.00  0.00    -0.096 C 
ENDROOT
BRANCH   1   3
HETATM    3  C1  UNL     1      14.659   4.476  17.200  1.00  0.00     0.231 C 
HETATM    4  C9  UNL     1      13.592   3.399  17.226  1.00  0.00     0.109 C 
HETATM    5  C10 UNL     1      14.848   2.553  17.226  1.00  0.00     0.178 C 
HETATM    6  O3  UNL     1      15.460   3.595  17.964  1.00  0.00    -0.345 OA
BRANCH   3   7
HETATM    7  O1  UNL     1      14.306   5.634  17.874  1.00  0.00    -0.355 OA
ATOM      8  H1  UNL     1      14.623   5.698  18.768  1.00  0.00     0.214 HD
ENDBRANCH   3   7
ENDBRANCH   1   3
BRANCH   2   9
HETATM    9  C4  UNL     1      16.047   5.044  13.356  1.00  0.00     0.069 C 
HETATM   10  C5  UNL     1      17.389   5.764  13.429  1.00  0.00     0.043 C 
HETATM   11  C6  UNL     1      18.167   5.496  12.141  1.00  0.00     0.169 C 
HETATM   12  O2  UNL     1      17.223   5.294  11.126  1.00  0.00    -0.391 OA
HETATM   13  C7  UNL     1      16.691   4.004  11.232  1.00  0.00     0.169 C 
HETATM   14  C8  UNL     1      16.255   3.716  12.655  1.00  0.00     0.043 C 
ENDBRANCH   2   9
TORSDOF 3
ENDMDL
