MODEL 1
REMARK VINA RESULT: -9.452314884      0.000      0.000
REMARK  17 active torsions:
REMARK  status: ('A' for Active; 'I' for Inactive)
REMARK    1  A    between atoms: C2_2  and  N1_5 
REMARK    2  A    between atoms: N1_5  and  C5_6 
REMARK    3  A    between atoms: N1_5  and  S1_12 
REMARK    4  A    between atoms: S1_12  and  C11_15 
REMARK    5  A    between atoms: C11_15  and  C12_16 
REMARK       I    between atoms: C12_16  and  N2_18 
REMARK    6  A    between atoms: N2_18  and  C13_20 
REMARK    7  A    between atoms: C13_20  and  C14_21 
REMARK    8  A    between atoms: C13_20  and  C16_25 
REMARK    9  A    between atoms: C14_21  and  C15_22 
REMARK       I    between atoms: C16_25  and  N3_27 
REMARK   10  A    between atoms: N3_27  and  C17_29 
REMARK   11  A    between atoms: C17_29  and  C18_30 
REMARK   12  A    between atoms: C17_29  and  C25_37 
REMARK   13  A    between atoms: C18_30  and  C19_31 
REMARK   14  A    between atoms: C25_37  and  C26_39 
REMARK   15  A    between atoms: C26_39  and  O8_40 
REMARK   16  A    between atoms: C26_39  and  C27_42 
REMARK   17  A    between atoms: C27_42  and  C28_43 
ROOT
HETATM    1  C13 UNL     1      18.144  -4.620  14.298  1.00  0.00     0.186 C 
ENDROOT
BRANCH   1   2
HETATM    2  N2  UNL     1      18.893  -5.837  14.448  1.00  0.00    -0.346 N 
HETATM    3  C12 UNL     1      20.300  -5.866  14.177  1.00  0.00     0.234 C 
HETATM    4  O3  UNL     1      20.818  -4.762  13.796  1.00  0.00    -0.272 OA
ATOM      5  H2  UNL     1      18.420  -6.688  14.750  1.00  0.00     0.163 HD
BRANCH   3   6
HETATM    6  C11 UNL     1      21.153  -7.067  14.313  1.00  0.00     0.265 C 
BRANCH   6   7
HETATM    7  S1  UNL     1      20.794  -8.320  13.121  1.00  0.00     0.238 S 
HETATM    8  O1  UNL     1      20.121  -7.676  11.946  1.00  0.00    -0.205 OA
HETATM    9  O2  UNL     1      22.174  -8.785  12.657  1.00  0.00    -0.205 OA
BRANCH   7  10
HETATM   10  N1  UNL     1      19.913  -9.626  13.791  1.00  0.00    -0.297 N 
BRANCH  10  11
HETATM   11  C2  UNL     1      20.661 -10.545  14.520  1.00  0.00     0.032 C 
HETATM   12  C1  UNL     1      19.752 -11.588  15.152  1.00  0.00     0.038 C 
HETATM   13  C3  UNL     1      21.607 -11.403  13.661  1.00  0.00     0.038 C 
HETATM   14  C4  UNL     1      21.437  -9.949  15.700  1.00  0.00     0.038 C 
ENDBRANCH  10  11
BRANCH  10  15
HETATM   15  C5  UNL     1      18.713  -9.920  13.158  1.00  0.00     0.101 C 
HETATM   16  C6  UNL     1      18.757 -10.338  11.722  1.00  0.00     0.027 C 
HETATM   17  C7  UNL     1      17.266 -10.643  11.471  1.00  0.00     0.007 C 
HETATM   18  C8  UNL     1      16.669  -9.351  12.007  1.00  0.00    -0.008 A 
HETATM   19  C9  UNL     1      16.144  -9.460  13.369  1.00  0.00     0.012 A 
HETATM   20  C10 UNL     1      17.602  -8.934  13.181  1.00  0.00     0.013 A 
ENDBRANCH  10  15
ENDBRANCH   7  10
ENDBRANCH   6   7
ENDBRANCH   3   6
ENDBRANCH   1   2
BRANCH   1  21
HETATM   21  C14 UNL     1      16.749  -4.906  13.866  1.00  0.00     0.148 C 
BRANCH  21  22
HETATM   22  C15 UNL     1      16.634  -5.458  12.515  1.00  0.00     0.175 C 
HETATM   23  O4  UNL     1      15.531  -5.695  11.987  1.00  0.00    -0.648 OA
HETATM   24  O5  UNL     1      17.756  -5.764  11.710  1.00  0.00    -0.648 OA
ENDBRANCH  21  22
ENDBRANCH   1  21
BRANCH   1  25
HETATM   25  C16 UNL     1      18.279  -3.708  15.439  1.00  0.00     0.245 C 
HETATM   26  O6  UNL     1      17.346  -3.590  16.243  1.00  0.00    -0.271 OA
HETATM   27  N3  UNL     1      19.479  -2.940  15.669  1.00  0.00    -0.326 N 
ATOM     28  H3  UNL     1      20.249  -3.026  15.005  1.00  0.00     0.168 HD
BRANCH  27  29
HETATM   29  C17 UNL     1      19.631  -2.068  16.782  1.00  0.00     0.061 C 
BRANCH  29  30
HETATM   30  C18 UNL     1      19.396  -0.640  16.653  1.00  0.00     0.065 C 
BRANCH  30  31
HETATM   31  C19 UNL     1      18.227  -0.072  17.387  1.00  0.00    -0.009 C 
HETATM   32  C20 UNL     1      17.783   1.235  16.812  1.00  0.00     0.005 C 
HETATM   33  C21 UNL     1      16.934   1.965  17.865  1.00  0.00     0.000 C 
HETATM   34  C22 UNL     1      17.835   2.440  18.953  1.00  0.00     0.000 C 
HETATM   35  C23 UNL     1      18.986   1.448  19.163  1.00  0.00     0.000 C 
HETATM   36  C24 UNL     1      18.511   0.054  18.876  1.00  0.00     0.005 C 
ENDBRANCH  30  31
ENDBRANCH  29  30
BRANCH  29  37
HETATM   37  C25 UNL     1      20.882  -2.405  17.563  1.00  0.00     0.200 C 
HETATM   38  O7  UNL     1      20.722  -2.839  18.695  1.00  0.00    -0.288 OA
BRANCH  37  39
HETATM   39  C26 UNL     1      22.254  -2.241  17.055  1.00  0.00     0.194 C 
BRANCH  39  40
HETATM   40  O8  UNL     1      22.238  -2.690  15.696  1.00  0.00    -0.388 OA
ATOM     41  H8  UNL     1      22.017  -3.613  15.722  1.00  0.00     0.210 HD
ENDBRANCH  39  40
BRANCH  39  42
HETATM   42  C27 UNL     1      22.625  -0.776  16.933  1.00  0.00     0.044 C 
BRANCH  42  43
HETATM   43  C28 UNL     1      23.442  -0.320  18.114  1.00  0.00    -0.012 C 
HETATM   44  C29 UNL     1      24.652   0.494  17.761  1.00  0.00     0.005 C 
HETATM   45  C30 UNL     1      24.968   1.345  19.012  1.00  0.00     0.000 C 
HETATM   46  C31 UNL     1      24.047   2.547  18.929  1.00  0.00     0.000 C 
HETATM   47  C32 UNL     1      22.663   2.007  18.614  1.00  0.00     0.000 C 
HETATM   48  C33 UNL     1      22.544   0.532  19.020  1.00  0.00     0.005 C 
ENDBRANCH  42  43
ENDBRANCH  39  42
ENDBRANCH  37  39
ENDBRANCH  29  37
ENDBRANCH  27  29
ENDBRANCH   1  25
TORSDOF 17
ENDMDL
MODEL 2
REMARK VINA RESULT: -9.248766563      2.462      9.787
REMARK  17 active torsions:
REMARK  status: ('A' for Active; 'I' for Inactive)
REMARK    1  A    between atoms: C2_2  and  N1_5 
REMARK    2  A    between atoms: N1_5  and  C5_6 
REMARK    3  A    between atoms: N1_5  and  S1_12 
REMARK    4  A    between atoms: S1_12  and  C11_15 
REMARK    5  A    between atoms: C11_15  and  C12_16 
REMARK       I    between atoms: C12_16  and  N2_18 
REMARK    6  A    between atoms: N2_18  and  C13_20 
REMARK    7  A    between atoms: C13_20  and  C14_21 
REMARK    8  A    between atoms: C13_20  and  C16_25 
REMARK    9  A    between atoms: C14_21  and  C15_22 
REMARK       I    between atoms: C16_25  and  N3_27 
REMARK   10  A    between atoms: N3_27  and  C17_29 
REMARK   11  A    between atoms: C17_29  and  C18_30 
REMARK   12  A    between atoms: C17_29  and  C25_37 
REMARK   13  A    between atoms: C18_30  and  C19_31 
REMARK   14  A    between atoms: C25_37  and  C26_39 
REMARK   15  A    between atoms: C26_39  and  O8_40 
REMARK   16  A    between atoms: C26_39  and  C27_42 
REMARK   17  A    between atoms: C27_42  and  C28_43 
ROOT
HETATM    1  C13 UNL     1      17.240  -4.134  15.147  1.00  0.00     0.186 C 
ENDROOT
BRANCH   1   2
HETATM    2  N2  UNL     1      17.435  -2.955  15.945  1.00  0.00    -0.346 N 
HETATM    3  C12 UNL     1      18.196  -1.850  15.443  1.00  0.00     0.234 C 
HETATM    4  O3  UNL     1      18.679  -1.993  14.268  1.00  0.00    -0.272 OA
ATOM      5  H2  UNL     1      17.029  -2.905  16.879  1.00  0.00     0.163 HD
BRANCH   3   6
HETATM    6  C11 UNL     1      18.440  -0.595  16.187  1.00  0.00     0.265 C 
BRANCH   6   7
HETATM    7  S1  UNL     1      18.650  -0.842  17.924  1.00  0.00     0.238 S 
HETATM    8  O1  UNL     1      17.297  -1.015  18.544  1.00  0.00    -0.205 OA
HETATM    9  O2  UNL     1      19.369  -2.188  18.015  1.00  0.00    -0.205 OA
BRANCH   7  10
HETATM   10  N1  UNL     1      19.590   0.391  18.650  1.00  0.00    -0.297 N 
BRANCH  10  11
HETATM   11  C2  UNL     1      18.879   1.490  19.122  1.00  0.00     0.032 C 
HETATM   12  C1  UNL     1      19.809   2.677  19.326  1.00  0.00     0.038 C 
HETATM   13  C3  UNL     1      17.847   2.043  18.123  1.00  0.00     0.038 C 
HETATM   14  C4  UNL     1      18.212   1.286  20.487  1.00  0.00     0.038 C 
ENDBRANCH  10  11
BRANCH  10  15
HETATM   15  C5  UNL     1      20.922   0.428  18.264  1.00  0.00     0.101 C 
HETATM   16  C6  UNL     1      21.246   0.174  16.826  1.00  0.00     0.027 C 
HETATM   17  C7  UNL     1      22.772   0.400  16.836  1.00  0.00     0.007 C 
HETATM   18  C8  UNL     1      23.134  -0.503  18.006  1.00  0.00    -0.008 A 
HETATM   19  C9  UNL     1      23.331   0.212  19.268  1.00  0.00     0.012 A 
HETATM   20  C10 UNL     1      21.924  -0.402  18.980  1.00  0.00     0.013 A 
ENDBRANCH  10  15
ENDBRANCH   7  10
ENDBRANCH   6   7
ENDBRANCH   3   6
ENDBRANCH   1   2
BRANCH   1  21
HETATM   21  C14 UNL     1      16.330  -3.854  14.003  1.00  0.00     0.148 C 
BRANCH  21  22
HETATM   22  C15 UNL     1      15.689  -5.041  13.434  1.00  0.00     0.175 C 
HETATM   23  O4  UNL     1      15.555  -5.198  12.206  1.00  0.00    -0.648 OA
HETATM   24  O5  UNL     1      15.174  -6.092  14.227  1.00  0.00    -0.648 OA
ENDBRANCH  21  22
ENDBRANCH   1  21
BRANCH   1  25
HETATM   25  C16 UNL     1      18.490  -4.823  14.808  1.00  0.00     0.245 C 
HETATM   26  O6  UNL     1      19.097  -5.454  15.682  1.00  0.00    -0.271 OA
HETATM   27  N3  UNL     1      19.041  -4.801  13.475  1.00  0.00    -0.326 N 
ATOM     28  H3  UNL     1      18.550  -4.276  12.751  1.00  0.00     0.168 HD
BRANCH  27  29
HETATM   29  C17 UNL     1      20.241  -5.482  13.129  1.00  0.00     0.061 C 
BRANCH  29  30
HETATM   30  C18 UNL     1      21.423  -4.749  12.708  1.00  0.00     0.065 C 
BRANCH  30  31
HETATM   31  C19 UNL     1      22.501  -4.554  13.721  1.00  0.00    -0.009 C 
HETATM   32  C20 UNL     1      22.417  -5.555  14.830  1.00  0.00     0.005 C 
HETATM   33  C21 UNL     1      23.214  -5.017  16.029  1.00  0.00     0.000 C 
HETATM   34  C22 UNL     1      22.458  -3.882  16.631  1.00  0.00     0.000 C 
HETATM   35  C23 UNL     1      21.714  -3.101  15.540  1.00  0.00     0.000 C 
HETATM   36  C24 UNL     1      22.504  -3.134  14.266  1.00  0.00     0.005 C 
ENDBRANCH  30  31
ENDBRANCH  29  30
BRANCH  29  37
HETATM   37  C25 UNL     1      19.945  -6.693  12.273  1.00  0.00     0.200 C 
HETATM   38  O7  UNL     1      20.040  -6.547  11.062  1.00  0.00    -0.288 OA
BRANCH  37  39
HETATM   39  C26 UNL     1      19.552  -8.012  12.798  1.00  0.00     0.194 C 
BRANCH  39  40
HETATM   40  O8  UNL     1      19.862  -7.999  14.195  1.00  0.00    -0.388 OA
ATOM     41  H8  UNL     1      19.035  -7.900  14.652  1.00  0.00     0.210 HD
ENDBRANCH  39  40
BRANCH  39  42
HETATM   42  C27 UNL     1      18.046  -8.186  12.777  1.00  0.00     0.044 C 
BRANCH  42  43
HETATM   43  C28 UNL     1      17.652  -9.580  13.193  1.00  0.00    -0.012 C 
HETATM   44  C29 UNL     1      16.243  -9.709  13.693  1.00  0.00     0.005 C 
HETATM   45  C30 UNL     1      15.851 -11.188  13.471  1.00  0.00     0.000 C 
HETATM   46  C31 UNL     1      15.421 -11.281  12.020  1.00  0.00     0.000 C 
HETATM   47  C32 UNL     1      16.488 -10.571  11.209  1.00  0.00     0.000 C 
HETATM   48  C33 UNL     1      17.813 -10.507  11.980  1.00  0.00     0.005 C 
ENDBRANCH  42  43
ENDBRANCH  39  42
ENDBRANCH  37  39
ENDBRANCH  29  37
ENDBRANCH  27  29
ENDBRANCH   1  25
TORSDOF 17
ENDMDL
MODEL 3
REMARK VINA RESULT: -9.217571371      0.839      1.348
REMARK  17 active torsions:
REMARK  status: ('A' for Active; 'I' for Inactive)
REMARK    1  A    between atoms: C2_2  and  N1_5 
REMARK    2  A    between atoms: N1_5  and  C5_6 
REMARK    3  A    between atoms: N1_5  and  S1_12 
REMARK    4  A    between atoms: S1_12  and  C11_15 
REMARK    5  A    between atoms: C11_15  and  C12_16 
REMARK       I    between atoms: C12_16  and  N2_18 
REMARK    6  A    between atoms: N2_18  and  C13_20 
REMARK    7  A    between atoms: C13_20  and  C14_21 
REMARK    8  A    between atoms: C13_20  and  C16_25 
REMARK    9  A    between atoms: C14_21  and  C15_22 
REMARK       I    between atoms: C16_25  and  N3_27 
REMARK   10  A    between atoms: N3_27  and  C17_29 
REMARK   11  A    between atoms: C17_29  and  C18_30 
REMARK   12  A    between atoms: C17_29  and  C25_37 
REMARK   13  A    between atoms: C18_30  and  C19_31 
REMARK   14  A    between atoms: C25_37  and  C26_39 
REMARK   15  A    between atoms: C26_39  and  O8_40 
REMARK   16  A    between atoms: C26_39  and  C27_42 
REMARK   17  A    between atoms: C27_42  and  C28_43 
ROOT
HETATM    1  C13 UNL     1      18.294  -4.469  14.399  1.00  0.00     0.186 C 
ENDROOT
BRANCH   1   2
HETATM    2  N2  UNL     1      18.996  -5.717  14.519  1.00  0.00    -0.346 N 
HETATM    3  C12 UNL     1      20.391  -5.804  14.202  1.00  0.00     0.234 C 
HETATM    4  O3  UNL     1      20.942  -4.720  13.810  1.00  0.00    -0.272 OA
ATOM      5  H2  UNL     1      18.497  -6.549  14.832  1.00  0.00     0.163 HD
BRANCH   3   6
HETATM    6  C11 UNL     1      21.197  -7.040  14.305  1.00  0.00     0.265 C 
BRANCH   6   7
HETATM    7  S1  UNL     1      20.765  -8.259  13.102  1.00  0.00     0.238 S 
HETATM    8  O1  UNL     1      20.064  -7.576  11.967  1.00  0.00    -0.205 OA
HETATM    9  O2  UNL     1      22.116  -8.744  12.577  1.00  0.00    -0.205 OA
BRANCH   7  10
HETATM   10  N1  UNL     1      19.880  -9.560  13.777  1.00  0.00    -0.297 N 
BRANCH  10  11
HETATM   11  C2  UNL     1      20.631 -10.499  14.477  1.00  0.00     0.032 C 
HETATM   12  C1  UNL     1      19.722 -11.540  15.112  1.00  0.00     0.038 C 
HETATM   13  C3  UNL     1      21.549 -11.356  13.586  1.00  0.00     0.038 C 
HETATM   14  C4  UNL     1      21.440  -9.931  15.649  1.00  0.00     0.038 C 
ENDBRANCH  10  11
BRANCH  10  15
HETATM   15  C5  UNL     1      18.661  -9.828  13.171  1.00  0.00     0.101 C 
HETATM   16  C6  UNL     1      18.667 -10.271  11.743  1.00  0.00     0.027 C 
HETATM   17  C7  UNL     1      17.163 -10.534  11.522  1.00  0.00     0.007 C 
HETATM   18  C8  UNL     1      16.615  -9.215  12.046  1.00  0.00    -0.008 A 
HETATM   19  C9  UNL     1      16.111  -9.284  13.419  1.00  0.00     0.012 A 
HETATM   20  C10 UNL     1      17.581  -8.808  13.196  1.00  0.00     0.013 A 
ENDBRANCH  10  15
ENDBRANCH   7  10
ENDBRANCH   6   7
ENDBRANCH   3   6
ENDBRANCH   1   2
BRANCH   1  21
HETATM   21  C14 UNL     1      16.836  -4.697  14.214  1.00  0.00     0.148 C 
BRANCH  21  22
HETATM   22  C15 UNL     1      16.468  -5.246  12.908  1.00  0.00     0.175 C 
HETATM   23  O4  UNL     1      17.322  -5.590  12.069  1.00  0.00    -0.648 OA
HETATM   24  O5  UNL     1      15.126  -5.427  12.499  1.00  0.00    -0.648 OA
ENDBRANCH  21  22
ENDBRANCH   1  21
BRANCH   1  25
HETATM   25  C16 UNL     1      18.657  -3.495  15.434  1.00  0.00     0.245 C 
HETATM   26  O6  UNL     1      19.000  -3.891  16.555  1.00  0.00    -0.271 OA
HETATM   27  N3  UNL     1      18.639  -2.073  15.189  1.00  0.00    -0.326 N 
ATOM     28  H3  UNL     1      18.349  -1.739  14.269  1.00  0.00     0.168 HD
BRANCH  27  29
HETATM   29  C17 UNL     1      19.008  -1.118  16.177  1.00  0.00     0.061 C 
BRANCH  29  30
HETATM   30  C18 UNL     1      18.146   0.008  16.489  1.00  0.00     0.065 C 
BRANCH  30  31
HETATM   31  C19 UNL     1      18.404   0.730  17.770  1.00  0.00    -0.009 C 
HETATM   32  C20 UNL     1      18.260  -0.167  18.959  1.00  0.00     0.005 C 
HETATM   33  C21 UNL     1      18.066   0.710  20.206  1.00  0.00     0.000 C 
HETATM   34  C22 UNL     1      16.703   1.311  20.154  1.00  0.00     0.000 C 
HETATM   35  C23 UNL     1      16.303   1.601  18.702  1.00  0.00     0.000 C 
HETATM   36  C24 UNL     1      17.522   1.962  17.904  1.00  0.00     0.005 C 
ENDBRANCH  30  31
ENDBRANCH  29  30
BRANCH  29  37
HETATM   37  C25 UNL     1      20.468  -0.743  16.043  1.00  0.00     0.200 C 
HETATM   38  O7  UNL     1      20.728   0.190  15.296  1.00  0.00    -0.288 OA
BRANCH  37  39
HETATM   39  C26 UNL     1      21.573  -1.422  16.741  1.00  0.00     0.194 C 
BRANCH  39  40
HETATM   40  O8  UNL     1      21.849  -2.612  15.998  1.00  0.00    -0.388 OA
ATOM     41  H8  UNL     1      21.432  -3.325  16.467  1.00  0.00     0.210 HD
ENDBRANCH  39  40
BRANCH  39  42
HETATM   42  C27 UNL     1      22.863  -0.632  16.628  1.00  0.00     0.044 C 
BRANCH  42  43
HETATM   43  C28 UNL     1      23.404  -0.275  17.988  1.00  0.00    -0.012 C 
HETATM   44  C29 UNL     1      24.554   0.689  17.970  1.00  0.00     0.005 C 
HETATM   45  C30 UNL     1      24.546   1.380  19.352  1.00  0.00     0.000 C 
HETATM   46  C31 UNL     1      23.519   2.492  19.245  1.00  0.00     0.000 C 
HETATM   47  C32 UNL     1      22.284   1.876  18.614  1.00  0.00     0.000 C 
HETATM   48  C33 UNL     1      22.269   0.355  18.807  1.00  0.00     0.005 C 
ENDBRANCH  42  43
ENDBRANCH  39  42
ENDBRANCH  37  39
ENDBRANCH  29  37
ENDBRANCH  27  29
ENDBRANCH   1  25
TORSDOF 17
ENDMDL
MODEL 4
REMARK VINA RESULT: -9.113638604      2.395      9.372
REMARK  17 active torsions:
REMARK  status: ('A' for Active; 'I' for Inactive)
REMARK    1  A    between atoms: C2_2  and  N1_5 
REMARK    2  A    between atoms: N1_5  and  C5_6 
REMARK    3  A    between atoms: N1_5  and  S1_12 
REMARK    4  A    between atoms: S1_12  and  C11_15 
REMARK    5  A    between atoms: C11_15  and  C12_16 
REMARK       I    between atoms: C12_16  and  N2_18 
REMARK    6  A    between atoms: N2_18  and  C13_20 
REMARK    7  A    between atoms: C13_20  and  C14_21 
REMARK    8  A    between atoms: C13_20  and  C16_25 
REMARK    9  A    between atoms: C14_21  and  C15_22 
REMARK       I    between atoms: C16_25  and  N3_27 
REMARK   10  A    between atoms: N3_27  and  C17_29 
REMARK   11  A    between atoms: C17_29  and  C18_30 
REMARK   12  A    between atoms: C17_29  and  C25_37 
REMARK   13  A    between atoms: C18_30  and  C19_31 
REMARK   14  A    between atoms: C25_37  and  C26_39 
REMARK   15  A    between atoms: C26_39  and  O8_40 
REMARK   16  A    between atoms: C26_39  and  C27_42 
REMARK   17  A    between atoms: C27_42  and  C28_43 
ROOT
HETATM    1  C13 UNL     1      17.146  -4.061  15.241  1.00  0.00     0.186 C 
ENDROOT
BRANCH   1   2
HETATM    2  N2  UNL     1      17.386  -2.879  16.022  1.00  0.00    -0.346 N 
HETATM    3  C12 UNL     1      18.186  -1.810  15.502  1.00  0.00     0.234 C 
HETATM    4  O3  UNL     1      18.662  -1.989  14.330  1.00  0.00    -0.272 OA
ATOM      5  H2  UNL     1      16.982  -2.799  16.955  1.00  0.00     0.163 HD
BRANCH   3   6
HETATM    6  C11 UNL     1      18.477  -0.554  16.228  1.00  0.00     0.265 C 
BRANCH   6   7
HETATM    7  S1  UNL     1      18.696  -0.785  17.966  1.00  0.00     0.238 S 
HETATM    8  O1  UNL     1      17.344  -0.918  18.599  1.00  0.00    -0.205 OA
HETATM    9  O2  UNL     1      19.383  -2.147  18.067  1.00  0.00    -0.205 OA
BRANCH   7  10
HETATM   10  N1  UNL     1      19.671   0.434  18.669  1.00  0.00    -0.297 N 
BRANCH  10  11
HETATM   11  C2  UNL     1      18.989   1.547  19.150  1.00  0.00     0.032 C 
HETATM   12  C1  UNL     1      19.942   2.719  19.326  1.00  0.00     0.038 C 
HETATM   13  C3  UNL     1      17.944   2.112  18.170  1.00  0.00     0.038 C 
HETATM   14  C4  UNL     1      18.350   1.362  20.530  1.00  0.00     0.038 C 
ENDBRANCH  10  11
BRANCH  10  15
HETATM   15  C5  UNL     1      20.996   0.446  18.257  1.00  0.00     0.101 C 
HETATM   16  C6  UNL     1      21.291   0.145  16.822  1.00  0.00     0.027 C 
HETATM   17  C7  UNL     1      22.819   0.355  16.797  1.00  0.00     0.007 C 
HETATM   18  C8  UNL     1      23.194  -0.515  17.987  1.00  0.00    -0.008 A 
HETATM   19  C9  UNL     1      23.421   0.235  19.223  1.00  0.00     0.012 A 
HETATM   20  C10 UNL     1      22.004  -0.373  18.980  1.00  0.00     0.013 A 
ENDBRANCH  10  15
ENDBRANCH   7  10
ENDBRANCH   6   7
ENDBRANCH   3   6
ENDBRANCH   1   2
BRANCH   1  21
HETATM   21  C14 UNL     1      16.208  -3.776  14.122  1.00  0.00     0.148 C 
BRANCH  21  22
HETATM   22  C15 UNL     1      15.633  -4.967  13.494  1.00  0.00     0.175 C 
HETATM   23  O4  UNL     1      14.941  -5.784  14.131  1.00  0.00    -0.648 OA
HETATM   24  O5  UNL     1      15.816  -5.281  12.128  1.00  0.00    -0.648 OA
ENDBRANCH  21  22
ENDBRANCH   1  21
BRANCH   1  25
HETATM   25  C16 UNL     1      18.373  -4.775  14.873  1.00  0.00     0.245 C 
HETATM   26  O6  UNL     1      19.054  -5.317  15.752  1.00  0.00    -0.271 OA
HETATM   27  N3  UNL     1      18.818  -4.881  13.505  1.00  0.00    -0.326 N 
ATOM     28  H3  UNL     1      18.266  -4.430  12.774  1.00  0.00     0.168 HD
BRANCH  27  29
HETATM   29  C17 UNL     1      19.995  -5.588  13.132  1.00  0.00     0.061 C 
BRANCH  29  30
HETATM   30  C18 UNL     1      21.183  -4.882  12.683  1.00  0.00     0.065 C 
BRANCH  30  31
HETATM   31  C19 UNL     1      22.311  -4.762  13.653  1.00  0.00    -0.009 C 
HETATM   32  C20 UNL     1      22.157  -5.696  14.811  1.00  0.00     0.005 C 
HETATM   33  C21 UNL     1      23.050  -5.196  15.958  1.00  0.00     0.000 C 
HETATM   34  C22 UNL     1      22.445  -3.958  16.526  1.00  0.00     0.000 C 
HETATM   35  C23 UNL     1      21.753  -3.149  15.422  1.00  0.00     0.000 C 
HETATM   36  C24 UNL     1      22.489  -3.327  14.127  1.00  0.00     0.005 C 
ENDBRANCH  30  31
ENDBRANCH  29  30
BRANCH  29  37
HETATM   37  C25 UNL     1      19.653  -6.793  12.283  1.00  0.00     0.200 C 
HETATM   38  O7  UNL     1      19.914  -6.717  11.091  1.00  0.00    -0.288 OA
BRANCH  37  39
HETATM   39  C26 UNL     1      19.031  -8.026  12.795  1.00  0.00     0.194 C 
BRANCH  39  40
HETATM   40  O8  UNL     1      18.065  -8.427  11.819  1.00  0.00    -0.388 OA
ATOM     41  H8  UNL     1      17.385  -8.894  12.290  1.00  0.00     0.210 HD
ENDBRANCH  39  40
BRANCH  39  42
HETATM   42  C27 UNL     1      20.018  -9.178  12.803  1.00  0.00     0.044 C 
BRANCH  42  43
HETATM   43  C28 UNL     1      20.672  -9.326  14.153  1.00  0.00    -0.012 C 
HETATM   44  C29 UNL     1      20.291 -10.572  14.898  1.00  0.00     0.005 C 
HETATM   45  C30 UNL     1      21.455 -10.848  15.877  1.00  0.00     0.000 C 
HETATM   46  C31 UNL     1      22.509 -11.572  15.062  1.00  0.00     0.000 C 
HETATM   47  C32 UNL     1      22.672 -10.785  13.775  1.00  0.00     0.000 C 
HETATM   48  C33 UNL     1      22.193  -9.338  13.951  1.00  0.00     0.005 C 
ENDBRANCH  42  43
ENDBRANCH  39  42
ENDBRANCH  37  39
ENDBRANCH  29  37
ENDBRANCH  27  29
ENDBRANCH   1  25
TORSDOF 17
ENDMDL
MODEL 5
REMARK VINA RESULT: -9.105238474      4.223     11.070
REMARK  17 active torsions:
REMARK  status: ('A' for Active; 'I' for Inactive)
REMARK    1  A    between atoms: C2_2  and  N1_5 
REMARK    2  A    between atoms: N1_5  and  C5_6 
REMARK    3  A    between atoms: N1_5  and  S1_12 
REMARK    4  A    between atoms: S1_12  and  C11_15 
REMARK    5  A    between atoms: C11_15  and  C12_16 
REMARK       I    between atoms: C12_16  and  N2_18 
REMARK    6  A    between atoms: N2_18  and  C13_20 
REMARK    7  A    between atoms: C13_20  and  C14_21 
REMARK    8  A    between atoms: C13_20  and  C16_25 
REMARK    9  A    between atoms: C14_21  and  C15_22 
REMARK       I    between atoms: C16_25  and  N3_27 
REMARK   10  A    between atoms: N3_27  and  C17_29 
REMARK   11  A    between atoms: C17_29  and  C18_30 
REMARK   12  A    between atoms: C17_29  and  C25_37 
REMARK   13  A    between atoms: C18_30  and  C19_31 
REMARK   14  A    between atoms: C25_37  and  C26_39 
REMARK   15  A    between atoms: C26_39  and  O8_40 
REMARK   16  A    between atoms: C26_39  and  C27_42 
REMARK   17  A    between atoms: C27_42  and  C28_43 
ROOT
HETATM    1  C13 UNL     1      22.454   0.649  18.668  1.00  0.00     0.186 C 
ENDROOT
BRANCH   1   2
HETATM    2  N2  UNL     1      21.446   1.374  19.390  1.00  0.00    -0.346 N 
HETATM    3  C12 UNL     1      21.391   2.805  19.330  1.00  0.00     0.234 C 
HETATM    4  O3  UNL     1      22.285   3.368  18.612  1.00  0.00    -0.272 OA
ATOM      5  H2  UNL     1      20.762   0.866  19.952  1.00  0.00     0.163 HD
BRANCH   3   6
HETATM    6  C11 UNL     1      20.385   3.633  20.031  1.00  0.00     0.265 C 
BRANCH   6   7
HETATM    7  S1  UNL     1      18.736   3.368  19.453  1.00  0.00     0.238 S 
HETATM    8  O1  UNL     1      18.002   4.674  19.504  1.00  0.00    -0.205 OA
HETATM    9  O2  UNL     1      18.922   3.007  17.980  1.00  0.00    -0.205 OA
BRANCH   7  10
HETATM   10  N1  UNL     1      17.948   2.099  20.289  1.00  0.00    -0.297 N 
BRANCH  10  11
HETATM   11  C2  UNL     1      17.130   1.284  19.512  1.00  0.00     0.032 C 
HETATM   12  C1  UNL     1      15.885   0.885  20.288  1.00  0.00     0.038 C 
HETATM   13  C3  UNL     1      16.542   1.986  18.274  1.00  0.00     0.038 C 
HETATM   14  C4  UNL     1      17.764  -0.047  19.093  1.00  0.00     0.038 C 
ENDBRANCH  10  11
BRANCH  10  15
HETATM   15  C5  UNL     1      17.786   2.296  21.653  1.00  0.00     0.101 C 
HETATM   16  C6  UNL     1      17.647   3.700  22.151  1.00  0.00     0.027 C 
HETATM   17  C7  UNL     1      17.405   3.444  23.653  1.00  0.00     0.007 C 
HETATM   18  C8  UNL     1      18.576   2.513  23.923  1.00  0.00    -0.008 A 
HETATM   19  C9  UNL     1      18.216   1.094  23.939  1.00  0.00     0.012 A 
HETATM   20  C10 UNL     1      18.757   1.702  22.607  1.00  0.00     0.013 A 
ENDBRANCH  10  15
ENDBRANCH   7  10
ENDBRANCH   6   7
ENDBRANCH   3   6
ENDBRANCH   1   2
BRANCH   1  21
HETATM   21  C14 UNL     1      23.677   0.473  19.496  1.00  0.00     0.148 C 
BRANCH  21  22
HETATM   22  C15 UNL     1      24.870   1.135  18.965  1.00  0.00     0.175 C 
HETATM   23  O4  UNL     1      25.316   0.887  17.830  1.00  0.00    -0.648 OA
HETATM   24  O5  UNL     1      25.602   2.100  19.695  1.00  0.00    -0.648 OA
ENDBRANCH  21  22
ENDBRANCH   1  21
BRANCH   1  25
HETATM   25  C16 UNL     1      21.946  -0.566  18.020  1.00  0.00     0.245 C 
HETATM   26  O6  UNL     1      21.636  -1.544  18.711  1.00  0.00    -0.271 OA
HETATM   27  N3  UNL     1      21.783  -0.661  16.590  1.00  0.00    -0.326 N 
ATOM     28  H3  UNL     1      22.045   0.139  16.013  1.00  0.00     0.168 HD
BRANCH  27  29
HETATM   29  C17 UNL     1      21.273  -1.826  15.951  1.00  0.00     0.061 C 
BRANCH  29  30
HETATM   30  C18 UNL     1      22.161  -2.770  15.295  1.00  0.00     0.065 C 
BRANCH  30  31
HETATM   31  C19 UNL     1      21.735  -4.200  15.267  1.00  0.00    -0.009 C 
HETATM   32  C20 UNL     1      22.818  -5.119  15.738  1.00  0.00     0.005 C 
HETATM   33  C21 UNL     1      22.499  -6.537  15.242  1.00  0.00     0.000 C 
HETATM   34  C22 UNL     1      22.723  -6.587  13.770  1.00  0.00     0.000 C 
HETATM   35  C23 UNL     1      22.363  -5.240  13.131  1.00  0.00     0.000 C 
HETATM   36  C24 UNL     1      21.234  -4.606  13.889  1.00  0.00     0.005 C 
ENDBRANCH  30  31
ENDBRANCH  29  30
BRANCH  29  37
HETATM   37  C25 UNL     1      20.037  -1.498  15.143  1.00  0.00     0.200 C 
HETATM   38  O7  UNL     1      20.217  -1.008  14.038  1.00  0.00    -0.288 OA
BRANCH  37  39
HETATM   39  C26 UNL     1      18.655  -1.726  15.601  1.00  0.00     0.194 C 
BRANCH  39  40
HETATM   40  O8  UNL     1      18.035  -0.438  15.668  1.00  0.00    -0.388 OA
ATOM     41  H8  UNL     1      17.501  -0.357  14.887  1.00  0.00     0.210 HD
ENDBRANCH  39  40
BRANCH  39  42
HETATM   42  C27 UNL     1      17.839  -2.452  14.549  1.00  0.00     0.044 C 
BRANCH  42  43
HETATM   43  C28 UNL     1      16.982  -3.525  15.168  1.00  0.00    -0.012 C 
HETATM   44  C29 UNL     1      15.808  -3.947  14.334  1.00  0.00     0.005 C 
HETATM   45  C30 UNL     1      15.459  -5.381  14.794  1.00  0.00     0.000 C 
HETATM   46  C31 UNL     1      16.411  -6.292  14.043  1.00  0.00     0.000 C 
HETATM   47  C32 UNL     1      17.793  -5.683  14.190  1.00  0.00     0.000 C 
HETATM   48  C33 UNL     1      17.860  -4.759  15.414  1.00  0.00     0.005 C 
ENDBRANCH  42  43
ENDBRANCH  39  42
ENDBRANCH  37  39
ENDBRANCH  29  37
ENDBRANCH  27  29
ENDBRANCH   1  25
TORSDOF 17
ENDMDL
