MODEL 1
REMARK VINA RESULT: -8.179929632      0.000      0.000
REMARK  17 active torsions:
REMARK  status: ('A' for Active; 'I' for Inactive)
REMARK    1  A    between atoms: C2_2  and  C3_3 
REMARK    2  A    between atoms: C3_3  and  C4_4 
REMARK    3  A    between atoms: C4_4  and  C5_5 
REMARK    4  A    between atoms: C5_5  and  C32_46 
REMARK    5  A    between atoms: C6_6  and  C7_7 
REMARK    6  A    between atoms: C7_7  and  N1_8 
REMARK    7  A    between atoms: C13_19  and  C14_20 
REMARK    8  A    between atoms: C18_27  and  C19_28 
REMARK    9  A    between atoms: C19_28  and  S1_29 
REMARK   10  A    between atoms: S1_29  and  C20_30 
REMARK   11  A    between atoms: C20_30  and  C21_31 
REMARK   12  A    between atoms: C21_31  and  C22_32 
REMARK   13  A    between atoms: C26_39  and  C27_40 
REMARK   14  A    between atoms: C27_40  and  C28_41 
REMARK   15  A    between atoms: C32_46  and  C33_47 
REMARK   16  A    between atoms: C33_47  and  C34_48 
REMARK   17  A    between atoms: C34_48  and  N5_49 
ROOT
HETATM    1  N1  UNL     1      19.167  -1.362  15.907  1.00  0.00    -0.283 N 
HETATM    2  C8  UNL     1      18.396  -2.240  16.705  1.00  0.00     0.226 C 
HETATM    3  O1  UNL     1      18.027  -1.811  17.849  1.00  0.00    -0.273 OA
HETATM    4  C9  UNL     1      17.978  -3.621  16.326  1.00  0.00     0.105 C 
HETATM    5  C10 UNL     1      16.533  -3.656  15.826  1.00  0.00     0.036 C 
HETATM    6  C11 UNL     1      16.574  -3.415  14.335  1.00  0.00     0.181 C 
HETATM    7  O2  UNL     1      15.730  -4.374  13.721  1.00  0.00    -0.304 OA
HETATM    8  C12 UNL     1      16.100  -5.151  12.645  1.00  0.00     0.361 C 
HETATM    9  O3  UNL     1      15.229  -5.263  11.704  1.00  0.00    -0.238 OA
HETATM   10  N2  UNL     1      17.317  -5.823  12.477  1.00  0.00    -0.323 N 
ATOM     11  H2  UNL     1      17.736  -5.758  11.549  1.00  0.00     0.165 HD
HETATM   12  C13 UNL     1      18.048  -6.587  13.438  1.00  0.00     0.182 C 
HETATM   13  C17 UNL     1      19.351  -7.084  12.860  1.00  0.00     0.245 C 
HETATM   14  O4  UNL     1      19.502  -6.919  11.628  1.00  0.00    -0.271 OA
HETATM   15  N3  UNL     1      20.282  -7.677  13.675  1.00  0.00    -0.331 N 
ATOM     16  H3  UNL     1      20.276  -8.693  13.581  1.00  0.00     0.168 HD
HETATM   17  C18 UNL     1      21.144  -7.289  14.511  1.00  0.00     0.007 C 
HETATM   18  C24 UNL     1      21.408  -5.883  14.880  1.00  0.00     0.156 C 
HETATM   19  C25 UNL     1      21.627  -4.971  13.750  1.00  0.00     0.223 C 
HETATM   20  O5  UNL     1      22.258  -5.347  12.696  1.00  0.00    -0.273 OA
HETATM   21  N4  UNL     1      21.144  -3.630  13.790  1.00  0.00    -0.347 N 
ATOM     22  H4  UNL     1      20.802  -3.219  12.920  1.00  0.00     0.163 HD
HETATM   23  C26 UNL     1      21.108  -2.820  14.979  1.00  0.00     0.177 C 
HETATM   24  C31 UNL     1      20.065  -1.765  14.884  1.00  0.00     0.249 C 
HETATM   25  O6  UNL     1      19.957  -1.147  13.771  1.00  0.00    -0.271 OA
ENDROOT
BRANCH   1  26
HETATM   26  C7  UNL     1      19.006   0.087  16.172  1.00  0.00     0.162 C 
BRANCH  26  27
HETATM   27  C6  UNL     1      19.639   0.531  17.398  1.00  0.00    -0.004 C 
HETATM   28  C5  UNL     1      19.142   1.325  18.311  1.00  0.00    -0.082 C 
BRANCH  28  29
HETATM   29  C4  UNL     1      19.932   1.699  19.548  1.00  0.00     0.037 C 
BRANCH  29  30
HETATM   30  C3  UNL     1      21.409   1.753  19.286  1.00  0.00     0.030 C 
BRANCH  30  31
HETATM   31  C2  UNL     1      21.812   3.166  19.015  1.00  0.00    -0.037 C 
HETATM   32  C1  UNL     1      21.038   4.207  19.266  1.00  0.00     0.007 C 
ENDBRANCH  30  31
ENDBRANCH  29  30
ENDBRANCH  28  29
BRANCH  28  33
HETATM   33  C32 UNL     1      17.800   1.914  18.227  1.00  0.00     0.035 C 
BRANCH  33  34
HETATM   34  C33 UNL     1      17.107   1.965  19.577  1.00  0.00     0.031 C 
BRANCH  34  35
HETATM   35  C34 UNL     1      15.898   1.028  19.462  1.00  0.00     0.230 C 
BRANCH  35  36
HETATM   36  N5  UNL     1      16.380  -0.304  19.787  1.00  0.00    -0.079 N 
ATOM     37  H53 UNL     1      17.398  -0.379  19.783  1.00  0.00     0.274 HD
ATOM     38  H52 UNL     1      16.239  -0.558  20.765  1.00  0.00     0.274 HD
ATOM     39  H51 UNL     1      15.925  -0.942  19.134  1.00  0.00     0.274 HD
ENDBRANCH  35  36
ENDBRANCH  34  35
ENDBRANCH  33  34
ENDBRANCH  28  33
ENDBRANCH  26  27
ENDBRANCH   1  26
BRANCH  23  40
HETATM   40  C27 UNL     1      22.387  -2.120  15.322  1.00  0.00     0.038 C 
BRANCH  40  41
HETATM   41  C28 UNL     1      22.784  -2.061  16.746  1.00  0.00    -0.020 C 
HETATM   42  C29 UNL     1      21.733  -2.543  17.705  1.00  0.00     0.009 C 
HETATM   43  C30 UNL     1      23.101  -0.620  17.171  1.00  0.00     0.009 C 
ENDBRANCH  40  41
ENDBRANCH  23  40
BRANCH  17  44
HETATM   44  C19 UNL     1      21.956  -8.366  15.178  1.00  0.00     0.126 C 
BRANCH  44  45
HETATM   45  S1  UNL     1      21.526  -9.989  14.615  1.00  0.00    -0.163 SA
BRANCH  45  46
HETATM   46  C20 UNL     1      20.792 -11.076  15.831  1.00  0.00     0.074 C 
BRANCH  46  47
HETATM   47  C21 UNL     1      21.875 -11.463  16.838  1.00  0.00     0.010 C 
BRANCH  47  48
HETATM   48  C22 UNL     1      21.703 -10.782  18.155  1.00  0.00    -0.004 C 
HETATM   49  C23 UNL     1      22.555 -11.328  19.261  1.00  0.00     0.005 C 
ENDBRANCH  47  48
ENDBRANCH  46  47
ENDBRANCH  45  46
ENDBRANCH  44  45
ENDBRANCH  17  44
BRANCH  12  50
HETATM   50  C14 UNL     1      17.277  -7.873  13.758  1.00  0.00     0.009 C 
HETATM   51  C15 UNL     1      16.056  -7.645  14.580  1.00  0.00     0.012 C 
HETATM   52  C16 UNL     1      16.847  -8.542  12.448  1.00  0.00     0.012 C 
ENDBRANCH  12  50
TORSDOF 17
ENDMDL
MODEL 2
REMARK VINA RESULT: -8.170078344      1.021      1.608
REMARK  17 active torsions:
REMARK  status: ('A' for Active; 'I' for Inactive)
REMARK    1  A    between atoms: C2_2  and  C3_3 
REMARK    2  A    between atoms: C3_3  and  C4_4 
REMARK    3  A    between atoms: C4_4  and  C5_5 
REMARK    4  A    between atoms: C5_5  and  C32_46 
REMARK    5  A    between atoms: C6_6  and  C7_7 
REMARK    6  A    between atoms: C7_7  and  N1_8 
REMARK    7  A    between atoms: C13_19  and  C14_20 
REMARK    8  A    between atoms: C18_27  and  C19_28 
REMARK    9  A    between atoms: C19_28  and  S1_29 
REMARK   10  A    between atoms: S1_29  and  C20_30 
REMARK   11  A    between atoms: C20_30  and  C21_31 
REMARK   12  A    between atoms: C21_31  and  C22_32 
REMARK   13  A    between atoms: C26_39  and  C27_40 
REMARK   14  A    between atoms: C27_40  and  C28_41 
REMARK   15  A    between atoms: C32_46  and  C33_47 
REMARK   16  A    between atoms: C33_47  and  C34_48 
REMARK   17  A    between atoms: C34_48  and  N5_49 
ROOT
HETATM    1  N1  UNL     1      19.209  -1.314  15.969  1.00  0.00    -0.283 N 
HETATM    2  C8  UNL     1      18.470  -2.222  16.765  1.00  0.00     0.226 C 
HETATM    3  O1  UNL     1      18.124  -1.826  17.927  1.00  0.00    -0.273 OA
HETATM    4  C9  UNL     1      18.063  -3.600  16.362  1.00  0.00     0.105 C 
HETATM    5  C10 UNL     1      16.606  -3.644  15.897  1.00  0.00     0.036 C 
HETATM    6  C11 UNL     1      16.608  -3.367  14.412  1.00  0.00     0.181 C 
HETATM    7  O2  UNL     1      15.762  -4.322  13.795  1.00  0.00    -0.304 OA
HETATM    8  C12 UNL     1      16.116  -5.068  12.692  1.00  0.00     0.361 C 
HETATM    9  O3  UNL     1      15.223  -5.170  11.770  1.00  0.00    -0.238 OA
HETATM   10  N2  UNL     1      17.338  -5.717  12.477  1.00  0.00    -0.323 N 
ATOM     11  H2  UNL     1      17.732  -5.624  11.541  1.00  0.00     0.165 HD
HETATM   12  C13 UNL     1      18.103  -6.493  13.401  1.00  0.00     0.182 C 
HETATM   13  C17 UNL     1      19.398  -6.957  12.780  1.00  0.00     0.245 C 
HETATM   14  O4  UNL     1      19.517  -6.760  11.549  1.00  0.00    -0.271 OA
HETATM   15  N3  UNL     1      20.358  -7.556  13.557  1.00  0.00    -0.331 N 
ATOM     16  H3  UNL     1      20.363  -8.569  13.438  1.00  0.00     0.168 HD
HETATM   17  C18 UNL     1      21.234  -7.175  14.381  1.00  0.00     0.007 C 
HETATM   18  C24 UNL     1      21.487  -5.775  14.777  1.00  0.00     0.156 C 
HETATM   19  C25 UNL     1      21.665  -4.833  13.665  1.00  0.00     0.223 C 
HETATM   20  O5  UNL     1      22.276  -5.174  12.587  1.00  0.00    -0.273 OA
HETATM   21  N4  UNL     1      21.165  -3.501  13.750  1.00  0.00    -0.347 N 
ATOM     22  H4  UNL     1      20.795  -3.074  12.899  1.00  0.00     0.163 HD
HETATM   23  C26 UNL     1      21.146  -2.720  14.958  1.00  0.00     0.177 C 
HETATM   24  C31 UNL     1      20.087  -1.679  14.916  1.00  0.00     0.249 C 
HETATM   25  O6  UNL     1      19.943  -1.036  13.821  1.00  0.00    -0.271 OA
ENDROOT
BRANCH   1  26
HETATM   26  C7  UNL     1      19.034   0.126  16.274  1.00  0.00     0.162 C 
BRANCH  26  27
HETATM   27  C6  UNL     1      19.941   0.623  17.289  1.00  0.00    -0.004 C 
HETATM   28  C5  UNL     1      19.634   1.244  18.399  1.00  0.00    -0.082 C 
BRANCH  28  29
HETATM   29  C4  UNL     1      20.703   1.705  19.368  1.00  0.00     0.037 C 
BRANCH  29  30
HETATM   30  C3  UNL     1      21.801   2.467  18.686  1.00  0.00     0.030 C 
BRANCH  30  31
HETATM   31  C2  UNL     1      23.013   2.480  19.561  1.00  0.00    -0.037 C 
HETATM   32  C1  UNL     1      24.244   2.610  19.101  1.00  0.00     0.007 C 
ENDBRANCH  30  31
ENDBRANCH  29  30
ENDBRANCH  28  29
BRANCH  28  33
HETATM   33  C32 UNL     1      18.255   1.544  18.803  1.00  0.00     0.035 C 
BRANCH  33  34
HETATM   34  C33 UNL     1      17.912   0.961  20.162  1.00  0.00     0.031 C 
BRANCH  34  35
HETATM   35  C34 UNL     1      16.380   0.929  20.228  1.00  0.00     0.230 C 
BRANCH  35  36
HETATM   36  N5  UNL     1      15.964  -0.262  19.505  1.00  0.00    -0.079 N 
ATOM     37  H53 UNL     1      16.053  -0.173  18.493  1.00  0.00     0.274 HD
ATOM     38  H52 UNL     1      16.603  -1.049  19.619  1.00  0.00     0.274 HD
ATOM     39  H51 UNL     1      15.012  -0.466  19.811  1.00  0.00     0.274 HD
ENDBRANCH  35  36
ENDBRANCH  34  35
ENDBRANCH  33  34
ENDBRANCH  28  33
ENDBRANCH  26  27
ENDBRANCH   1  26
BRANCH  23  40
HETATM   40  C27 UNL     1      22.424  -2.010  15.287  1.00  0.00     0.038 C 
BRANCH  40  41
HETATM   41  C28 UNL     1      22.873  -2.009  16.697  1.00  0.00    -0.020 C 
HETATM   42  C29 UNL     1      21.846  -2.497  17.677  1.00  0.00     0.009 C 
HETATM   43  C30 UNL     1      23.243  -0.592  17.157  1.00  0.00     0.009 C 
ENDBRANCH  40  41
ENDBRANCH  23  40
BRANCH  17  44
HETATM   44  C19 UNL     1      22.078  -8.257  15.001  1.00  0.00     0.126 C 
BRANCH  44  45
HETATM   45  S1  UNL     1      21.731  -9.859  14.331  1.00  0.00    -0.163 SA
BRANCH  45  46
HETATM   46  C20 UNL     1      20.473 -10.810  15.175  1.00  0.00     0.074 C 
BRANCH  46  47
HETATM   47  C21 UNL     1      19.229 -10.844  14.286  1.00  0.00     0.010 C 
BRANCH  47  48
HETATM   48  C22 UNL     1      18.351 -12.015  14.575  1.00  0.00    -0.004 C 
HETATM   49  C23 UNL     1      16.904 -11.814  14.241  1.00  0.00     0.005 C 
ENDBRANCH  47  48
ENDBRANCH  46  47
ENDBRANCH  45  46
ENDBRANCH  44  45
ENDBRANCH  17  44
BRANCH  12  50
HETATM   50  C14 UNL     1      17.358  -7.798  13.708  1.00  0.00     0.009 C 
HETATM   51  C15 UNL     1      16.151  -7.607  14.560  1.00  0.00     0.012 C 
HETATM   52  C16 UNL     1      16.913  -8.445  12.393  1.00  0.00     0.012 C 
ENDBRANCH  12  50
TORSDOF 17
ENDMDL
MODEL 3
REMARK VINA RESULT: -7.827447551      1.241      2.064
REMARK  17 active torsions:
REMARK  status: ('A' for Active; 'I' for Inactive)
REMARK    1  A    between atoms: C2_2  and  C3_3 
REMARK    2  A    between atoms: C3_3  and  C4_4 
REMARK    3  A    between atoms: C4_4  and  C5_5 
REMARK    4  A    between atoms: C5_5  and  C32_46 
REMARK    5  A    between atoms: C6_6  and  C7_7 
REMARK    6  A    between atoms: C7_7  and  N1_8 
REMARK    7  A    between atoms: C13_19  and  C14_20 
REMARK    8  A    between atoms: C18_27  and  C19_28 
REMARK    9  A    between atoms: C19_28  and  S1_29 
REMARK   10  A    between atoms: S1_29  and  C20_30 
REMARK   11  A    between atoms: C20_30  and  C21_31 
REMARK   12  A    between atoms: C21_31  and  C22_32 
REMARK   13  A    between atoms: C26_39  and  C27_40 
REMARK   14  A    between atoms: C27_40  and  C28_41 
REMARK   15  A    between atoms: C32_46  and  C33_47 
REMARK   16  A    between atoms: C33_47  and  C34_48 
REMARK   17  A    between atoms: C34_48  and  N5_49 
ROOT
HETATM    1  N1  UNL     1      19.404  -1.212  15.952  1.00  0.00    -0.283 N 
HETATM    2  C8  UNL     1      18.643  -2.065  16.785  1.00  0.00     0.226 C 
HETATM    3  O1  UNL     1      18.336  -1.624  17.943  1.00  0.00    -0.273 OA
HETATM    4  C9  UNL     1      18.169  -3.435  16.429  1.00  0.00     0.105 C 
HETATM    5  C10 UNL     1      16.703  -3.428  15.992  1.00  0.00     0.036 C 
HETATM    6  C11 UNL     1      16.687  -3.191  14.500  1.00  0.00     0.181 C 
HETATM    7  O2  UNL     1      15.790  -4.126  13.925  1.00  0.00    -0.304 OA
HETATM    8  C12 UNL     1      16.090  -4.915  12.837  1.00  0.00     0.361 C 
HETATM    9  O3  UNL     1      15.176  -5.004  11.934  1.00  0.00    -0.238 OA
HETATM   10  N2  UNL     1      17.279  -5.622  12.618  1.00  0.00    -0.323 N 
ATOM     11  H2  UNL     1      17.659  -5.571  11.673  1.00  0.00     0.165 HD
HETATM   12  C13 UNL     1      18.028  -6.406  13.549  1.00  0.00     0.182 C 
HETATM   13  C17 UNL     1      19.290  -6.942  12.917  1.00  0.00     0.245 C 
HETATM   14  O4  UNL     1      19.393  -6.783  11.679  1.00  0.00    -0.271 OA
HETATM   15  N3  UNL     1      20.238  -7.560  13.693  1.00  0.00    -0.331 N 
ATOM     16  H3  UNL     1      20.198  -8.575  13.602  1.00  0.00     0.168 HD
HETATM   17  C18 UNL     1      21.146  -7.196  14.489  1.00  0.00     0.007 C 
HETATM   18  C24 UNL     1      21.466  -5.797  14.842  1.00  0.00     0.156 C 
HETATM   19  C25 UNL     1      21.663  -4.894  13.701  1.00  0.00     0.223 C 
HETATM   20  O5  UNL     1      22.237  -5.291  12.622  1.00  0.00    -0.273 OA
HETATM   21  N4  UNL     1      21.221  -3.540  13.758  1.00  0.00    -0.347 N 
ATOM     22  H4  UNL     1      20.854  -3.120  12.903  1.00  0.00     0.163 HD
HETATM   23  C26 UNL     1      21.259  -2.726  14.945  1.00  0.00     0.177 C 
HETATM   24  C31 UNL     1      20.245  -1.642  14.892  1.00  0.00     0.249 C 
HETATM   25  O6  UNL     1      20.107  -1.023  13.783  1.00  0.00    -0.271 OA
ENDROOT
BRANCH   1  26
HETATM   26  C7  UNL     1      19.296   0.242  16.219  1.00  0.00     0.162 C 
BRANCH  26  27
HETATM   27  C6  UNL     1      18.083   0.620  16.915  1.00  0.00    -0.004 C 
HETATM   28  C5  UNL     1      17.961   1.463  17.909  1.00  0.00    -0.082 C 
BRANCH  28  29
HETATM   29  C4  UNL     1      16.615   1.757  18.535  1.00  0.00     0.037 C 
BRANCH  29  30
HETATM   30  C3  UNL     1      16.148   0.648  19.431  1.00  0.00     0.030 C 
BRANCH  30  31
HETATM   31  C2  UNL     1      17.141   0.447  20.529  1.00  0.00    -0.037 C 
HETATM   32  C1  UNL     1      17.421   1.365  21.437  1.00  0.00     0.007 C 
ENDBRANCH  30  31
ENDBRANCH  29  30
ENDBRANCH  28  29
BRANCH  28  33
HETATM   33  C32 UNL     1      19.094   2.190  18.496  1.00  0.00     0.035 C 
BRANCH  33  34
HETATM   34  C33 UNL     1      18.734   3.617  18.868  1.00  0.00     0.031 C 
BRANCH  34  35
HETATM   35  C34 UNL     1      20.068   4.359  19.016  1.00  0.00     0.230 C 
BRANCH  35  36
HETATM   36  N5  UNL     1      20.129   5.315  17.923  1.00  0.00    -0.079 N 
ATOM     37  H53 UNL     1      20.696   4.996  17.137  1.00  0.00     0.274 HD
ATOM     38  H52 UNL     1      19.249   5.406  17.415  1.00  0.00     0.274 HD
ATOM     39  H51 UNL     1      20.455   6.193  18.327  1.00  0.00     0.274 HD
ENDBRANCH  35  36
ENDBRANCH  34  35
ENDBRANCH  33  34
ENDBRANCH  28  33
ENDBRANCH  26  27
ENDBRANCH   1  26
BRANCH  23  40
HETATM   40  C27 UNL     1      22.572  -2.064  15.230  1.00  0.00     0.038 C 
BRANCH  40  41
HETATM   41  C28 UNL     1      22.933  -1.821  16.645  1.00  0.00    -0.020 C 
HETATM   42  C29 UNL     1      22.006  -2.457  17.641  1.00  0.00     0.009 C 
HETATM   43  C30 UNL     1      22.918  -0.320  16.967  1.00  0.00     0.009 C 
ENDBRANCH  40  41
ENDBRANCH  23  40
BRANCH  17  44
HETATM   44  C19 UNL     1      21.955  -8.295  15.124  1.00  0.00     0.126 C 
BRANCH  44  45
HETATM   45  S1  UNL     1      21.628  -9.881  14.406  1.00  0.00    -0.163 SA
BRANCH  45  46
HETATM   46  C20 UNL     1      20.682 -11.020  15.410  1.00  0.00     0.074 C 
BRANCH  46  47
HETATM   47  C21 UNL     1      21.283 -11.027  16.815  1.00  0.00     0.010 C 
BRANCH  47  48
HETATM   48  C22 UNL     1      22.315 -12.089  16.993  1.00  0.00    -0.004 C 
HETATM   49  C23 UNL     1      23.094 -12.003  18.270  1.00  0.00     0.005 C 
ENDBRANCH  47  48
ENDBRANCH  46  47
ENDBRANCH  45  46
ENDBRANCH  44  45
ENDBRANCH  17  44
BRANCH  12  50
HETATM   50  C14 UNL     1      17.234  -7.668  13.906  1.00  0.00     0.009 C 
HETATM   51  C15 UNL     1      16.047  -7.401  14.765  1.00  0.00     0.012 C 
HETATM   52  C16 UNL     1      16.746  -8.337  12.617  1.00  0.00     0.012 C 
ENDBRANCH  12  50
TORSDOF 17
ENDMDL
MODEL 4
REMARK VINA RESULT: -7.714692660      1.399      2.469
REMARK  17 active torsions:
REMARK  status: ('A' for Active; 'I' for Inactive)
REMARK    1  A    between atoms: C2_2  and  C3_3 
REMARK    2  A    between atoms: C3_3  and  C4_4 
REMARK    3  A    between atoms: C4_4  and  C5_5 
REMARK    4  A    between atoms: C5_5  and  C32_46 
REMARK    5  A    between atoms: C6_6  and  C7_7 
REMARK    6  A    between atoms: C7_7  and  N1_8 
REMARK    7  A    between atoms: C13_19  and  C14_20 
REMARK    8  A    between atoms: C18_27  and  C19_28 
REMARK    9  A    between atoms: C19_28  and  S1_29 
REMARK   10  A    between atoms: S1_29  and  C20_30 
REMARK   11  A    between atoms: C20_30  and  C21_31 
REMARK   12  A    between atoms: C21_31  and  C22_32 
REMARK   13  A    between atoms: C26_39  and  C27_40 
REMARK   14  A    between atoms: C27_40  and  C28_41 
REMARK   15  A    between atoms: C32_46  and  C33_47 
REMARK   16  A    between atoms: C33_47  and  C34_48 
REMARK   17  A    between atoms: C34_48  and  N5_49 
ROOT
HETATM    1  N1  UNL     1      19.344  -1.280  15.892  1.00  0.00    -0.283 N 
HETATM    2  C8  UNL     1      18.577  -2.134  16.720  1.00  0.00     0.226 C 
HETATM    3  O1  UNL     1      18.254  -1.689  17.872  1.00  0.00    -0.273 OA
HETATM    4  C9  UNL     1      18.115  -3.507  16.364  1.00  0.00     0.105 C 
HETATM    5  C10 UNL     1      16.655  -3.510  15.909  1.00  0.00     0.036 C 
HETATM    6  C11 UNL     1      16.656  -3.280  14.416  1.00  0.00     0.181 C 
HETATM    7  O2  UNL     1      15.771  -4.222  13.834  1.00  0.00    -0.304 OA
HETATM    8  C12 UNL     1      16.088  -5.014  12.754  1.00  0.00     0.361 C 
HETATM    9  O3  UNL     1      15.186  -5.112  11.840  1.00  0.00    -0.238 OA
HETATM   10  N2  UNL     1      17.283  -5.716  12.552  1.00  0.00    -0.323 N 
ATOM     11  H2  UNL     1      17.674  -5.667  11.612  1.00  0.00     0.165 HD
HETATM   12  C13 UNL     1      18.025  -6.491  13.496  1.00  0.00     0.182 C 
HETATM   13  C17 UNL     1      19.298  -7.023  12.882  1.00  0.00     0.245 C 
HETATM   14  O4  UNL     1      19.415  -6.870  11.645  1.00  0.00    -0.271 OA
HETATM   15  N3  UNL     1      20.239  -7.633  13.672  1.00  0.00    -0.331 N 
ATOM     16  H3  UNL     1      20.205  -8.649  13.586  1.00  0.00     0.168 HD
HETATM   17  C18 UNL     1      21.135  -7.261  14.478  1.00  0.00     0.007 C 
HETATM   18  C24 UNL     1      21.444  -5.859  14.829  1.00  0.00     0.156 C 
HETATM   19  C25 UNL     1      21.650  -4.960  13.686  1.00  0.00     0.223 C 
HETATM   20  O5  UNL     1      22.239  -5.358  12.616  1.00  0.00    -0.273 OA
HETATM   21  N4  UNL     1      21.200  -3.608  13.732  1.00  0.00    -0.347 N 
ATOM     22  H4  UNL     1      20.841  -3.194  12.870  1.00  0.00     0.163 HD
HETATM   23  C26 UNL     1      21.220  -2.789  14.915  1.00  0.00     0.177 C 
HETATM   24  C31 UNL     1      20.201  -1.711  14.846  1.00  0.00     0.249 C 
HETATM   25  O6  UNL     1      20.073  -1.097  13.732  1.00  0.00    -0.271 OA
ENDROOT
BRANCH   1  26
HETATM   26  C7  UNL     1      19.226   0.175  16.152  1.00  0.00     0.162 C 
BRANCH  26  27
HETATM   27  C6  UNL     1      18.046   0.539  16.912  1.00  0.00    -0.004 C 
HETATM   28  C5  UNL     1      17.957   1.418  17.876  1.00  0.00    -0.082 C 
BRANCH  28  29
HETATM   29  C4  UNL     1      16.644   1.691  18.578  1.00  0.00     0.037 C 
BRANCH  29  30
HETATM   30  C3  UNL     1      16.228   0.558  19.469  1.00  0.00     0.030 C 
BRANCH  30  31
HETATM   31  C2  UNL     1      17.220   0.411  20.578  1.00  0.00    -0.037 C 
HETATM   32  C1  UNL     1      17.448   1.346  21.483  1.00  0.00     0.007 C 
ENDBRANCH  30  31
ENDBRANCH  29  30
ENDBRANCH  28  29
BRANCH  28  33
HETATM   33  C32 UNL     1      19.097   2.209  18.357  1.00  0.00     0.035 C 
BRANCH  33  34
HETATM   34  C33 UNL     1      18.670   3.551  18.923  1.00  0.00     0.031 C 
BRANCH  34  35
HETATM   35  C34 UNL     1      19.969   4.305  19.235  1.00  0.00     0.230 C 
BRANCH  35  36
HETATM   36  N5  UNL     1      20.277   5.097  18.055  1.00  0.00    -0.079 N 
ATOM     37  H53 UNL     1      20.155   4.586  17.181  1.00  0.00     0.274 HD
ATOM     38  H52 UNL     1      19.591   5.829  17.869  1.00  0.00     0.274 HD
ATOM     39  H51 UNL     1      21.223   5.454  18.187  1.00  0.00     0.274 HD
ENDBRANCH  35  36
ENDBRANCH  34  35
ENDBRANCH  33  34
ENDBRANCH  28  33
ENDBRANCH  26  27
ENDBRANCH   1  26
BRANCH  23  40
HETATM   40  C27 UNL     1      22.526  -2.118  15.214  1.00  0.00     0.038 C 
BRANCH  40  41
HETATM   41  C28 UNL     1      22.883  -1.899  16.633  1.00  0.00    -0.020 C 
HETATM   42  C29 UNL     1      21.967  -2.569  17.616  1.00  0.00     0.009 C 
HETATM   43  C30 UNL     1      22.846  -0.405  16.986  1.00  0.00     0.009 C 
ENDBRANCH  40  41
ENDBRANCH  23  40
BRANCH  17  44
HETATM   44  C19 UNL     1      21.942  -8.353  15.128  1.00  0.00     0.126 C 
BRANCH  44  45
HETATM   45  S1  UNL     1      21.537  -9.960  14.504  1.00  0.00    -0.163 SA
BRANCH  45  46
HETATM   46  C20 UNL     1      20.711 -11.063  15.645  1.00  0.00     0.074 C 
BRANCH  46  47
HETATM   47  C21 UNL     1      19.384 -11.489  15.018  1.00  0.00     0.010 C 
BRANCH  47  48
HETATM   48  C22 UNL     1      19.224 -10.992  13.620  1.00  0.00    -0.004 C 
HETATM   49  C23 UNL     1      18.529 -11.940  12.691  1.00  0.00     0.005 C 
ENDBRANCH  47  48
ENDBRANCH  46  47
ENDBRANCH  45  46
ENDBRANCH  44  45
ENDBRANCH  17  44
BRANCH  12  50
HETATM   50  C14 UNL     1      17.234  -7.757  13.849  1.00  0.00     0.009 C 
HETATM   51  C15 UNL     1      16.053  -7.496  14.719  1.00  0.00     0.012 C 
HETATM   52  C16 UNL     1      16.735  -8.414  12.558  1.00  0.00     0.012 C 
ENDBRANCH  12  50
TORSDOF 17
ENDMDL
MODEL 5
REMARK VINA RESULT: -7.705041003      1.252      1.863
REMARK  17 active torsions:
REMARK  status: ('A' for Active; 'I' for Inactive)
REMARK    1  A    between atoms: C2_2  and  C3_3 
REMARK    2  A    between atoms: C3_3  and  C4_4 
REMARK    3  A    between atoms: C4_4  and  C5_5 
REMARK    4  A    between atoms: C5_5  and  C32_46 
REMARK    5  A    between atoms: C6_6  and  C7_7 
REMARK    6  A    between atoms: C7_7  and  N1_8 
REMARK    7  A    between atoms: C13_19  and  C14_20 
REMARK    8  A    between atoms: C18_27  and  C19_28 
REMARK    9  A    between atoms: C19_28  and  S1_29 
REMARK   10  A    between atoms: S1_29  and  C20_30 
REMARK   11  A    between atoms: C20_30  and  C21_31 
REMARK   12  A    between atoms: C21_31  and  C22_32 
REMARK   13  A    between atoms: C26_39  and  C27_40 
REMARK   14  A    between atoms: C27_40  and  C28_41 
REMARK   15  A    between atoms: C32_46  and  C33_47 
REMARK   16  A    between atoms: C33_47  and  C34_48 
REMARK   17  A    between atoms: C34_48  and  N5_49 
ROOT
HETATM    1  N1  UNL     1      19.113  -1.293  15.955  1.00  0.00    -0.283 N 
HETATM    2  C8  UNL     1      18.391  -2.221  16.743  1.00  0.00     0.226 C 
HETATM    3  O1  UNL     1      18.018  -1.833  17.900  1.00  0.00    -0.273 OA
HETATM    4  C9  UNL     1      18.031  -3.611  16.338  1.00  0.00     0.105 C 
HETATM    5  C10 UNL     1      16.582  -3.699  15.855  1.00  0.00     0.036 C 
HETATM    6  C11 UNL     1      16.594  -3.426  14.369  1.00  0.00     0.181 C 
HETATM    7  O2  UNL     1      15.786  -4.407  13.744  1.00  0.00    -0.304 OA
HETATM    8  C12 UNL     1      16.176  -5.144  12.647  1.00  0.00     0.361 C 
HETATM    9  O3  UNL     1      15.299  -5.275  11.714  1.00  0.00    -0.238 OA
HETATM   10  N2  UNL     1      17.419  -5.757  12.450  1.00  0.00    -0.323 N 
ATOM     11  H2  UNL     1      17.823  -5.655  11.519  1.00  0.00     0.165 HD
HETATM   12  C13 UNL     1      18.195  -6.508  13.386  1.00  0.00     0.182 C 
HETATM   13  C17 UNL     1      19.512  -6.935  12.783  1.00  0.00     0.245 C 
HETATM   14  O4  UNL     1      19.640  -6.738  11.553  1.00  0.00    -0.271 OA
HETATM   15  N3  UNL     1      20.478  -7.503  13.574  1.00  0.00    -0.331 N 
ATOM     16  H3  UNL     1      20.515  -8.516  13.458  1.00  0.00     0.168 HD
HETATM   17  C18 UNL     1      21.332  -7.095  14.408  1.00  0.00     0.007 C 
HETATM   18  C24 UNL     1      21.538  -5.687  14.804  1.00  0.00     0.156 C 
HETATM   19  C25 UNL     1      21.703  -4.742  13.691  1.00  0.00     0.223 C 
HETATM   20  O5  UNL     1      22.337  -5.068  12.623  1.00  0.00    -0.273 OA
HETATM   21  N4  UNL     1      21.162  -3.425  13.766  1.00  0.00    -0.347 N 
ATOM     22  H4  UNL     1      20.791  -3.012  12.910  1.00  0.00     0.163 HD
HETATM   23  C26 UNL     1      21.104  -2.643  14.973  1.00  0.00     0.177 C 
HETATM   24  C31 UNL     1      20.016  -1.634  14.913  1.00  0.00     0.249 C 
HETATM   25  O6  UNL     1      19.866  -0.998  13.815  1.00  0.00    -0.271 OA
ENDROOT
BRANCH   1  26
HETATM   26  C7  UNL     1      18.891   0.142  16.253  1.00  0.00     0.162 C 
BRANCH  26  27
HETATM   27  C6  UNL     1      19.642   0.624  17.395  1.00  0.00    -0.004 C 
HETATM   28  C5  UNL     1      19.260   1.496  18.293  1.00  0.00    -0.082 C 
BRANCH  28  29
HETATM   29  C4  UNL     1      20.164   1.900  19.437  1.00  0.00     0.037 C 
BRANCH  29  30
HETATM   30  C3  UNL     1      21.580   1.448  19.232  1.00  0.00     0.030 C 
BRANCH  30  31
HETATM   31  C2  UNL     1      22.495   2.627  19.325  1.00  0.00    -0.037 C 
HETATM   32  C1  UNL     1      23.776   2.583  19.007  1.00  0.00     0.007 C 
ENDBRANCH  30  31
ENDBRANCH  29  30
ENDBRANCH  28  29
BRANCH  28  33
HETATM   33  C32 UNL     1      17.944   2.147  18.277  1.00  0.00     0.035 C 
BRANCH  33  34
HETATM   34  C33 UNL     1      17.217   2.011  19.603  1.00  0.00     0.031 C 
BRANCH  34  35
HETATM   35  C34 UNL     1      16.028   1.080  19.334  1.00  0.00     0.230 C 
BRANCH  35  36
HETATM   36  N5  UNL     1      16.445  -0.248  19.754  1.00  0.00    -0.079 N 
ATOM     37  H53 UNL     1      16.819  -0.815  18.992  1.00  0.00     0.274 HD
ATOM     38  H52 UNL     1      17.285  -0.245  20.332  1.00  0.00     0.274 HD
ATOM     39  H51 UNL     1      15.638  -0.671  20.214  1.00  0.00     0.274 HD
ENDBRANCH  35  36
ENDBRANCH  34  35
ENDBRANCH  33  34
ENDBRANCH  28  33
ENDBRANCH  26  27
ENDBRANCH   1  26
BRANCH  23  40
HETATM   40  C27 UNL     1      22.356  -1.894  15.316  1.00  0.00     0.038 C 
BRANCH  40  41
HETATM   41  C28 UNL     1      22.373  -1.114  16.573  1.00  0.00    -0.020 C 
HETATM   42  C29 UNL     1      23.675  -0.421  16.857  1.00  0.00     0.009 C 
HETATM   43  C30 UNL     1      22.113  -2.018  17.787  1.00  0.00     0.009 C 
ENDBRANCH  40  41
ENDBRANCH  23  40
BRANCH  17  44
HETATM   44  C19 UNL     1      22.200  -8.149  15.042  1.00  0.00     0.126 C 
BRANCH  44  45
HETATM   45  S1  UNL     1      21.399  -9.726  15.130  1.00  0.00    -0.163 SA
BRANCH  45  46
HETATM   46  C20 UNL     1      22.247 -11.085  14.333  1.00  0.00     0.074 C 
BRANCH  46  47
HETATM   47  C21 UNL     1      22.318 -10.787  12.835  1.00  0.00     0.010 C 
BRANCH  47  48
HETATM   48  C22 UNL     1      23.657 -11.094  12.252  1.00  0.00    -0.004 C 
HETATM   49  C23 UNL     1      23.785 -10.809  10.787  1.00  0.00     0.005 C 
ENDBRANCH  47  48
ENDBRANCH  46  47
ENDBRANCH  45  46
ENDBRANCH  44  45
ENDBRANCH  17  44
BRANCH  12  50
HETATM   50  C14 UNL     1      17.486  -7.834  13.687  1.00  0.00     0.009 C 
HETATM   51  C15 UNL     1      16.243  -7.674  14.492  1.00  0.00     0.012 C 
HETATM   52  C16 UNL     1      17.111  -8.516  12.367  1.00  0.00     0.012 C 
ENDBRANCH  12  50
TORSDOF 17
ENDMDL
