MODEL 1
REMARK VINA RESULT: -9.872336035      0.000      0.000
REMARK  16 active torsions:
REMARK  status: ('A' for Active; 'I' for Inactive)
REMARK    1  A    between atoms: C2_2  and  C3_3 
REMARK    2  A    between atoms: C5_5  and  C6_6 
REMARK    3  A    between atoms: C6_6  and  C7_7 
REMARK    4  A    between atoms: C6_6  and  N1_10 
REMARK    5  A    between atoms: C7_7  and  O1_8 
REMARK    6  A    between atoms: N1_10  and  C9_12 
REMARK    7  A    between atoms: C9_12  and  C10_13 
REMARK    8  A    between atoms: C9_12  and  C11_16 
REMARK    9  A    between atoms: C10_13  and  O2_14 
REMARK   10  A    between atoms: C11_16  and  C12_17 
REMARK   11  A    between atoms: C21_26  and  C22_27 
REMARK   12  A    between atoms: C22_27  and  O3_28 
REMARK   13  A    between atoms: C24_34  and  C25_35 
REMARK   14  A    between atoms: C25_35  and  N3_36 
REMARK   15  A    between atoms: N3_36  and  S1_38 
REMARK   16  A    between atoms: S1_38  and  C27_41 
ROOT
HETATM    1  C3  UNL     1      20.609  -0.602  16.357  1.00  0.00    -0.002 C 
HETATM    2  C4  UNL     1      21.230   0.467  17.202  1.00  0.00     0.012 C 
HETATM    3  C5  UNL     1      20.783   0.450  18.636  1.00  0.00     0.011 C 
HETATM    4  C18 UNL     1      19.304   0.379  18.638  1.00  0.00     0.012 C 
HETATM    5  C19 UNL     1      18.951  -1.031  18.189  1.00  0.00    -0.001 A 
HETATM    6  C20 UNL     1      18.227  -1.194  16.928  1.00  0.00     0.019 A 
HETATM    7  C21 UNL     1      19.668  -1.548  17.029  1.00  0.00     0.009 A 
ENDROOT
BRANCH   7   8
HETATM    8  C22 UNL     1      20.094  -3.007  16.973  1.00  0.00     0.170 C 
HETATM    9  C23 UNL     1      19.114  -3.944  16.409  1.00  0.00     0.283 C 
HETATM   10  N2  UNL     1      19.380  -4.476  15.071  1.00  0.00    -0.049 N 
HETATM   11  C24 UNL     1      20.665  -5.176  15.102  1.00  0.00     0.307 C 
ATOM     12  H22 UNL     1      18.622  -5.064  14.724  1.00  0.00     0.279 HD
ATOM     13  H21 UNL     1      19.341  -3.758  14.347  1.00  0.00     0.279 HD
HETATM   14  N4  UNL     1      21.683  -4.129  15.349  1.00  0.00    -0.324 N 
HETATM   15  C34 UNL     1      22.847  -3.932  14.538  1.00  0.00     0.155 C 
HETATM   16  C35 UNL     1      21.450  -3.251  16.481  1.00  0.00     0.258 C 
HETATM   17  O6  UNL     1      22.526  -2.757  16.962  1.00  0.00    -0.270 OA
BRANCH   8  18
HETATM   18  O3  UNL     1      20.165  -3.348  18.376  1.00  0.00    -0.378 OA
ATOM     19  H3  UNL     1      19.494  -4.016  18.448  1.00  0.00     0.211 HD
ENDBRANCH   8  18
BRANCH  11  20
HETATM   20  C25 UNL     1      20.955  -5.832  13.825  1.00  0.00     0.189 C 
BRANCH  20  21
HETATM   21  N3  UNL     1      20.564  -7.193  13.700  1.00  0.00    -0.307 N 
HETATM   22  C26 UNL     1      21.504  -8.183  14.086  1.00  0.00     0.163 C 
BRANCH  21  23
HETATM   23  S1  UNL     1      19.710  -7.603  12.286  1.00  0.00     0.260 S 
HETATM   24  O4  UNL     1      20.065  -6.605  11.211  1.00  0.00    -0.200 OA
HETATM   25  O5  UNL     1      19.968  -8.962  11.754  1.00  0.00    -0.200 OA
BRANCH  23  26
HETATM   26  C27 UNL     1      17.985  -7.390  12.653  1.00  0.00     0.079 A 
HETATM   27  C28 UNL     1      17.210  -8.397  13.161  1.00  0.00     0.026 A 
HETATM   28  C29 UNL     1      15.870  -8.150  13.458  1.00  0.00     0.008 A 
HETATM   29  C30 UNL     1      15.288  -6.920  13.259  1.00  0.00    -0.062 A 
HETATM   30  C31 UNL     1      13.867  -6.636  13.582  1.00  0.00     0.048 C 
HETATM   31  C32 UNL     1      16.073  -5.908  12.746  1.00  0.00     0.008 A 
HETATM   32  C33 UNL     1      17.405  -6.149  12.449  1.00  0.00     0.026 A 
ENDBRANCH  23  26
ENDBRANCH  21  23
ENDBRANCH  20  21
ENDBRANCH  11  20
ENDBRANCH   7   8
BRANCH   1  33
HETATM   33  C2  UNL     1      19.962   0.001  15.106  1.00  0.00     0.001 C 
HETATM   34  C1  UNL     1      20.104  -1.014  13.992  1.00  0.00     0.005 C 
ENDBRANCH   1  33
BRANCH   3  35
HETATM   35  C6  UNL     1      21.379   1.682  19.345  1.00  0.00     0.109 C 
BRANCH  35  36
HETATM   36  C7  UNL     1      22.891   1.508  19.251  1.00  0.00     0.192 C 
BRANCH  36  37
HETATM   37  O1  UNL     1      23.457   2.724  18.859  1.00  0.00    -0.394 OA
HETATM   38  C8  UNL     1      24.831   2.693  18.863  1.00  0.00     0.201 C 
ENDBRANCH  36  37
ENDBRANCH  35  36
BRANCH  35  39
HETATM   39  N1  UNL     1      20.897   2.827  18.725  1.00  0.00    -0.385 N 
ATOM     40  H1  UNL     1      21.160   2.983  17.752  1.00  0.00     0.160 HD
BRANCH  39  41
HETATM   41  C9  UNL     1      20.066   3.795  19.345  1.00  0.00     0.025 C 
BRANCH  41  42
HETATM   42  C10 UNL     1      19.162   4.550  18.467  1.00  0.00     0.220 C 
BRANCH  42  43
HETATM   43  O2  UNL     1      19.685   5.565  17.710  1.00  0.00    -0.395 OA
ATOM     44  H2  UNL     1      19.101   6.247  17.401  1.00  0.00     0.209 HD
ENDBRANCH  42  43
ENDBRANCH  41  42
BRANCH  41  45
HETATM   45  C11 UNL     1      19.617   3.460  20.704  1.00  0.00     0.005 C 
BRANCH  45  46
HETATM   46  C12 UNL     1      18.194   3.432  21.111  1.00  0.00     0.010 C 
HETATM   47  C13 UNL     1      18.159   3.957  22.583  1.00  0.00     0.008 C 
HETATM   48  C14 UNL     1      17.815   2.927  23.586  1.00  0.00     0.001 C 
HETATM   49  C15 UNL     1      18.467   1.589  23.385  1.00  0.00     0.000 C 
HETATM   50  C16 UNL     1      18.112   1.066  22.027  1.00  0.00     0.001 C 
HETATM   51  C17 UNL     1      17.476   2.139  21.191  1.00  0.00     0.008 C 
ENDBRANCH  45  46
ENDBRANCH  41  45
ENDBRANCH  39  41
ENDBRANCH  35  39
ENDBRANCH   3  35
TORSDOF 16
ENDMDL
MODEL 2
REMARK VINA RESULT: -9.831006246      2.100      2.803
REMARK  16 active torsions:
REMARK  status: ('A' for Active; 'I' for Inactive)
REMARK    1  A    between atoms: C2_2  and  C3_3 
REMARK    2  A    between atoms: C5_5  and  C6_6 
REMARK    3  A    between atoms: C6_6  and  C7_7 
REMARK    4  A    between atoms: C6_6  and  N1_10 
REMARK    5  A    between atoms: C7_7  and  O1_8 
REMARK    6  A    between atoms: N1_10  and  C9_12 
REMARK    7  A    between atoms: C9_12  and  C10_13 
REMARK    8  A    between atoms: C9_12  and  C11_16 
REMARK    9  A    between atoms: C10_13  and  O2_14 
REMARK   10  A    between atoms: C11_16  and  C12_17 
REMARK   11  A    between atoms: C21_26  and  C22_27 
REMARK   12  A    between atoms: C22_27  and  O3_28 
REMARK   13  A    between atoms: C24_34  and  C25_35 
REMARK   14  A    between atoms: C25_35  and  N3_36 
REMARK   15  A    between atoms: N3_36  and  S1_38 
REMARK   16  A    between atoms: S1_38  and  C27_41 
ROOT
HETATM    1  C3  UNL     1      21.667  -2.066  15.368  1.00  0.00    -0.002 C 
HETATM    2  C4  UNL     1      22.188  -0.927  16.187  1.00  0.00     0.012 C 
HETATM    3  C5  UNL     1      22.327  -1.238  17.650  1.00  0.00     0.011 C 
HETATM    4  C18 UNL     1      21.054  -1.848  18.096  1.00  0.00     0.012 C 
HETATM    5  C19 UNL     1      21.019  -3.241  17.487  1.00  0.00    -0.001 A 
HETATM    6  C20 UNL     1      19.973  -3.543  16.509  1.00  0.00     0.019 A 
HETATM    7  C21 UNL     1      21.384  -3.350  16.078  1.00  0.00     0.009 A 
ENDROOT
BRANCH   7   8
HETATM    8  C22 UNL     1      22.192  -4.538  15.579  1.00  0.00     0.170 C 
HETATM    9  C23 UNL     1      21.793  -5.852  16.098  1.00  0.00     0.283 C 
HETATM   10  N2  UNL     1      21.093  -6.756  15.182  1.00  0.00    -0.049 N 
HETATM   11  C24 UNL     1      21.959  -7.001  14.029  1.00  0.00     0.307 C 
ATOM     12  H22 UNL     1      20.791  -7.618  15.636  1.00  0.00     0.279 HD
ATOM     13  H21 UNL     1      20.172  -6.409  14.915  1.00  0.00     0.279 HD
HETATM   14  N4  UNL     1      22.072  -5.700  13.331  1.00  0.00    -0.324 N 
HETATM   15  C34 UNL     1      21.807  -5.509  11.937  1.00  0.00     0.155 C 
HETATM   16  C35 UNL     1      22.462  -4.560  14.142  1.00  0.00     0.258 C 
HETATM   17  O6  UNL     1      23.041  -3.640  13.469  1.00  0.00    -0.270 OA
BRANCH   8  18
HETATM   18  O3  UNL     1      23.486  -4.284  16.173  1.00  0.00    -0.378 OA
ATOM     19  H3  UNL     1      23.913  -5.127  16.074  1.00  0.00     0.211 HD
ENDBRANCH   8  18
BRANCH  11  20
HETATM   20  C25 UNL     1      21.376  -7.984  13.113  1.00  0.00     0.189 C 
BRANCH  20  21
HETATM   21  N3  UNL     1      20.110  -8.523  13.472  1.00  0.00    -0.307 N 
HETATM   22  C26 UNL     1      20.068  -9.882  13.877  1.00  0.00     0.163 C 
BRANCH  21  23
HETATM   23  S1  UNL     1      18.797  -8.083  12.482  1.00  0.00     0.260 S 
HETATM   24  O4  UNL     1      19.340  -7.626  11.149  1.00  0.00    -0.200 OA
HETATM   25  O5  UNL     1      17.800  -9.151  12.229  1.00  0.00    -0.200 OA
BRANCH  23  26
HETATM   26  C27 UNL     1      18.030  -6.677  13.248  1.00  0.00     0.079 A 
HETATM   27  C28 UNL     1      16.949  -6.789  14.079  1.00  0.00     0.026 A 
HETATM   28  C29 UNL     1      16.417  -5.645  14.674  1.00  0.00     0.008 A 
HETATM   29  C30 UNL     1      16.942  -4.393  14.457  1.00  0.00    -0.062 A 
HETATM   30  C31 UNL     1      16.397  -3.166  15.093  1.00  0.00     0.048 C 
HETATM   31  C32 UNL     1      18.031  -4.284  13.617  1.00  0.00     0.008 A 
HETATM   32  C33 UNL     1      18.563  -5.418  13.024  1.00  0.00     0.026 A 
ENDBRANCH  23  26
ENDBRANCH  21  23
ENDBRANCH  20  21
ENDBRANCH  11  20
ENDBRANCH   7   8
BRANCH   1  33
HETATM   33  C2  UNL     1      20.453  -1.632  14.541  1.00  0.00     0.001 C 
HETATM   34  C1  UNL     1      20.206  -0.168  14.836  1.00  0.00     0.005 C 
ENDBRANCH   1  33
BRANCH   3  35
HETATM   35  C6  UNL     1      22.725   0.056  18.387  1.00  0.00     0.109 C 
BRANCH  35  36
HETATM   36  C7  UNL     1      24.093   0.431  17.829  1.00  0.00     0.192 C 
BRANCH  36  37
HETATM   37  O1  UNL     1      24.921   0.804  18.892  1.00  0.00    -0.394 OA
HETATM   38  C8  UNL     1      25.204   2.150  18.894  1.00  0.00     0.201 C 
ENDBRANCH  36  37
ENDBRANCH  35  36
BRANCH  35  39
HETATM   39  N1  UNL     1      21.740   1.010  18.171  1.00  0.00    -0.385 N 
ATOM     40  H1  UNL     1      21.411   1.141  17.214  1.00  0.00     0.160 HD
BRANCH  39  41
HETATM   41  C9  UNL     1      21.157   1.816  19.181  1.00  0.00     0.025 C 
BRANCH  41  42
HETATM   42  C10 UNL     1      21.687   3.178  19.330  1.00  0.00     0.220 C 
BRANCH  42  43
HETATM   43  O2  UNL     1      21.214   4.156  18.496  1.00  0.00    -0.395 OA
ATOM     44  H2  UNL     1      20.607   4.796  18.848  1.00  0.00     0.209 HD
ENDBRANCH  42  43
ENDBRANCH  41  42
BRANCH  41  45
HETATM   45  C11 UNL     1      19.724   1.584  19.421  1.00  0.00     0.005 C 
BRANCH  45  46
HETATM   46  C12 UNL     1      18.683   1.768  18.387  1.00  0.00     0.010 C 
HETATM   47  C13 UNL     1      17.422   2.304  19.140  1.00  0.00     0.008 C 
HETATM   48  C14 UNL     1      16.300   1.344  19.203  1.00  0.00     0.001 C 
HETATM   49  C15 UNL     1      16.684  -0.076  19.502  1.00  0.00     0.000 C 
HETATM   50  C16 UNL     1      17.657  -0.552  18.468  1.00  0.00     0.001 C 
HETATM   51  C17 UNL     1      18.165   0.595  17.644  1.00  0.00     0.008 C 
ENDBRANCH  45  46
ENDBRANCH  41  45
ENDBRANCH  39  41
ENDBRANCH  35  39
ENDBRANCH   3  35
TORSDOF 16
ENDMDL
MODEL 3
REMARK VINA RESULT: -9.728756004      2.068      3.179
REMARK  16 active torsions:
REMARK  status: ('A' for Active; 'I' for Inactive)
REMARK    1  A    between atoms: C2_2  and  C3_3 
REMARK    2  A    between atoms: C5_5  and  C6_6 
REMARK    3  A    between atoms: C6_6  and  C7_7 
REMARK    4  A    between atoms: C6_6  and  N1_10 
REMARK    5  A    between atoms: C7_7  and  O1_8 
REMARK    6  A    between atoms: N1_10  and  C9_12 
REMARK    7  A    between atoms: C9_12  and  C10_13 
REMARK    8  A    between atoms: C9_12  and  C11_16 
REMARK    9  A    between atoms: C10_13  and  O2_14 
REMARK   10  A    between atoms: C11_16  and  C12_17 
REMARK   11  A    between atoms: C21_26  and  C22_27 
REMARK   12  A    between atoms: C22_27  and  O3_28 
REMARK   13  A    between atoms: C24_34  and  C25_35 
REMARK   14  A    between atoms: C25_35  and  N3_36 
REMARK   15  A    between atoms: N3_36  and  S1_38 
REMARK   16  A    between atoms: S1_38  and  C27_41 
ROOT
HETATM    1  C3  UNL     1      22.171  -1.473  17.643  1.00  0.00    -0.002 C 
HETATM    2  C4  UNL     1      22.207  -0.334  18.612  1.00  0.00     0.012 C 
HETATM    3  C5  UNL     1      21.016   0.579  18.530  1.00  0.00     0.011 C 
HETATM    4  C18 UNL     1      20.823   0.927  17.104  1.00  0.00     0.012 C 
HETATM    5  C19 UNL     1      20.295  -0.330  16.431  1.00  0.00    -0.001 A 
HETATM    6  C20 UNL     1      21.124  -0.967  15.407  1.00  0.00     0.019 A 
HETATM    7  C21 UNL     1      20.975  -1.581  16.753  1.00  0.00     0.009 A 
ENDROOT
BRANCH   7   8
HETATM    8  C22 UNL     1      20.183  -2.870  16.914  1.00  0.00     0.170 C 
HETATM    9  C23 UNL     1      18.731  -2.761  16.731  1.00  0.00     0.283 C 
HETATM   10  N2  UNL     1      18.161  -3.313  15.500  1.00  0.00    -0.049 N 
HETATM   11  C24 UNL     1      18.490  -4.737  15.441  1.00  0.00     0.307 C 
ATOM     12  H22 UNL     1      17.159  -3.138  15.419  1.00  0.00     0.279 HD
ATOM     13  H21 UNL     1      18.459  -2.805  14.667  1.00  0.00     0.279 HD
HETATM   14  N4  UNL     1      19.961  -4.801  15.289  1.00  0.00    -0.324 N 
HETATM   15  C34 UNL     1      20.632  -5.538  14.261  1.00  0.00     0.155 C 
HETATM   16  C35 UNL     1      20.746  -4.044  16.247  1.00  0.00     0.258 C 
HETATM   17  O6  UNL     1      21.920  -4.518  16.421  1.00  0.00    -0.270 OA
BRANCH   8  18
HETATM   18  O3  UNL     1      20.359  -3.150  18.321  1.00  0.00    -0.378 OA
ATOM     19  H3  UNL     1      19.618  -3.718  18.500  1.00  0.00     0.211 HD
ENDBRANCH   8  18
BRANCH  11  20
HETATM   20  C25 UNL     1      17.863  -5.390  14.289  1.00  0.00     0.189 C 
BRANCH  20  21
HETATM   21  N3  UNL     1      16.493  -5.746  14.421  1.00  0.00    -0.307 N 
HETATM   22  C26 UNL     1      16.063  -6.237  15.681  1.00  0.00     0.163 C 
BRANCH  21  23
HETATM   23  S1  UNL     1      15.804  -6.584  13.110  1.00  0.00     0.260 S 
HETATM   24  O4  UNL     1      14.381  -6.940  13.469  1.00  0.00    -0.200 OA
HETATM   25  O5  UNL     1      15.782  -5.851  11.822  1.00  0.00    -0.200 OA
BRANCH  23  26
HETATM   26  C27 UNL     1      16.702  -8.108  12.950  1.00  0.00     0.079 A 
HETATM   27  C28 UNL     1      17.830  -8.221  12.184  1.00  0.00     0.026 A 
HETATM   28  C29 UNL     1      18.506  -9.439  12.130  1.00  0.00     0.008 A 
HETATM   29  C30 UNL     1      18.080 -10.547  12.825  1.00  0.00    -0.062 A 
HETATM   30  C31 UNL     1      18.794 -11.848  12.790  1.00  0.00     0.048 C 
HETATM   31  C32 UNL     1      16.941 -10.429  13.595  1.00  0.00     0.008 A 
HETATM   32  C33 UNL     1      16.266  -9.220  13.651  1.00  0.00     0.026 A 
ENDBRANCH  23  26
ENDBRANCH  21  23
ENDBRANCH  20  21
ENDBRANCH  11  20
ENDBRANCH   7   8
BRANCH   1  33
HETATM   33  C2  UNL     1      23.459  -1.526  16.816  1.00  0.00     0.001 C 
HETATM   34  C1  UNL     1      24.235  -0.259  17.110  1.00  0.00     0.005 C 
ENDBRANCH   1  33
BRANCH   3  35
HETATM   35  C6  UNL     1      21.255   1.777  19.469  1.00  0.00     0.109 C 
BRANCH  35  36
HETATM   36  C7  UNL     1      22.765   1.830  19.676  1.00  0.00     0.192 C 
BRANCH  36  37
HETATM   37  O1  UNL     1      23.276   2.915  18.957  1.00  0.00    -0.394 OA
HETATM   38  C8  UNL     1      24.651   2.951  18.963  1.00  0.00     0.201 C 
ENDBRANCH  36  37
ENDBRANCH  35  36
BRANCH  35  39
HETATM   39  N1  UNL     1      20.720   2.915  18.882  1.00  0.00    -0.385 N 
ATOM     40  H1  UNL     1      21.197   3.294  18.064  1.00  0.00     0.160 HD
BRANCH  39  41
HETATM   41  C9  UNL     1      19.558   3.591  19.335  1.00  0.00     0.025 C 
BRANCH  41  42
HETATM   42  C10 UNL     1      19.058   4.686  18.493  1.00  0.00     0.220 C 
BRANCH  42  43
HETATM   43  O2  UNL     1      19.969   5.473  17.840  1.00  0.00    -0.395 OA
ATOM     44  H2  UNL     1      19.674   5.982  17.095  1.00  0.00     0.209 HD
ENDBRANCH  42  43
ENDBRANCH  41  42
BRANCH  41  45
HETATM   45  C11 UNL     1      18.589   2.756  20.061  1.00  0.00     0.005 C 
BRANCH  45  46
HETATM   46  C12 UNL     1      17.177   2.597  19.647  1.00  0.00     0.010 C 
HETATM   47  C13 UNL     1      16.584   1.481  20.568  1.00  0.00     0.008 C 
HETATM   48  C14 UNL     1      16.276   0.216  19.868  1.00  0.00     0.001 C 
HETATM   49  C15 UNL     1      17.307  -0.237  18.875  1.00  0.00     0.000 C 
HETATM   50  C16 UNL     1      17.509   0.835  17.849  1.00  0.00     0.001 C 
HETATM   51  C17 UNL     1      16.859   2.117  18.281  1.00  0.00     0.008 C 
ENDBRANCH  45  46
ENDBRANCH  41  45
ENDBRANCH  39  41
ENDBRANCH  35  39
ENDBRANCH   3  35
TORSDOF 16
ENDMDL
MODEL 4
REMARK VINA RESULT: -9.620072121      1.420      3.422
REMARK  16 active torsions:
REMARK  status: ('A' for Active; 'I' for Inactive)
REMARK    1  A    between atoms: C2_2  and  C3_3 
REMARK    2  A    between atoms: C5_5  and  C6_6 
REMARK    3  A    between atoms: C6_6  and  C7_7 
REMARK    4  A    between atoms: C6_6  and  N1_10 
REMARK    5  A    between atoms: C7_7  and  O1_8 
REMARK    6  A    between atoms: N1_10  and  C9_12 
REMARK    7  A    between atoms: C9_12  and  C10_13 
REMARK    8  A    between atoms: C9_12  and  C11_16 
REMARK    9  A    between atoms: C10_13  and  O2_14 
REMARK   10  A    between atoms: C11_16  and  C12_17 
REMARK   11  A    between atoms: C21_26  and  C22_27 
REMARK   12  A    between atoms: C22_27  and  O3_28 
REMARK   13  A    between atoms: C24_34  and  C25_35 
REMARK   14  A    between atoms: C25_35  and  N3_36 
REMARK   15  A    between atoms: N3_36  and  S1_38 
REMARK   16  A    between atoms: S1_38  and  C27_41 
ROOT
HETATM    1  C3  UNL     1      20.087  -0.601  16.477  1.00  0.00    -0.002 C 
HETATM    2  C4  UNL     1      20.162   0.486  17.504  1.00  0.00     0.012 C 
HETATM    3  C5  UNL     1      19.253   0.279  18.682  1.00  0.00     0.011 C 
HETATM    4  C18 UNL     1      17.908  -0.042  18.153  1.00  0.00     0.012 C 
HETATM    5  C19 UNL     1      18.005  -1.450  17.588  1.00  0.00    -0.001 A 
HETATM    6  C20 UNL     1      17.811  -1.632  16.148  1.00  0.00     0.019 A 
HETATM    7  C21 UNL     1      19.166  -1.744  16.754  1.00  0.00     0.009 A 
ENDROOT
BRANCH   7   8
HETATM    8  C22 UNL     1      19.849  -3.100  16.833  1.00  0.00     0.170 C 
HETATM    9  C23 UNL     1      19.040  -4.255  16.423  1.00  0.00     0.283 C 
HETATM   10  N2  UNL     1      19.359  -4.882  15.138  1.00  0.00    -0.049 N 
HETATM   11  C24 UNL     1      20.750  -5.332  15.180  1.00  0.00     0.307 C 
ATOM     12  H22 UNL     1      18.710  -5.630  14.896  1.00  0.00     0.279 HD
ATOM     13  H21 UNL     1      19.167  -4.270  14.345  1.00  0.00     0.279 HD
HETATM   14  N4  UNL     1      21.566  -4.100  15.261  1.00  0.00    -0.324 N 
HETATM   15  C34 UNL     1      22.650  -3.793  14.376  1.00  0.00     0.155 C 
HETATM   16  C35 UNL     1      21.212  -3.154  16.303  1.00  0.00     0.258 C 
HETATM   17  O6  UNL     1      22.193  -2.423  16.673  1.00  0.00    -0.270 OA
BRANCH   8  18
HETATM   18  O3  UNL     1      20.024  -3.260  18.260  1.00  0.00    -0.378 OA
ATOM     19  H3  UNL     1      20.041  -4.205  18.349  1.00  0.00     0.211 HD
ENDBRANCH   8  18
BRANCH  11  20
HETATM   20  C25 UNL     1      21.117  -6.069  13.968  1.00  0.00     0.189 C 
BRANCH  20  21
HETATM   21  N3  UNL     1      20.557  -7.366  13.812  1.00  0.00    -0.307 N 
HETATM   22  C26 UNL     1      21.340  -8.471  14.234  1.00  0.00     0.163 C 
BRANCH  21  23
HETATM   23  S1  UNL     1      19.728  -7.658  12.354  1.00  0.00     0.260 S 
HETATM   24  O4  UNL     1      20.136  -6.601  11.356  1.00  0.00    -0.200 OA
HETATM   25  O5  UNL     1      19.963  -8.985  11.739  1.00  0.00    -0.200 OA
BRANCH  23  26
HETATM   26  C27 UNL     1      18.001  -7.420  12.695  1.00  0.00     0.079 A 
HETATM   27  C28 UNL     1      17.217  -8.398  13.245  1.00  0.00     0.026 A 
HETATM   28  C29 UNL     1      15.876  -8.132  13.517  1.00  0.00     0.008 A 
HETATM   29  C30 UNL     1      15.300  -6.912  13.254  1.00  0.00    -0.062 A 
HETATM   30  C31 UNL     1      13.878  -6.607  13.550  1.00  0.00     0.048 C 
HETATM   31  C32 UNL     1      16.094  -5.928  12.698  1.00  0.00     0.008 A 
HETATM   32  C33 UNL     1      17.428  -6.189  12.425  1.00  0.00     0.026 A 
ENDBRANCH  23  26
ENDBRANCH  21  23
ENDBRANCH  20  21
ENDBRANCH  11  20
ENDBRANCH   7   8
BRANCH   1  33
HETATM   33  C2  UNL     1      19.817  -0.019  15.086  1.00  0.00     0.001 C 
HETATM   34  C1  UNL     1      20.313  -1.027  14.072  1.00  0.00     0.005 C 
ENDBRANCH   1  33
BRANCH   3  35
HETATM   35  C6  UNL     1      19.322   1.533  19.575  1.00  0.00     0.109 C 
BRANCH  35  36
HETATM   36  C7  UNL     1      18.285   1.306  20.669  1.00  0.00     0.192 C 
BRANCH  36  37
HETATM   37  O1  UNL     1      18.938   1.275  21.904  1.00  0.00    -0.394 OA
HETATM   38  C8  UNL     1      18.139   1.710  22.936  1.00  0.00     0.201 C 
ENDBRANCH  36  37
ENDBRANCH  35  36
BRANCH  35  39
HETATM   39  N1  UNL     1      20.622   1.675  20.042  1.00  0.00    -0.385 N 
ATOM     40  H1  UNL     1      21.066   0.856  20.458  1.00  0.00     0.160 HD
BRANCH  39  41
HETATM   41  C9  UNL     1      21.378   2.873  19.984  1.00  0.00     0.025 C 
BRANCH  41  42
HETATM   42  C10 UNL     1      21.320   3.750  21.161  1.00  0.00     0.220 C 
BRANCH  42  43
HETATM   43  O2  UNL     1      21.130   3.179  22.391  1.00  0.00    -0.395 OA
ATOM     44  H2  UNL     1      21.724   2.490  22.666  1.00  0.00     0.209 HD
ENDBRANCH  42  43
ENDBRANCH  41  42
BRANCH  41  45
HETATM   45  C11 UNL     1      22.637   2.785  19.228  1.00  0.00     0.005 C 
BRANCH  45  46
HETATM   46  C12 UNL     1      23.863   2.146  19.754  1.00  0.00     0.010 C 
HETATM   47  C13 UNL     1      24.961   2.363  18.662  1.00  0.00     0.008 C 
HETATM   48  C14 UNL     1      25.372   1.128  17.962  1.00  0.00     0.001 C 
HETATM   49  C15 UNL     1      24.255   0.197  17.589  1.00  0.00     0.000 C 
HETATM   50  C16 UNL     1      23.499  -0.187  18.823  1.00  0.00     0.001 C 
HETATM   51  C17 UNL     1      23.891   0.683  19.982  1.00  0.00     0.008 C 
ENDBRANCH  45  46
ENDBRANCH  41  45
ENDBRANCH  39  41
ENDBRANCH  35  39
ENDBRANCH   3  35
TORSDOF 16
ENDMDL
MODEL 5
REMARK VINA RESULT: -9.509437550      2.593     10.588
REMARK  16 active torsions:
REMARK  status: ('A' for Active; 'I' for Inactive)
REMARK    1  A    between atoms: C2_2  and  C3_3 
REMARK    2  A    between atoms: C5_5  and  C6_6 
REMARK    3  A    between atoms: C6_6  and  C7_7 
REMARK    4  A    between atoms: C6_6  and  N1_10 
REMARK    5  A    between atoms: C7_7  and  O1_8 
REMARK    6  A    between atoms: N1_10  and  C9_12 
REMARK    7  A    between atoms: C9_12  and  C10_13 
REMARK    8  A    between atoms: C9_12  and  C11_16 
REMARK    9  A    between atoms: C10_13  and  O2_14 
REMARK   10  A    between atoms: C11_16  and  C12_17 
REMARK   11  A    between atoms: C21_26  and  C22_27 
REMARK   12  A    between atoms: C22_27  and  O3_28 
REMARK   13  A    between atoms: C24_34  and  C25_35 
REMARK   14  A    between atoms: C25_35  and  N3_36 
REMARK   15  A    between atoms: N3_36  and  S1_38 
REMARK   16  A    between atoms: S1_38  and  C27_41 
ROOT
HETATM    1  C3  UNL     1      21.692  -3.580  15.403  1.00  0.00    -0.002 C 
HETATM    2  C4  UNL     1      21.252  -4.493  14.301  1.00  0.00     0.012 C 
HETATM    3  C5  UNL     1      19.760  -4.620  14.170  1.00  0.00     0.011 C 
HETATM    4  C18 UNL     1      19.220  -4.901  15.519  1.00  0.00     0.012 C 
HETATM    5  C19 UNL     1      19.350  -3.604  16.303  1.00  0.00    -0.001 A 
HETATM    6  C20 UNL     1      20.241  -3.584  17.464  1.00  0.00     0.019 A 
HETATM    7  C21 UNL     1      20.625  -2.901  16.199  1.00  0.00     0.009 A 
ENDROOT
BRANCH   7   8
HETATM    8  C22 UNL     1      20.666  -1.382  16.142  1.00  0.00     0.170 C 
HETATM    9  C23 UNL     1      19.420  -0.690  16.495  1.00  0.00     0.283 C 
HETATM   10  N2  UNL     1      19.370  -0.005  17.788  1.00  0.00    -0.049 N 
HETATM   11  C24 UNL     1      20.435   0.998  17.818  1.00  0.00     0.307 C 
ATOM     12  H22 UNL     1      18.451   0.391  17.987  1.00  0.00     0.279 HD
ATOM     13  H21 UNL     1      19.416  -0.651  18.577  1.00  0.00     0.279 HD
HETATM   14  N4  UNL     1      21.703   0.234  17.795  1.00  0.00    -0.324 N 
HETATM   15  C34 UNL     1      22.764   0.409  18.741  1.00  0.00     0.155 C 
HETATM   16  C35 UNL     1      21.844  -0.758  16.745  1.00  0.00     0.258 C 
HETATM   17  O6  UNL     1      23.062  -0.994  16.437  1.00  0.00    -0.270 OA
BRANCH   8  18
HETATM   18  O3  UNL     1      20.833  -1.144  14.726  1.00  0.00    -0.378 OA
ATOM     19  H3  UNL     1      20.362  -0.328  14.610  1.00  0.00     0.211 HD
ENDBRANCH   8  18
BRANCH  11  20
HETATM   20  C25 UNL     1      20.385   1.804  19.040  1.00  0.00     0.189 C 
BRANCH  20  21
HETATM   21  N3  UNL     1      19.712   3.053  18.957  1.00  0.00    -0.307 N 
HETATM   22  C26 UNL     1      20.425   4.209  19.369  1.00  0.00     0.163 C 
BRANCH  21  23
HETATM   23  S1  UNL     1      18.083   3.065  19.451  1.00  0.00     0.260 S 
HETATM   24  O4  UNL     1      17.544   4.464  19.271  1.00  0.00    -0.200 OA
HETATM   25  O5  UNL     1      17.188   2.131  18.727  1.00  0.00    -0.200 OA
BRANCH  23  26
HETATM   26  C27 UNL     1      18.077   2.719  21.193  1.00  0.00     0.079 A 
HETATM   27  C28 UNL     1      18.298   1.466  21.696  1.00  0.00     0.026 A 
HETATM   28  C29 UNL     1      18.313   1.272  23.076  1.00  0.00     0.008 A 
HETATM   29  C30 UNL     1      18.111   2.301  23.966  1.00  0.00    -0.062 A 
HETATM   30  C31 UNL     1      18.136   2.115  25.438  1.00  0.00     0.048 C 
HETATM   31  C32 UNL     1      17.886   3.563  23.454  1.00  0.00     0.008 A 
HETATM   32  C33 UNL     1      17.871   3.760  22.083  1.00  0.00     0.026 A 
ENDBRANCH  23  26
ENDBRANCH  21  23
ENDBRANCH  20  21
ENDBRANCH  11  20
ENDBRANCH   7   8
BRANCH   1  33
HETATM   33  C2  UNL     1      22.686  -4.286  16.330  1.00  0.00     0.001 C 
HETATM   34  C1  UNL     1      23.189  -5.514  15.601  1.00  0.00     0.005 C 
ENDBRANCH   1  33
BRANCH   3  35
HETATM   35  C6  UNL     1      19.456  -5.693  13.107  1.00  0.00     0.109 C 
BRANCH  35  36
HETATM   36  C7  UNL     1      20.754  -5.864  12.325  1.00  0.00     0.192 C 
BRANCH  36  37
HETATM   37  O1  UNL     1      20.439  -6.119  10.987  1.00  0.00    -0.394 OA
HETATM   38  C8  UNL     1      21.135  -5.313  10.117  1.00  0.00     0.201 C 
ENDBRANCH  36  37
ENDBRANCH  35  36
BRANCH  35  39
HETATM   39  N1  UNL     1      19.023  -6.845  13.750  1.00  0.00    -0.385 N 
ATOM     40  H1  UNL     1      19.308  -6.979  14.720  1.00  0.00     0.160 HD
BRANCH  39  41
HETATM   41  C9  UNL     1      18.213  -7.848  13.159  1.00  0.00     0.025 C 
BRANCH  41  42
HETATM   42  C10 UNL     1      18.909  -8.999  12.570  1.00  0.00     0.220 C 
BRANCH  42  43
HETATM   43  O2  UNL     1      19.332  -8.909  11.270  1.00  0.00    -0.395 OA
ATOM     44  H2  UNL     1      19.174  -9.645  10.691  1.00  0.00     0.209 HD
ENDBRANCH  42  43
ENDBRANCH  41  42
BRANCH  41  45
HETATM   45  C11 UNL     1      16.909  -8.063  13.804  1.00  0.00     0.005 C 
BRANCH  45  46
HETATM   46  C12 UNL     1      15.632  -7.559  13.252  1.00  0.00     0.010 C 
HETATM   47  C13 UNL     1      16.022  -6.557  12.117  1.00  0.00     0.008 C 
HETATM   48  C14 UNL     1      15.722  -5.143  12.426  1.00  0.00     0.001 C 
HETATM   49  C15 UNL     1      16.052  -4.706  13.824  1.00  0.00     0.000 C 
HETATM   50  C16 UNL     1      15.314  -5.571  14.798  1.00  0.00     0.001 C 
HETATM   51  C17 UNL     1      14.720  -6.766  14.110  1.00  0.00     0.008 C 
ENDBRANCH  45  46
ENDBRANCH  41  45
ENDBRANCH  39  41
ENDBRANCH  35  39
ENDBRANCH   3  35
TORSDOF 16
ENDMDL
