MODEL 1
REMARK VINA RESULT: -9.185146266      0.000      0.000
REMARK  15 active torsions:
REMARK  status: ('A' for Active; 'I' for Inactive)
REMARK    1  A    between atoms: C2_2  and  C3_3 
REMARK    2  A    between atoms: C3_3  and  C4_4 
REMARK    3  A    between atoms: C4_4  and  C5_5 
REMARK    4  A    between atoms: C5_5  and  C6_6 
REMARK    5  A    between atoms: C6_6  and  C7_7 
REMARK    6  A    between atoms: C7_7  and  C8_8 
REMARK    7  A    between atoms: C8_8  and  C9_9 
REMARK    8  A    between atoms: C9_9  and  C10_10 
REMARK    9  A    between atoms: C10_10  and  C11_11 
REMARK   10  A    between atoms: C12_14  and  O1_15 
REMARK   11  A    between atoms: C22_28  and  C23_29 
REMARK   12  A    between atoms: C23_29  and  C24_30 
REMARK   13  A    between atoms: C28_37  and  C29_38 
REMARK   14  A    between atoms: C35_49  and  C36_50 
REMARK   15  A    between atoms: C36_50  and  O6_51 
ROOT
HETATM    1  C11 UNL     1      18.496  33.706  14.649  1.00  0.00     0.013 C 
HETATM    2  N1  UNL     1      18.471  32.843  13.427  1.00  0.00    -0.344 N 
ATOM      3  H1  UNL     1      17.718  33.215  12.847  1.00  0.00     0.167 HD
HETATM    4  C12 UNL     1      19.013  31.729  12.686  1.00  0.00     0.139 C 
HETATM    5  C13 UNL     1      19.350  30.271  12.909  1.00  0.00     0.170 C 
HETATM    6  C14 UNL     1      18.029  29.484  13.065  1.00  0.00     0.034 C 
HETATM    7  C15 UNL     1      17.759  28.561  11.929  1.00  0.00     0.002 C 
HETATM    8  C16 UNL     1      17.200  29.272  10.701  1.00  0.00     0.000 C 
HETATM    9  C17 UNL     1      16.974  28.150   9.671  1.00  0.00     0.000 C 
HETATM   10  C18 UNL     1      18.178  28.034   8.795  1.00  0.00     0.009 C 
HETATM   11  C19 UNL     1      18.597  26.651   8.441  1.00  0.00     0.103 C 
HETATM   12  C20 UNL     1      18.452  25.640   9.482  1.00  0.00     0.220 C 
HETATM   13  O2  UNL     1      17.392  24.968   9.552  1.00  0.00    -0.273 OA
HETATM   14  N2  UNL     1      19.459  25.338  10.469  1.00  0.00    -0.343 N 
HETATM   15  C21 UNL     1      19.148  24.421  11.549  1.00  0.00     0.153 C 
HETATM   16  C22 UNL     1      20.773  25.928  10.402  1.00  0.00     0.179 C 
HETATM   17  C27 UNL     1      21.461  26.109  11.686  1.00  0.00     0.241 C 
HETATM   18  O3  UNL     1      21.398  25.135  12.517  1.00  0.00    -0.271 OA
HETATM   19  N3  UNL     1      22.192  27.224  12.119  1.00  0.00    -0.346 N 
ATOM     20  H3  UNL     1      23.130  27.050  12.482  1.00  0.00     0.163 HD
HETATM   21  C28 UNL     1      21.733  28.632  12.098  1.00  0.00     0.180 C 
HETATM   22  C32 UNL     1      21.342  28.932  13.479  1.00  0.00     0.250 C 
HETATM   23  O4  UNL     1      22.119  28.340  14.328  1.00  0.00    -0.271 OA
HETATM   24  N4  UNL     1      20.257  29.762  13.956  1.00  0.00    -0.269 N 
HETATM   25  C33 UNL     1      20.260  29.950  15.416  1.00  0.00     0.266 C 
HETATM   26  O5  UNL     1      20.421  28.788  15.972  1.00  0.00    -0.266 OA
HETATM   27  C34 UNL     1      20.150  30.966  16.491  1.00  0.00     0.159 C 
HETATM   28  N5  UNL     1      19.536  32.248  16.782  1.00  0.00    -0.383 N 
ATOM     29  H5  UNL     1      19.115  32.344  17.705  1.00  0.00     0.159 HD
HETATM   30  C35 UNL     1      19.445  33.462  15.881  1.00  0.00     0.150 C 
ENDROOT
BRANCH   1  31
HETATM   31  C10 UNL     1      17.202  34.298  15.008  1.00  0.00     0.055 C 
BRANCH  31  32
HETATM   32  C9  UNL     1      16.008  33.405  15.025  1.00  0.00     0.006 C 
BRANCH  32  33
HETATM   33  C8  UNL     1      15.764  32.924  16.437  1.00  0.00     0.000 C 
BRANCH  33  34
HETATM   34  C7  UNL     1      15.984  34.111  17.381  1.00  0.00     0.000 C 
BRANCH  34  35
HETATM   35  C6  UNL     1      14.629  34.758  17.677  1.00  0.00     0.000 C 
BRANCH  35  36
HETATM   36  C5  UNL     1      14.693  36.206  17.295  1.00  0.00     0.000 C 
BRANCH  36  37
HETATM   37  C4  UNL     1      15.817  36.946  17.996  1.00  0.00     0.000 C 
BRANCH  37  38
HETATM   38  C3  UNL     1      16.564  37.752  16.936  1.00  0.00    -0.000 C 
BRANCH  38  39
HETATM   39  C2  UNL     1      17.951  38.026  17.502  1.00  0.00    -0.005 C 
HETATM   40  C1  UNL     1      18.504  36.733  18.045  1.00  0.00     0.005 C 
ENDBRANCH  38  39
ENDBRANCH  37  38
ENDBRANCH  36  37
ENDBRANCH  35  36
ENDBRANCH  34  35
ENDBRANCH  33  34
ENDBRANCH  32  33
ENDBRANCH  31  32
ENDBRANCH   1  31
BRANCH  30  41
HETATM   41  C36 UNL     1      20.077  32.541  14.947  1.00  0.00     0.195 C 
BRANCH  41  42
HETATM   42  O6  UNL     1      20.736  33.744  14.924  1.00  0.00    -0.398 OA
ATOM     43  H6  UNL     1      21.119  33.160  14.281  1.00  0.00     0.209 HD
ENDBRANCH  41  42
ENDBRANCH  30  41
BRANCH   4  44
HETATM   44  O1  UNL     1      19.272  32.155  11.479  1.00  0.00    -0.348 OA
ATOM     45  H1  UNL     1      18.440  32.313  11.050  1.00  0.00     0.219 HD
ENDBRANCH   4  44
BRANCH  21  46
HETATM   46  C29 UNL     1      22.937  29.434  11.633  1.00  0.00     0.009 C 
HETATM   47  C30 UNL     1      23.477  29.020  10.292  1.00  0.00     0.012 C 
HETATM   48  C31 UNL     1      24.028  29.531  12.675  1.00  0.00     0.012 C 
ENDBRANCH  21  46
BRANCH  16  49
HETATM   49  C23 UNL     1      21.628  24.885   9.643  1.00  0.00     0.039 C 
BRANCH  49  50
HETATM   50  C24 UNL     1      22.145  25.480   8.357  1.00  0.00    -0.020 C 
HETATM   51  C25 UNL     1      23.643  25.740   8.515  1.00  0.00     0.009 C 
HETATM   52  C26 UNL     1      22.059  24.405   7.266  1.00  0.00     0.009 C 
ENDBRANCH  49  50
ENDBRANCH  16  49
TORSDOF 15
ENDMDL
MODEL 2
REMARK VINA RESULT: -8.550391673      0.814      1.150
REMARK  15 active torsions:
REMARK  status: ('A' for Active; 'I' for Inactive)
REMARK    1  A    between atoms: C2_2  and  C3_3 
REMARK    2  A    between atoms: C3_3  and  C4_4 
REMARK    3  A    between atoms: C4_4  and  C5_5 
REMARK    4  A    between atoms: C5_5  and  C6_6 
REMARK    5  A    between atoms: C6_6  and  C7_7 
REMARK    6  A    between atoms: C7_7  and  C8_8 
REMARK    7  A    between atoms: C8_8  and  C9_9 
REMARK    8  A    between atoms: C9_9  and  C10_10 
REMARK    9  A    between atoms: C10_10  and  C11_11 
REMARK   10  A    between atoms: C12_14  and  O1_15 
REMARK   11  A    between atoms: C22_28  and  C23_29 
REMARK   12  A    between atoms: C23_29  and  C24_30 
REMARK   13  A    between atoms: C28_37  and  C29_38 
REMARK   14  A    between atoms: C35_49  and  C36_50 
REMARK   15  A    between atoms: C36_50  and  O6_51 
ROOT
HETATM    1  C11 UNL     1      18.359  33.659  14.550  1.00  0.00     0.013 C 
HETATM    2  N1  UNL     1      18.388  32.790  13.333  1.00  0.00    -0.344 N 
ATOM      3  H1  UNL     1      17.649  33.146  12.727  1.00  0.00     0.167 HD
HETATM    4  C12 UNL     1      18.973  31.681  12.617  1.00  0.00     0.139 C 
HETATM    5  C13 UNL     1      19.326  30.230  12.860  1.00  0.00     0.170 C 
HETATM    6  C14 UNL     1      18.013  29.422  12.976  1.00  0.00     0.034 C 
HETATM    7  C15 UNL     1      17.797  28.488  11.837  1.00  0.00     0.002 C 
HETATM    8  C16 UNL     1      17.268  29.184  10.587  1.00  0.00     0.000 C 
HETATM    9  C17 UNL     1      17.094  28.054   9.556  1.00  0.00     0.000 C 
HETATM   10  C18 UNL     1      18.329  27.953   8.722  1.00  0.00     0.009 C 
HETATM   11  C19 UNL     1      18.782  26.576   8.390  1.00  0.00     0.103 C 
HETATM   12  C20 UNL     1      18.619  25.567   9.430  1.00  0.00     0.220 C 
HETATM   13  O2  UNL     1      17.569  24.878   9.469  1.00  0.00    -0.273 OA
HETATM   14  N2  UNL     1      19.597  25.287  10.452  1.00  0.00    -0.343 N 
HETATM   15  C21 UNL     1      19.265  24.371  11.526  1.00  0.00     0.153 C 
HETATM   16  C22 UNL     1      20.903  25.898  10.425  1.00  0.00     0.179 C 
HETATM   17  C27 UNL     1      21.545  26.097  11.730  1.00  0.00     0.241 C 
HETATM   18  O3  UNL     1      21.470  25.127  12.564  1.00  0.00    -0.271 OA
HETATM   19  N3  UNL     1      22.243  27.227  12.181  1.00  0.00    -0.346 N 
ATOM     20  H3  UNL     1      23.170  27.070  12.576  1.00  0.00     0.163 HD
HETATM   21  C28 UNL     1      21.762  28.627  12.137  1.00  0.00     0.180 C 
HETATM   22  C32 UNL     1      21.320  28.927  13.503  1.00  0.00     0.250 C 
HETATM   23  O4  UNL     1      22.078  28.352  14.380  1.00  0.00    -0.271 OA
HETATM   24  N4  UNL     1      20.206  29.741  13.939  1.00  0.00    -0.269 N 
HETATM   25  C33 UNL     1      20.157  29.937  15.397  1.00  0.00     0.266 C 
HETATM   26  O5  UNL     1      20.318  28.780  15.965  1.00  0.00    -0.266 OA
HETATM   27  C34 UNL     1      19.995  30.957  16.462  1.00  0.00     0.159 C 
HETATM   28  N5  UNL     1      19.351  32.229  16.725  1.00  0.00    -0.383 N 
ATOM     29  H5  UNL     1      18.897  32.323  17.633  1.00  0.00     0.159 HD
HETATM   30  C35 UNL     1      19.269  33.437  15.815  1.00  0.00     0.150 C 
ENDROOT
BRANCH   1  31
HETATM   31  C10 UNL     1      17.043  34.231  14.863  1.00  0.00     0.055 C 
BRANCH  31  32
HETATM   32  C9  UNL     1      16.787  34.665  16.266  1.00  0.00     0.006 C 
BRANCH  32  33
HETATM   33  C8  UNL     1      15.374  34.296  16.653  1.00  0.00     0.000 C 
BRANCH  33  34
HETATM   34  C7  UNL     1      14.958  35.196  17.822  1.00  0.00     0.000 C 
BRANCH  34  35
HETATM   35  C6  UNL     1      15.324  36.643  17.478  1.00  0.00     0.000 C 
BRANCH  35  36
HETATM   36  C5  UNL     1      16.021  37.255  18.655  1.00  0.00     0.000 C 
BRANCH  36  37
HETATM   37  C4  UNL     1      16.208  38.754  18.508  1.00  0.00     0.000 C 
BRANCH  37  38
HETATM   38  C3  UNL     1      16.524  39.033  17.041  1.00  0.00    -0.000 C 
BRANCH  38  39
HETATM   39  C2  UNL     1      16.397  40.539  16.852  1.00  0.00    -0.005 C 
HETATM   40  C1  UNL     1      15.137  40.997  17.542  1.00  0.00     0.005 C 
ENDBRANCH  38  39
ENDBRANCH  37  38
ENDBRANCH  36  37
ENDBRANCH  35  36
ENDBRANCH  34  35
ENDBRANCH  33  34
ENDBRANCH  32  33
ENDBRANCH  31  32
ENDBRANCH   1  31
BRANCH  30  41
HETATM   41  C36 UNL     1      19.948  32.522  14.908  1.00  0.00     0.195 C 
BRANCH  41  42
HETATM   42  O6  UNL     1      20.600  33.729  14.917  1.00  0.00    -0.398 OA
ATOM     43  H6  UNL     1      20.285  33.531  15.791  1.00  0.00     0.209 HD
ENDBRANCH  41  42
ENDBRANCH  30  41
BRANCH   4  44
HETATM   44  O1  UNL     1      19.265  32.105  11.417  1.00  0.00    -0.348 OA
ATOM     45  H1  UNL     1      19.032  31.414  10.809  1.00  0.00     0.219 HD
ENDBRANCH   4  44
BRANCH  21  46
HETATM   46  C29 UNL     1      22.967  29.447  11.708  1.00  0.00     0.009 C 
HETATM   47  C30 UNL     1      23.570  29.022  10.397  1.00  0.00     0.012 C 
HETATM   48  C31 UNL     1      24.013  29.583  12.791  1.00  0.00     0.012 C 
ENDBRANCH  21  46
BRANCH  16  49
HETATM   49  C23 UNL     1      21.800  24.866   9.701  1.00  0.00     0.039 C 
BRANCH  49  50
HETATM   50  C24 UNL     1      22.296  25.439   8.398  1.00  0.00    -0.020 C 
HETATM   51  C25 UNL     1      23.760  25.842   8.575  1.00  0.00     0.009 C 
HETATM   52  C26 UNL     1      22.336  24.307   7.364  1.00  0.00     0.009 C 
ENDBRANCH  49  50
ENDBRANCH  16  49
TORSDOF 15
ENDMDL
MODEL 3
REMARK VINA RESULT: -8.412912795      1.122      1.725
REMARK  15 active torsions:
REMARK  status: ('A' for Active; 'I' for Inactive)
REMARK    1  A    between atoms: C2_2  and  C3_3 
REMARK    2  A    between atoms: C3_3  and  C4_4 
REMARK    3  A    between atoms: C4_4  and  C5_5 
REMARK    4  A    between atoms: C5_5  and  C6_6 
REMARK    5  A    between atoms: C6_6  and  C7_7 
REMARK    6  A    between atoms: C7_7  and  C8_8 
REMARK    7  A    between atoms: C8_8  and  C9_9 
REMARK    8  A    between atoms: C9_9  and  C10_10 
REMARK    9  A    between atoms: C10_10  and  C11_11 
REMARK   10  A    between atoms: C12_14  and  O1_15 
REMARK   11  A    between atoms: C22_28  and  C23_29 
REMARK   12  A    between atoms: C23_29  and  C24_30 
REMARK   13  A    between atoms: C28_37  and  C29_38 
REMARK   14  A    between atoms: C35_49  and  C36_50 
REMARK   15  A    between atoms: C36_50  and  O6_51 
ROOT
HETATM    1  C11 UNL     1      18.334  33.649  14.555  1.00  0.00     0.013 C 
HETATM    2  N1  UNL     1      18.367  32.782  13.336  1.00  0.00    -0.344 N 
ATOM      3  H1  UNL     1      17.626  33.137  12.731  1.00  0.00     0.167 HD
HETATM    4  C12 UNL     1      18.957  31.678  12.617  1.00  0.00     0.139 C 
HETATM    5  C13 UNL     1      19.316  30.228  12.857  1.00  0.00     0.170 C 
HETATM    6  C14 UNL     1      18.007  29.414  12.971  1.00  0.00     0.034 C 
HETATM    7  C15 UNL     1      17.794  28.482  11.830  1.00  0.00     0.002 C 
HETATM    8  C16 UNL     1      17.262  29.179  10.581  1.00  0.00     0.000 C 
HETATM    9  C17 UNL     1      17.093  28.050   9.548  1.00  0.00     0.000 C 
HETATM   10  C18 UNL     1      18.327  27.956   8.713  1.00  0.00     0.009 C 
HETATM   11  C19 UNL     1      18.786  26.582   8.378  1.00  0.00     0.103 C 
HETATM   12  C20 UNL     1      18.628  25.570   9.416  1.00  0.00     0.220 C 
HETATM   13  O2  UNL     1      17.581  24.877   9.453  1.00  0.00    -0.273 OA
HETATM   14  N2  UNL     1      19.608  25.292  10.437  1.00  0.00    -0.343 N 
HETATM   15  C21 UNL     1      19.280  24.372  11.509  1.00  0.00     0.153 C 
HETATM   16  C22 UNL     1      20.911  25.909  10.411  1.00  0.00     0.179 C 
HETATM   17  C27 UNL     1      21.552  26.107  11.717  1.00  0.00     0.241 C 
HETATM   18  O3  UNL     1      21.482  25.135  12.549  1.00  0.00    -0.271 OA
HETATM   19  N3  UNL     1      22.245  27.239  12.170  1.00  0.00    -0.346 N 
ATOM     20  H3  UNL     1      23.174  27.085  12.565  1.00  0.00     0.163 HD
HETATM   21  C28 UNL     1      21.758  28.637  12.130  1.00  0.00     0.180 C 
HETATM   22  C32 UNL     1      21.315  28.932  13.496  1.00  0.00     0.250 C 
HETATM   23  O4  UNL     1      22.076  28.358  14.372  1.00  0.00    -0.271 OA
HETATM   24  N4  UNL     1      20.198  29.740  13.935  1.00  0.00    -0.269 N 
HETATM   25  C33 UNL     1      20.149  29.932  15.393  1.00  0.00     0.266 C 
HETATM   26  O5  UNL     1      20.315  28.775  15.958  1.00  0.00    -0.266 OA
HETATM   27  C34 UNL     1      19.982  30.949  16.461  1.00  0.00     0.159 C 
HETATM   28  N5  UNL     1      19.333  32.218  16.726  1.00  0.00    -0.383 N 
ATOM     29  H5  UNL     1      18.879  32.307  17.635  1.00  0.00     0.159 HD
HETATM   30  C35 UNL     1      19.246  33.427  15.820  1.00  0.00     0.150 C 
ENDROOT
BRANCH   1  31
HETATM   31  C10 UNL     1      17.016  34.214  14.870  1.00  0.00     0.055 C 
BRANCH  31  32
HETATM   32  C9  UNL     1      16.723  34.552  16.292  1.00  0.00     0.006 C 
BRANCH  32  33
HETATM   33  C8  UNL     1      16.461  36.035  16.409  1.00  0.00     0.000 C 
BRANCH  33  34
HETATM   34  C7  UNL     1      17.301  36.569  17.575  1.00  0.00     0.000 C 
BRANCH  34  35
HETATM   35  C6  UNL     1      17.737  35.386  18.444  1.00  0.00     0.000 C 
BRANCH  35  36
HETATM   36  C5  UNL     1      19.186  35.554  18.791  1.00  0.00     0.000 C 
BRANCH  36  37
HETATM   37  C4  UNL     1      19.926  36.437  17.803  1.00  0.00     0.000 C 
BRANCH  37  38
HETATM   38  C3  UNL     1      21.339  35.877  17.661  1.00  0.00    -0.000 C 
BRANCH  38  39
HETATM   39  C2  UNL     1      22.009  36.676  16.552  1.00  0.00    -0.005 C 
HETATM   40  C1  UNL     1      22.885  37.726  17.188  1.00  0.00     0.005 C 
ENDBRANCH  38  39
ENDBRANCH  37  38
ENDBRANCH  36  37
ENDBRANCH  35  36
ENDBRANCH  34  35
ENDBRANCH  33  34
ENDBRANCH  32  33
ENDBRANCH  31  32
ENDBRANCH   1  31
BRANCH  30  41
HETATM   41  C36 UNL     1      19.928  32.518  14.910  1.00  0.00     0.195 C 
BRANCH  41  42
HETATM   42  O6  UNL     1      20.590  33.719  14.942  1.00  0.00    -0.398 OA
ATOM     43  H6  UNL     1      19.716  33.847  14.594  1.00  0.00     0.209 HD
ENDBRANCH  41  42
ENDBRANCH  30  41
BRANCH   4  44
HETATM   44  O1  UNL     1      19.247  32.106  11.418  1.00  0.00    -0.348 OA
ATOM     45  H1  UNL     1      19.644  32.963  11.512  1.00  0.00     0.219 HD
ENDBRANCH   4  44
BRANCH  21  46
HETATM   46  C29 UNL     1      22.959  29.463  11.702  1.00  0.00     0.009 C 
HETATM   47  C30 UNL     1      23.592  29.016  10.413  1.00  0.00     0.012 C 
HETATM   48  C31 UNL     1      23.984  29.640  12.800  1.00  0.00     0.012 C 
ENDBRANCH  21  46
BRANCH  16  49
HETATM   49  C23 UNL     1      21.812  24.882   9.684  1.00  0.00     0.039 C 
BRANCH  49  50
HETATM   50  C24 UNL     1      22.230  25.424   8.341  1.00  0.00    -0.020 C 
HETATM   51  C25 UNL     1      23.724  25.741   8.393  1.00  0.00     0.009 C 
HETATM   52  C26 UNL     1      22.118  24.290   7.314  1.00  0.00     0.009 C 
ENDBRANCH  49  50
ENDBRANCH  16  49
TORSDOF 15
ENDMDL
MODEL 4
REMARK VINA RESULT: -7.779482052      2.457     10.230
REMARK  15 active torsions:
REMARK  status: ('A' for Active; 'I' for Inactive)
REMARK    1  A    between atoms: C2_2  and  C3_3 
REMARK    2  A    between atoms: C3_3  and  C4_4 
REMARK    3  A    between atoms: C4_4  and  C5_5 
REMARK    4  A    between atoms: C5_5  and  C6_6 
REMARK    5  A    between atoms: C6_6  and  C7_7 
REMARK    6  A    between atoms: C7_7  and  C8_8 
REMARK    7  A    between atoms: C8_8  and  C9_9 
REMARK    8  A    between atoms: C9_9  and  C10_10 
REMARK    9  A    between atoms: C10_10  and  C11_11 
REMARK   10  A    between atoms: C12_14  and  O1_15 
REMARK   11  A    between atoms: C22_28  and  C23_29 
REMARK   12  A    between atoms: C23_29  and  C24_30 
REMARK   13  A    between atoms: C28_37  and  C29_38 
REMARK   14  A    between atoms: C35_49  and  C36_50 
REMARK   15  A    between atoms: C36_50  and  O6_51 
ROOT
HETATM    1  C11 UNL     1      20.058  29.062  11.270  1.00  0.00     0.013 C 
HETATM    2  N1  UNL     1      20.344  30.467  11.698  1.00  0.00    -0.344 N 
ATOM      3  H1  UNL     1      21.166  30.751  11.165  1.00  0.00     0.167 HD
HETATM    4  C12 UNL     1      20.001  31.607  12.514  1.00  0.00     0.139 C 
HETATM    5  C13 UNL     1      19.708  31.920  13.966  1.00  0.00     0.170 C 
HETATM    6  C14 UNL     1      21.022  31.779  14.769  1.00  0.00     0.034 C 
HETATM    7  C15 UNL     1      21.536  33.077  15.283  1.00  0.00     0.002 C 
HETATM    8  C16 UNL     1      22.264  33.895  14.220  1.00  0.00     0.000 C 
HETATM    9  C17 UNL     1      22.728  35.165  14.956  1.00  0.00     0.000 C 
HETATM   10  C18 UNL     1      21.705  36.239  14.781  1.00  0.00     0.009 C 
HETATM   11  C19 UNL     1      21.429  37.080  15.976  1.00  0.00     0.103 C 
HETATM   12  C20 UNL     1      21.442  36.403  17.267  1.00  0.00     0.220 C 
HETATM   13  O2  UNL     1      22.507  36.354  17.932  1.00  0.00    -0.273 OA
HETATM   14  N2  UNL     1      20.295  35.764  17.862  1.00  0.00    -0.343 N 
HETATM   15  C21 UNL     1      20.459  34.989  19.077  1.00  0.00     0.153 C 
HETATM   16  C22 UNL     1      18.983  35.883  17.274  1.00  0.00     0.179 C 
HETATM   17  C27 UNL     1      18.071  34.757  17.508  1.00  0.00     0.241 C 
HETATM   18  O3  UNL     1      18.038  34.277  18.696  1.00  0.00    -0.271 OA
HETATM   19  N3  UNL     1      17.216  34.138  16.585  1.00  0.00    -0.346 N 
ATOM     20  H3  UNL     1      16.240  34.027  16.860  1.00  0.00     0.163 HD
HETATM   21  C28 UNL     1      17.596  33.629  15.246  1.00  0.00     0.180 C 
HETATM   22  C32 UNL     1      17.721  32.177  15.405  1.00  0.00     0.250 C 
HETATM   23  O4  UNL     1      16.840  31.716  16.233  1.00  0.00    -0.271 OA
HETATM   24  N4  UNL     1      18.660  31.272  14.777  1.00  0.00    -0.269 N 
HETATM   25  C33 UNL     1      18.389  29.854  15.064  1.00  0.00     0.266 C 
HETATM   26  O5  UNL     1      18.195  29.731  16.342  1.00  0.00    -0.266 OA
HETATM   27  C34 UNL     1      18.253  28.513  14.444  1.00  0.00     0.159 C 
HETATM   28  N5  UNL     1      18.737  27.726  13.326  1.00  0.00    -0.383 N 
ATOM     29  H5  UNL     1      18.984  26.758  13.532  1.00  0.00     0.159 HD
HETATM   30  C35 UNL     1      18.921  28.166  11.889  1.00  0.00     0.150 C 
ENDROOT
BRANCH   1  31
HETATM   31  C10 UNL     1      21.235  28.304  10.831  1.00  0.00     0.055 C 
BRANCH  31  32
HETATM   32  C9  UNL     1      21.103  26.825  10.700  1.00  0.00     0.006 C 
BRANCH  32  33
HETATM   33  C8  UNL     1      22.042  26.150  11.672  1.00  0.00     0.000 C 
BRANCH  33  34
HETATM   34  C7  UNL     1      23.326  25.797  10.914  1.00  0.00     0.000 C 
BRANCH  34  35
HETATM   35  C6  UNL     1      24.518  26.387  11.672  1.00  0.00     0.000 C 
BRANCH  35  36
HETATM   36  C5  UNL     1      25.171  27.424  10.809  1.00  0.00     0.000 C 
BRANCH  36  37
HETATM   37  C4  UNL     1      24.816  28.839  11.224  1.00  0.00     0.000 C 
BRANCH  37  38
HETATM   38  C3  UNL     1      24.829  28.883  12.750  1.00  0.00    -0.000 C 
BRANCH  38  39
HETATM   39  C2  UNL     1      23.662  29.770  13.165  1.00  0.00    -0.005 C 
HETATM   40  C1  UNL     1      22.739  28.958  14.038  1.00  0.00     0.005 C 
ENDBRANCH  38  39
ENDBRANCH  37  38
ENDBRANCH  36  37
ENDBRANCH  35  36
ENDBRANCH  34  35
ENDBRANCH  33  34
ENDBRANCH  32  33
ENDBRANCH  31  32
ENDBRANCH   1  31
BRANCH  30  41
HETATM   41  C36 UNL     1      18.513  29.442  12.460  1.00  0.00     0.195 C 
BRANCH  41  42
HETATM   42  O6  UNL     1      17.776  29.186  11.331  1.00  0.00    -0.398 OA
ATOM     43  H6  UNL     1      17.260  29.703  11.938  1.00  0.00     0.209 HD
ENDBRANCH  41  42
ENDBRANCH  30  41
BRANCH   4  44
HETATM   44  O1  UNL     1      19.936  32.645  11.725  1.00  0.00    -0.348 OA
ATOM     45  H1  UNL     1      19.174  32.531  11.170  1.00  0.00     0.219 HD
ENDBRANCH   4  44
BRANCH  21  46
HETATM   46  C29 UNL     1      16.453  34.032  14.331  1.00  0.00     0.009 C 
HETATM   47  C30 UNL     1      16.360  35.509  14.067  1.00  0.00     0.012 C 
HETATM   48  C31 UNL     1      15.121  33.450  14.748  1.00  0.00     0.012 C 
ENDBRANCH  21  46
BRANCH  16  49
HETATM   49  C23 UNL     1      18.332  37.075  18.015  1.00  0.00     0.039 C 
BRANCH  49  50
HETATM   50  C24 UNL     1      17.205  37.641  17.190  1.00  0.00    -0.020 C 
HETATM   51  C25 UNL     1      15.927  37.600  18.029  1.00  0.00     0.009 C 
HETATM   52  C26 UNL     1      17.473  39.137  16.979  1.00  0.00     0.009 C 
ENDBRANCH  49  50
ENDBRANCH  16  49
TORSDOF 15
ENDMDL
MODEL 5
REMARK VINA RESULT: -7.421349679      0.926      1.801
REMARK  15 active torsions:
REMARK  status: ('A' for Active; 'I' for Inactive)
REMARK    1  A    between atoms: C2_2  and  C3_3 
REMARK    2  A    between atoms: C3_3  and  C4_4 
REMARK    3  A    between atoms: C4_4  and  C5_5 
REMARK    4  A    between atoms: C5_5  and  C6_6 
REMARK    5  A    between atoms: C6_6  and  C7_7 
REMARK    6  A    between atoms: C7_7  and  C8_8 
REMARK    7  A    between atoms: C8_8  and  C9_9 
REMARK    8  A    between atoms: C9_9  and  C10_10 
REMARK    9  A    between atoms: C10_10  and  C11_11 
REMARK   10  A    between atoms: C12_14  and  O1_15 
REMARK   11  A    between atoms: C22_28  and  C23_29 
REMARK   12  A    between atoms: C23_29  and  C24_30 
REMARK   13  A    between atoms: C28_37  and  C29_38 
REMARK   14  A    between atoms: C35_49  and  C36_50 
REMARK   15  A    between atoms: C36_50  and  O6_51 
ROOT
HETATM    1  C11 UNL     1      19.700  33.635  14.636  1.00  0.00     0.013 C 
HETATM    2  N1  UNL     1      19.381  32.780  13.451  1.00  0.00    -0.344 N 
ATOM      3  H1  UNL     1      18.533  33.179  13.048  1.00  0.00     0.167 HD
HETATM    4  C12 UNL     1      19.713  31.654  12.611  1.00  0.00     0.139 C 
HETATM    5  C13 UNL     1      20.043  30.184  12.758  1.00  0.00     0.170 C 
HETATM    6  C14 UNL     1      18.763  29.439  13.199  1.00  0.00     0.034 C 
HETATM    7  C15 UNL     1      18.222  28.531  12.150  1.00  0.00     0.002 C 
HETATM    8  C16 UNL     1      17.434  29.267  11.072  1.00  0.00     0.000 C 
HETATM    9  C17 UNL     1      16.952  28.158  10.117  1.00  0.00     0.000 C 
HETATM   10  C18 UNL     1      17.932  28.009   9.001  1.00  0.00     0.009 C 
HETATM   11  C19 UNL     1      18.220  26.615   8.566  1.00  0.00     0.103 C 
HETATM   12  C20 UNL     1      18.272  25.603   9.615  1.00  0.00     0.220 C 
HETATM   13  O2  UNL     1      17.232  24.965   9.915  1.00  0.00    -0.273 OA
HETATM   14  N2  UNL     1      19.459  25.264  10.359  1.00  0.00    -0.343 N 
HETATM   15  C21 UNL     1      19.361  24.352  11.482  1.00  0.00     0.153 C 
HETATM   16  C22 UNL     1      20.745  25.812  10.006  1.00  0.00     0.179 C 
HETATM   17  C27 UNL     1      21.702  25.964  11.109  1.00  0.00     0.241 C 
HETATM   18  O3  UNL     1      21.790  24.988  11.936  1.00  0.00    -0.271 OA
HETATM   19  N3  UNL     1      22.546  27.053  11.371  1.00  0.00    -0.346 N 
ATOM     20  H3  UNL     1      23.533  26.847  11.522  1.00  0.00     0.163 HD
HETATM   21  C28 UNL     1      22.139  28.475  11.449  1.00  0.00     0.180 C 
HETATM   22  C32 UNL     1      22.067  28.779  12.882  1.00  0.00     0.250 C 
HETATM   23  O4  UNL     1      22.991  28.158  13.542  1.00  0.00    -0.271 OA
HETATM   24  N4  UNL     1      21.139  29.640  13.583  1.00  0.00    -0.269 N 
HETATM   25  C33 UNL     1      21.466  29.820  15.007  1.00  0.00     0.266 C 
HETATM   26  O5  UNL     1      21.706  28.650  15.516  1.00  0.00    -0.266 OA
HETATM   27  C34 UNL     1      21.626  30.833  16.079  1.00  0.00     0.159 C 
HETATM   28  N5  UNL     1      21.131  32.132  16.494  1.00  0.00    -0.383 N 
ATOM     29  H5  UNL     1      20.924  32.236  17.487  1.00  0.00     0.159 HD
HETATM   30  C35 UNL     1      20.886  33.353  15.633  1.00  0.00     0.150 C 
ENDROOT
BRANCH   1  31
HETATM   31  C10 UNL     1      18.534  34.265  15.268  1.00  0.00     0.055 C 
BRANCH  31  32
HETATM   32  C9  UNL     1      18.554  34.443  16.748  1.00  0.00     0.006 C 
BRANCH  32  33
HETATM   33  C8  UNL     1      19.020  35.842  17.077  1.00  0.00     0.000 C 
BRANCH  33  34
HETATM   34  C7  UNL     1      18.275  36.300  18.335  1.00  0.00     0.000 C 
BRANCH  34  35
HETATM   35  C6  UNL     1      17.041  37.099  17.908  1.00  0.00     0.000 C 
BRANCH  35  36
HETATM   36  C5  UNL     1      15.820  36.435  18.470  1.00  0.00     0.000 C 
BRANCH  36  37
HETATM   37  C4  UNL     1      14.703  36.305  17.451  1.00  0.00     0.000 C 
BRANCH  37  38
HETATM   38  C3  UNL     1      15.049  35.128  16.543  1.00  0.00    -0.000 C 
BRANCH  38  39
HETATM   39  C2  UNL     1      15.144  33.903  17.444  1.00  0.00    -0.005 C 
HETATM   40  C1  UNL     1      15.358  32.691  16.573  1.00  0.00     0.005 C 
ENDBRANCH  38  39
ENDBRANCH  37  38
ENDBRANCH  36  37
ENDBRANCH  35  36
ENDBRANCH  34  35
ENDBRANCH  33  34
ENDBRANCH  32  33
ENDBRANCH  31  32
ENDBRANCH   1  31
BRANCH  30  41
HETATM   41  C36 UNL     1      21.269  32.419  14.585  1.00  0.00     0.195 C 
BRANCH  41  42
HETATM   42  O6  UNL     1      21.939  33.603  14.412  1.00  0.00    -0.398 OA
ATOM     43  H6  UNL     1      22.353  32.925  13.892  1.00  0.00     0.209 HD
ENDBRANCH  41  42
ENDBRANCH  30  41
BRANCH   4  44
HETATM   44  O1  UNL     1      19.717  32.077  11.376  1.00  0.00    -0.348 OA
ATOM     45  H1  UNL     1      20.157  31.419  10.852  1.00  0.00     0.219 HD
ENDBRANCH   4  44
BRANCH  21  46
HETATM   46  C29 UNL     1      23.237  29.241  10.732  1.00  0.00     0.009 C 
HETATM   47  C30 UNL     1      23.293  29.001   9.249  1.00  0.00     0.012 C 
HETATM   48  C31 UNL     1      24.595  29.084  11.380  1.00  0.00     0.012 C 
ENDBRANCH  21  46
BRANCH  16  49
HETATM   49  C23 UNL     1      21.381  24.747   9.081  1.00  0.00     0.039 C 
BRANCH  49  50
HETATM   50  C24 UNL     1      22.125  25.420   7.956  1.00  0.00    -0.020 C 
HETATM   51  C25 UNL     1      23.608  25.065   8.080  1.00  0.00     0.009 C 
HETATM   52  C26 UNL     1      21.688  24.769   6.638  1.00  0.00     0.009 C 
ENDBRANCH  49  50
ENDBRANCH  16  49
TORSDOF 15
ENDMDL
