MODEL 1
REMARK VINA RESULT: -9.856421302      0.000      0.000
REMARK  16 active torsions:
REMARK  status: ('A' for Active; 'I' for Inactive)
REMARK       I    between atoms: C2_2  and  N1_4 
REMARK    1  A    between atoms: N1_4  and  C3_6 
REMARK    2  A    between atoms: C3_6  and  C5_8 
REMARK       I    between atoms: C5_8  and  N2_10 
REMARK    3  A    between atoms: N2_10  and  C6_12 
REMARK    4  A    between atoms: C6_12  and  C7_13 
REMARK       I    between atoms: C7_13  and  N3_15 
REMARK    5  A    between atoms: N3_15  and  C8_17 
REMARK    6  A    between atoms: C8_17  and  C9_18 
REMARK    7  A    between atoms: C8_17  and  C14_23 
REMARK    8  A    between atoms: C9_18  and  C10_19 
REMARK       I    between atoms: C14_23  and  N4_25 
REMARK    9  A    between atoms: N4_25  and  C15_27 
REMARK   10  A    between atoms: C15_27  and  C16_28 
REMARK   11  A    between atoms: C15_27  and  C22_36 
REMARK   12  A    between atoms: C16_28  and  C17_29 
REMARK   13  A    between atoms: C17_29  and  C18_30 
REMARK   14  A    between atoms: C18_30  and  N5_31 
REMARK   15  A    between atoms: C22_36  and  O5_37 
REMARK   16  A    between atoms: C22_36  and  N6_39 
ROOT
HETATM    1  C8  UNL     1      21.536  34.830  15.652  1.00  0.00     0.177 C 
ENDROOT
BRANCH   1   2
HETATM    2  N3  UNL     1      20.139  34.956  15.604  1.00  0.00    -0.346 N 
HETATM    3  C7  UNL     1      19.139  34.083  16.125  1.00  0.00     0.246 C 
HETATM    4  O3  UNL     1      19.549  33.037  16.688  1.00  0.00    -0.271 OA
ATOM      5  H3  UNL     1      19.790  35.788  15.130  1.00  0.00     0.163 HD
BRANCH   3   6
HETATM    6  C6  UNL     1      17.679  34.366  16.030  1.00  0.00     0.114 C 
HETATM    7  C32 UNL     1      16.936  33.443  16.950  1.00  0.00     0.041 C 
HETATM    8  C33 UNL     1      15.729  32.880  16.234  1.00  0.00     0.003 C 
HETATM    9  C34 UNL     1      15.015  33.995  15.532  1.00  0.00     0.000 C 
HETATM   10  C35 UNL     1      15.851  34.378  14.320  1.00  0.00     0.003 C 
HETATM   11  C36 UNL     1      17.313  34.098  14.576  1.00  0.00     0.041 C 
BRANCH   6  12
HETATM   12  N2  UNL     1      17.441  35.739  16.400  1.00  0.00    -0.341 N 
HETATM   13  C5  UNL     1      17.416  36.283  17.690  1.00  0.00     0.241 C 
HETATM   14  O2  UNL     1      17.609  35.581  18.694  1.00  0.00    -0.271 OA
ATOM     15  H2  UNL     1      17.271  36.389  15.633  1.00  0.00     0.163 HD
BRANCH  13  16
HETATM   16  C3  UNL     1      17.155  37.744  17.924  1.00  0.00     0.172 C 
HETATM   17  C4  UNL     1      15.638  37.969  18.032  1.00  0.00     0.042 C 
BRANCH  16  18
HETATM   18  N1  UNL     1      17.629  38.578  16.871  1.00  0.00    -0.348 N 
HETATM   19  C2  UNL     1      18.237  39.823  17.178  1.00  0.00     0.214 C 
HETATM   20  C1  UNL     1      18.760  40.757  16.140  1.00  0.00     0.117 C 
HETATM   21  O1  UNL     1      18.354  40.179  18.370  1.00  0.00    -0.274 OA
ATOM     22  H1  UNL     1      17.531  38.282  15.900  1.00  0.00     0.163 HD
ENDBRANCH  16  18
ENDBRANCH  13  16
ENDBRANCH   6  12
ENDBRANCH   3   6
ENDBRANCH   1   2
BRANCH   1  23
HETATM   23  C9  UNL     1      22.374  36.042  15.663  1.00  0.00     0.043 C 
BRANCH  23  24
HETATM   24  C10 UNL     1      21.963  37.208  16.471  1.00  0.00    -0.049 C 
HETATM   25  C11 UNL     1      23.239  37.703  17.208  1.00  0.00     0.014 C 
HETATM   26  C12 UNL     1      20.980  36.866  17.574  1.00  0.00     0.014 C 
HETATM   27  C13 UNL     1      21.439  38.403  15.762  1.00  0.00     0.014 C 
ENDBRANCH  23  24
ENDBRANCH   1  23
BRANCH   1  28
HETATM   28  C14 UNL     1      22.041  33.815  14.641  1.00  0.00     0.241 C 
HETATM   29  O4  UNL     1      23.159  34.097  14.116  1.00  0.00    -0.271 OA
HETATM   30  N4  UNL     1      21.282  32.681  14.352  1.00  0.00    -0.347 N 
ATOM     31  H4  UNL     1      20.393  32.549  14.835  1.00  0.00     0.163 HD
BRANCH  30  32
HETATM   32  C15 UNL     1      21.720  31.665  13.373  1.00  0.00     0.159 C 
BRANCH  32  33
HETATM   33  C16 UNL     1      20.653  31.465  12.336  1.00  0.00     0.035 C 
BRANCH  33  34
HETATM   34  C17 UNL     1      19.288  31.883  12.915  1.00  0.00     0.022 C 
BRANCH  34  35
HETATM   35  C18 UNL     1      18.359  30.731  13.099  1.00  0.00     0.119 C 
BRANCH  35  36
HETATM   36  N5  UNL     1      18.404  29.927  11.914  1.00  0.00    -0.397 N 
HETATM   37  C19 UNL     1      18.209  28.682  11.844  1.00  0.00    -0.026 C 
HETATM   38  C20 UNL     1      18.293  28.002  10.534  1.00  0.00     0.062 C 
HETATM   39  C21 UNL     1      17.889  27.903  13.056  1.00  0.00     0.062 C 
ATOM     40  H5  UNL     1      18.613  30.409  11.041  1.00  0.00     0.159 HD
ENDBRANCH  35  36
ENDBRANCH  34  35
ENDBRANCH  33  34
ENDBRANCH  32  33
BRANCH  32  41
HETATM   41  C22 UNL     1      22.175  30.453  14.074  1.00  0.00     0.137 C 
BRANCH  41  42
HETATM   42  O5  UNL     1      22.201  30.499  15.380  1.00  0.00    -0.348 OA
ATOM     43  H5  UNL     1      23.006  30.802  15.783  1.00  0.00     0.219 HD
ENDBRANCH  41  42
BRANCH  41  44
HETATM   44  N6  UNL     1      22.598  29.226  13.554  1.00  0.00    -0.364 N 
HETATM   45  C23 UNL     1      24.037  28.999  13.389  1.00  0.00     0.125 C 
HETATM   46  C24 UNL     1      24.365  28.671  11.951  1.00  0.00     0.029 C 
HETATM   47  C25 UNL     1      23.340  27.756  11.326  1.00  0.00    -0.037 C 
HETATM   48  C26 UNL     1      24.066  26.603  10.596  1.00  0.00     0.010 C 
HETATM   49  C29 UNL     1      22.600  28.401  10.195  1.00  0.00     0.010 C 
HETATM   50  C30 UNL     1      22.453  27.095  12.319  1.00  0.00     0.029 C 
HETATM   51  C27 UNL     1      24.568  27.252   9.347  1.00  0.00     0.001 C 
HETATM   52  C28 UNL     1      23.480  28.256   8.980  1.00  0.00     0.001 C 
HETATM   53  C31 UNL     1      21.748  28.150  13.160  1.00  0.00     0.125 C 
ENDBRANCH  41  44
ENDBRANCH  32  41
ENDBRANCH  30  32
ENDBRANCH   1  28
TORSDOF 16
ENDMDL
MODEL 2
REMARK VINA RESULT: -9.431566466      1.866      3.801
REMARK  16 active torsions:
REMARK  status: ('A' for Active; 'I' for Inactive)
REMARK       I    between atoms: C2_2  and  N1_4 
REMARK    1  A    between atoms: N1_4  and  C3_6 
REMARK    2  A    between atoms: C3_6  and  C5_8 
REMARK       I    between atoms: C5_8  and  N2_10 
REMARK    3  A    between atoms: N2_10  and  C6_12 
REMARK    4  A    between atoms: C6_12  and  C7_13 
REMARK       I    between atoms: C7_13  and  N3_15 
REMARK    5  A    between atoms: N3_15  and  C8_17 
REMARK    6  A    between atoms: C8_17  and  C9_18 
REMARK    7  A    between atoms: C8_17  and  C14_23 
REMARK    8  A    between atoms: C9_18  and  C10_19 
REMARK       I    between atoms: C14_23  and  N4_25 
REMARK    9  A    between atoms: N4_25  and  C15_27 
REMARK   10  A    between atoms: C15_27  and  C16_28 
REMARK   11  A    between atoms: C15_27  and  C22_36 
REMARK   12  A    between atoms: C16_28  and  C17_29 
REMARK   13  A    between atoms: C17_29  and  C18_30 
REMARK   14  A    between atoms: C18_30  and  N5_31 
REMARK   15  A    between atoms: C22_36  and  O5_37 
REMARK   16  A    between atoms: C22_36  and  N6_39 
ROOT
HETATM    1  C8  UNL     1      20.636  32.716  16.197  1.00  0.00     0.177 C 
ENDROOT
BRANCH   1   2
HETATM    2  N3  UNL     1      19.529  33.443  16.665  1.00  0.00    -0.346 N 
HETATM    3  C7  UNL     1      18.473  34.048  15.923  1.00  0.00     0.246 C 
HETATM    4  O3  UNL     1      18.539  33.947  14.672  1.00  0.00    -0.271 OA
ATOM      5  H3  UNL     1      19.474  33.554  17.677  1.00  0.00     0.163 HD
BRANCH   3   6
HETATM    6  C6  UNL     1      17.333  34.765  16.563  1.00  0.00     0.114 C 
HETATM    7  C32 UNL     1      16.940  34.046  17.819  1.00  0.00     0.041 C 
HETATM    8  C33 UNL     1      15.434  33.927  17.883  1.00  0.00     0.003 C 
HETATM    9  C34 UNL     1      14.826  35.253  17.540  1.00  0.00     0.000 C 
HETATM   10  C35 UNL     1      14.984  35.452  16.040  1.00  0.00     0.003 C 
HETATM   11  C36 UNL     1      16.209  34.726  15.536  1.00  0.00     0.041 C 
BRANCH   6  12
HETATM   12  N2  UNL     1      17.738  36.115  16.865  1.00  0.00    -0.341 N 
HETATM   13  C5  UNL     1      18.598  36.540  17.886  1.00  0.00     0.241 C 
HETATM   14  O2  UNL     1      19.121  35.735  18.671  1.00  0.00    -0.271 OA
ATOM     15  H2  UNL     1      17.353  36.846  16.268  1.00  0.00     0.163 HD
BRANCH  13  16
HETATM   16  C3  UNL     1      18.933  37.991  18.081  1.00  0.00     0.172 C 
HETATM   17  C4  UNL     1      17.632  38.811  18.055  1.00  0.00     0.042 C 
BRANCH  16  18
HETATM   18  N1  UNL     1      19.780  38.518  17.064  1.00  0.00    -0.348 N 
HETATM   19  C2  UNL     1      21.158  38.727  17.333  1.00  0.00     0.214 C 
HETATM   20  C1  UNL     1      22.115  39.272  16.329  1.00  0.00     0.117 C 
HETATM   21  O1  UNL     1      21.619  38.447  18.460  1.00  0.00    -0.274 OA
ATOM     22  H1  UNL     1      19.398  38.745  16.146  1.00  0.00     0.163 HD
ENDBRANCH  16  18
ENDBRANCH  13  16
ENDBRANCH   6  12
ENDBRANCH   3   6
ENDBRANCH   1   2
BRANCH   1  23
HETATM   23  C9  UNL     1      21.446  33.259  15.093  1.00  0.00     0.043 C 
BRANCH  23  24
HETATM   24  C10 UNL     1      22.284  34.454  15.319  1.00  0.00    -0.049 C 
HETATM   25  C11 UNL     1      23.564  34.261  14.459  1.00  0.00     0.014 C 
HETATM   26  C12 UNL     1      22.785  34.584  16.744  1.00  0.00     0.014 C 
HETATM   27  C13 UNL     1      21.743  35.777  14.915  1.00  0.00     0.014 C 
ENDBRANCH  23  24
ENDBRANCH   1  23
BRANCH   1  28
HETATM   28  C14 UNL     1      20.287  31.257  15.964  1.00  0.00     0.241 C 
HETATM   29  O4  UNL     1      19.669  30.697  16.918  1.00  0.00    -0.271 OA
HETATM   30  N4  UNL     1      20.652  30.635  14.770  1.00  0.00    -0.347 N 
ATOM     31  H4  UNL     1      21.148  31.179  14.064  1.00  0.00     0.163 HD
BRANCH  30  32
HETATM   32  C15 UNL     1      20.346  29.217  14.492  1.00  0.00     0.159 C 
BRANCH  32  33
HETATM   33  C16 UNL     1      21.354  28.657  13.530  1.00  0.00     0.035 C 
BRANCH  33  34
HETATM   34  C17 UNL     1      22.597  29.566  13.503  1.00  0.00     0.022 C 
BRANCH  34  35
HETATM   35  C18 UNL     1      23.728  28.979  12.728  1.00  0.00     0.119 C 
BRANCH  35  36
HETATM   36  N5  UNL     1      23.455  29.154  11.334  1.00  0.00    -0.397 N 
HETATM   37  C19 UNL     1      23.911  28.457  10.385  1.00  0.00    -0.026 C 
HETATM   38  C20 UNL     1      23.525  28.776   8.994  1.00  0.00     0.062 C 
HETATM   39  C21 UNL     1      24.815  27.322  10.655  1.00  0.00     0.062 C 
ATOM     40  H5  UNL     1      22.829  29.919  11.082  1.00  0.00     0.159 HD
ENDBRANCH  35  36
ENDBRANCH  34  35
ENDBRANCH  33  34
ENDBRANCH  32  33
BRANCH  32  41
HETATM   41  C22 UNL     1      18.933  29.073  14.103  1.00  0.00     0.137 C 
BRANCH  41  42
HETATM   42  O5  UNL     1      18.037  29.388  15.001  1.00  0.00    -0.348 OA
ATOM     43  H5  UNL     1      17.172  29.009  14.897  1.00  0.00     0.219 HD
ENDBRANCH  41  42
BRANCH  41  44
HETATM   44  N6  UNL     1      18.378  28.640  12.895  1.00  0.00    -0.364 N 
HETATM   45  C23 UNL     1      17.880  27.263  12.812  1.00  0.00     0.125 C 
HETATM   46  C24 UNL     1      18.570  26.511  11.698  1.00  0.00     0.029 C 
HETATM   47  C25 UNL     1      18.759  27.363  10.466  1.00  0.00    -0.037 C 
HETATM   48  C26 UNL     1      18.300  26.568   9.223  1.00  0.00     0.010 C 
HETATM   49  C29 UNL     1      20.202  27.605  10.145  1.00  0.00     0.010 C 
HETATM   50  C30 UNL     1      17.934  28.599  10.469  1.00  0.00     0.029 C 
HETATM   51  C27 UNL     1      19.423  25.608   8.998  1.00  0.00     0.001 C 
HETATM   52  C28 UNL     1      20.672  26.391   9.385  1.00  0.00     0.001 C 
HETATM   53  C31 UNL     1      18.247  29.423  11.709  1.00  0.00     0.125 C 
ENDBRANCH  41  44
ENDBRANCH  32  41
ENDBRANCH  30  32
ENDBRANCH   1  28
TORSDOF 16
ENDMDL
MODEL 3
REMARK VINA RESULT: -9.347307230      3.332     11.034
REMARK  16 active torsions:
REMARK  status: ('A' for Active; 'I' for Inactive)
REMARK       I    between atoms: C2_2  and  N1_4 
REMARK    1  A    between atoms: N1_4  and  C3_6 
REMARK    2  A    between atoms: C3_6  and  C5_8 
REMARK       I    between atoms: C5_8  and  N2_10 
REMARK    3  A    between atoms: N2_10  and  C6_12 
REMARK    4  A    between atoms: C6_12  and  C7_13 
REMARK       I    between atoms: C7_13  and  N3_15 
REMARK    5  A    between atoms: N3_15  and  C8_17 
REMARK    6  A    between atoms: C8_17  and  C9_18 
REMARK    7  A    between atoms: C8_17  and  C14_23 
REMARK    8  A    between atoms: C9_18  and  C10_19 
REMARK       I    between atoms: C14_23  and  N4_25 
REMARK    9  A    between atoms: N4_25  and  C15_27 
REMARK   10  A    between atoms: C15_27  and  C16_28 
REMARK   11  A    between atoms: C15_27  and  C22_36 
REMARK   12  A    between atoms: C16_28  and  C17_29 
REMARK   13  A    between atoms: C17_29  and  C18_30 
REMARK   14  A    between atoms: C18_30  and  N5_31 
REMARK   15  A    between atoms: C22_36  and  O5_37 
REMARK   16  A    between atoms: C22_36  and  N6_39 
ROOT
HETATM    1  C8  UNL     1      22.065  29.139  11.394  1.00  0.00     0.177 C 
ENDROOT
BRANCH   1   2
HETATM    2  N3  UNL     1      21.205  28.491  10.493  1.00  0.00    -0.346 N 
HETATM    3  C7  UNL     1      20.225  27.488  10.749  1.00  0.00     0.246 C 
HETATM    4  O3  UNL     1      20.121  27.100  11.941  1.00  0.00    -0.271 OA
ATOM      5  H3  UNL     1      21.294  28.779   9.519  1.00  0.00     0.163 HD
BRANCH   3   6
HETATM    6  C6  UNL     1      19.352  26.911   9.689  1.00  0.00     0.114 C 
HETATM    7  C32 UNL     1      18.480  27.993   9.124  1.00  0.00     0.041 C 
HETATM    8  C33 UNL     1      17.063  27.483   8.993  1.00  0.00     0.003 C 
HETATM    9  C34 UNL     1      17.090  26.122   8.368  1.00  0.00     0.000 C 
HETATM   10  C35 UNL     1      17.595  25.147   9.422  1.00  0.00     0.003 C 
HETATM   11  C36 UNL     1      18.517  25.848  10.392  1.00  0.00     0.041 C 
BRANCH   6  12
HETATM   12  N2  UNL     1      20.180  26.345   8.653  1.00  0.00    -0.341 N 
HETATM   13  C5  UNL     1      21.115  25.309   8.779  1.00  0.00     0.241 C 
HETATM   14  O2  UNL     1      21.324  24.752   9.867  1.00  0.00    -0.271 OA
ATOM     15  H2  UNL     1      20.074  26.746   7.722  1.00  0.00     0.163 HD
BRANCH  13  16
HETATM   16  C3  UNL     1      21.911  24.820   7.602  1.00  0.00     0.172 C 
HETATM   17  C4  UNL     1      20.962  24.608   6.411  1.00  0.00     0.042 C 
BRANCH  16  18
HETATM   18  N1  UNL     1      22.567  23.578   7.841  1.00  0.00    -0.348 N 
HETATM   19  C2  UNL     1      23.918  23.407   7.444  1.00  0.00     0.214 C 
HETATM   20  C1  UNL     1      24.680  22.144   7.655  1.00  0.00     0.117 C 
HETATM   21  O1  UNL     1      24.524  24.347   6.887  1.00  0.00    -0.274 OA
ATOM     22  H1  UNL     1      22.067  22.814   8.296  1.00  0.00     0.163 HD
ENDBRANCH  16  18
ENDBRANCH  13  16
ENDBRANCH   6  12
ENDBRANCH   3   6
ENDBRANCH   1   2
BRANCH   1  23
HETATM   23  C9  UNL     1      22.866  28.339  12.337  1.00  0.00     0.043 C 
BRANCH  23  24
HETATM   24  C10 UNL     1      24.313  28.164  12.102  1.00  0.00    -0.049 C 
HETATM   25  C11 UNL     1      25.038  28.914  13.255  1.00  0.00     0.014 C 
HETATM   26  C12 UNL     1      24.807  28.828  10.831  1.00  0.00     0.014 C 
HETATM   27  C13 UNL     1      24.867  26.787  12.130  1.00  0.00     0.014 C 
ENDBRANCH  23  24
ENDBRANCH   1  23
BRANCH   1  28
HETATM   28  C14 UNL     1      21.371  30.293  12.097  1.00  0.00     0.241 C 
HETATM   29  O4  UNL     1      20.238  30.603  11.622  1.00  0.00    -0.271 OA
HETATM   30  N4  UNL     1      21.989  30.925  13.176  1.00  0.00    -0.347 N 
ATOM     31  H4  UNL     1      22.904  30.595  13.481  1.00  0.00     0.163 HD
BRANCH  30  32
HETATM   32  C15 UNL     1      21.365  32.056  13.893  1.00  0.00     0.159 C 
BRANCH  32  33
HETATM   33  C16 UNL     1      22.426  33.003  14.373  1.00  0.00     0.035 C 
BRANCH  33  34
HETATM   34  C17 UNL     1      21.849  33.901  15.484  1.00  0.00     0.022 C 
BRANCH  34  35
HETATM   35  C18 UNL     1      21.703  35.324  15.062  1.00  0.00     0.119 C 
BRANCH  35  36
HETATM   36  N5  UNL     1      20.849  35.984  16.004  1.00  0.00    -0.397 N 
HETATM   37  C19 UNL     1      21.202  36.827  16.875  1.00  0.00    -0.026 C 
HETATM   38  C20 UNL     1      20.187  37.417  17.773  1.00  0.00     0.062 C 
HETATM   39  C21 UNL     1      22.615  37.236  16.994  1.00  0.00     0.062 C 
ATOM     40  H5  UNL     1      19.858  35.750  15.967  1.00  0.00     0.159 HD
ENDBRANCH  35  36
ENDBRANCH  34  35
ENDBRANCH  33  34
ENDBRANCH  32  33
BRANCH  32  41
HETATM   41  C22 UNL     1      20.437  31.552  14.920  1.00  0.00     0.137 C 
BRANCH  41  42
HETATM   42  O5  UNL     1      20.936  30.754  15.827  1.00  0.00    -0.348 OA
ATOM     43  H5  UNL     1      21.718  31.051  16.276  1.00  0.00     0.219 HD
ENDBRANCH  41  42
BRANCH  41  44
HETATM   44  N6  UNL     1      19.071  31.794  15.086  1.00  0.00    -0.364 N 
HETATM   45  C23 UNL     1      18.359  32.523  14.031  1.00  0.00     0.125 C 
HETATM   46  C24 UNL     1      17.704  33.765  14.588  1.00  0.00     0.029 C 
HETATM   47  C25 UNL     1      17.085  33.524  15.944  1.00  0.00    -0.037 C 
HETATM   48  C26 UNL     1      15.652  34.104  15.958  1.00  0.00     0.010 C 
HETATM   49  C29 UNL     1      17.736  34.325  17.029  1.00  0.00     0.010 C 
HETATM   50  C30 UNL     1      16.929  32.084  16.276  1.00  0.00     0.029 C 
HETATM   51  C27 UNL     1      15.880  35.576  16.081  1.00  0.00     0.001 C 
HETATM   52  C28 UNL     1      17.107  35.693  16.977  1.00  0.00     0.001 C 
HETATM   53  C31 UNL     1      18.283  31.392  16.206  1.00  0.00     0.125 C 
ENDBRANCH  41  44
ENDBRANCH  32  41
ENDBRANCH  30  32
ENDBRANCH   1  28
TORSDOF 16
ENDMDL
MODEL 4
REMARK VINA RESULT: -9.265415585      1.635      4.156
REMARK  16 active torsions:
REMARK  status: ('A' for Active; 'I' for Inactive)
REMARK       I    between atoms: C2_2  and  N1_4 
REMARK    1  A    between atoms: N1_4  and  C3_6 
REMARK    2  A    between atoms: C3_6  and  C5_8 
REMARK       I    between atoms: C5_8  and  N2_10 
REMARK    3  A    between atoms: N2_10  and  C6_12 
REMARK    4  A    between atoms: C6_12  and  C7_13 
REMARK       I    between atoms: C7_13  and  N3_15 
REMARK    5  A    between atoms: N3_15  and  C8_17 
REMARK    6  A    between atoms: C8_17  and  C9_18 
REMARK    7  A    between atoms: C8_17  and  C14_23 
REMARK    8  A    between atoms: C9_18  and  C10_19 
REMARK       I    between atoms: C14_23  and  N4_25 
REMARK    9  A    between atoms: N4_25  and  C15_27 
REMARK   10  A    between atoms: C15_27  and  C16_28 
REMARK   11  A    between atoms: C15_27  and  C22_36 
REMARK   12  A    between atoms: C16_28  and  C17_29 
REMARK   13  A    between atoms: C17_29  and  C18_30 
REMARK   14  A    between atoms: C18_30  and  N5_31 
REMARK   15  A    between atoms: C22_36  and  O5_37 
REMARK   16  A    between atoms: C22_36  and  N6_39 
ROOT
HETATM    1  C8  UNL     1      17.717  33.030  14.704  1.00  0.00     0.177 C 
ENDROOT
BRANCH   1   2
HETATM    2  N3  UNL     1      18.644  34.020  15.065  1.00  0.00    -0.346 N 
HETATM    3  C7  UNL     1      19.681  33.967  16.043  1.00  0.00     0.246 C 
HETATM    4  O3  UNL     1      19.774  32.899  16.700  1.00  0.00    -0.271 OA
ATOM      5  H3  UNL     1      18.566  34.901  14.557  1.00  0.00     0.163 HD
BRANCH   3   6
HETATM    6  C6  UNL     1      20.622  35.094  16.297  1.00  0.00     0.114 C 
HETATM    7  C32 UNL     1      21.467  35.315  15.077  1.00  0.00     0.041 C 
HETATM    8  C33 UNL     1      22.910  35.500  15.489  1.00  0.00     0.003 C 
HETATM    9  C34 UNL     1      22.969  36.455  16.642  1.00  0.00     0.000 C 
HETATM   10  C35 UNL     1      22.465  35.716  17.872  1.00  0.00     0.003 C 
HETATM   11  C36 UNL     1      21.474  34.646  17.477  1.00  0.00     0.041 C 
BRANCH   6  12
HETATM   12  N2  UNL     1      19.863  36.281  16.601  1.00  0.00    -0.341 N 
HETATM   13  C5  UNL     1      19.150  36.561  17.774  1.00  0.00     0.241 C 
HETATM   14  O2  UNL     1      19.106  35.754  18.715  1.00  0.00    -0.271 OA
ATOM     15  H2  UNL     1      19.842  37.001  15.879  1.00  0.00     0.163 HD
BRANCH  13  16
HETATM   16  C3  UNL     1      18.401  37.851  17.952  1.00  0.00     0.172 C 
HETATM   17  C4  UNL     1      16.916  37.536  18.199  1.00  0.00     0.042 C 
BRANCH  16  18
HETATM   18  N1  UNL     1      18.465  38.703  16.812  1.00  0.00    -0.348 N 
HETATM   19  C2  UNL     1      19.372  39.793  16.798  1.00  0.00     0.214 C 
HETATM   20  C1  UNL     1      19.505  40.734  15.649  1.00  0.00     0.117 C 
HETATM   21  O1  UNL     1      20.110  39.999  17.785  1.00  0.00    -0.274 OA
ATOM     22  H1  UNL     1      17.860  38.530  16.010  1.00  0.00     0.163 HD
ENDBRANCH  16  18
ENDBRANCH  13  16
ENDBRANCH   6  12
ENDBRANCH   3   6
ENDBRANCH   1   2
BRANCH   1  23
HETATM   23  C9  UNL     1      16.766  32.525  15.709  1.00  0.00     0.043 C 
BRANCH  23  24
HETATM   24  C10 UNL     1      15.860  33.467  16.397  1.00  0.00    -0.049 C 
HETATM   25  C11 UNL     1      14.577  32.663  16.750  1.00  0.00     0.014 C 
HETATM   26  C12 UNL     1      15.381  34.603  15.515  1.00  0.00     0.014 C 
HETATM   27  C13 UNL     1      16.309  34.059  17.683  1.00  0.00     0.014 C 
ENDBRANCH  23  24
ENDBRANCH   1  23
BRANCH   1  28
HETATM   28  C14 UNL     1      18.380  31.893  13.947  1.00  0.00     0.241 C 
HETATM   29  O4  UNL     1      18.797  32.195  12.789  1.00  0.00    -0.271 OA
HETATM   30  N4  UNL     1      18.488  30.633  14.536  1.00  0.00    -0.347 N 
ATOM     31  H4  UNL     1      18.120  30.497  15.477  1.00  0.00     0.163 HD
BRANCH  30  32
HETATM   32  C15 UNL     1      19.117  29.489  13.844  1.00  0.00     0.159 C 
BRANCH  32  33
HETATM   33  C16 UNL     1      18.247  28.273  13.979  1.00  0.00     0.035 C 
BRANCH  33  34
HETATM   34  C17 UNL     1      17.614  27.940  12.614  1.00  0.00     0.022 C 
BRANCH  34  35
HETATM   35  C18 UNL     1      18.628  27.722  11.542  1.00  0.00     0.119 C 
BRANCH  35  36
HETATM   36  N5  UNL     1      19.384  26.552  11.872  1.00  0.00    -0.397 N 
HETATM   37  C19 UNL     1      20.151  25.911  11.101  1.00  0.00    -0.026 C 
HETATM   38  C20 UNL     1      20.861  24.716  11.605  1.00  0.00     0.062 C 
HETATM   39  C21 UNL     1      20.352  26.352   9.707  1.00  0.00     0.062 C 
ATOM     40  H5  UNL     1      19.293  26.201  12.825  1.00  0.00     0.159 HD
ENDBRANCH  35  36
ENDBRANCH  34  35
ENDBRANCH  33  34
ENDBRANCH  32  33
BRANCH  32  41
HETATM   41  C22 UNL     1      20.512  29.337  14.288  1.00  0.00     0.137 C 
BRANCH  41  42
HETATM   42  O5  UNL     1      20.702  28.931  15.516  1.00  0.00    -0.348 OA
ATOM     43  H5  UNL     1      21.203  28.132  15.632  1.00  0.00     0.219 HD
ENDBRANCH  41  42
BRANCH  41  44
HETATM   44  N6  UNL     1      21.702  29.564  13.590  1.00  0.00    -0.364 N 
HETATM   45  C23 UNL     1      21.617  30.019  12.198  1.00  0.00     0.125 C 
HETATM   46  C24 UNL     1      22.342  29.065  11.278  1.00  0.00     0.029 C 
HETATM   47  C25 UNL     1      23.637  28.570  11.874  1.00  0.00    -0.037 C 
HETATM   48  C26 UNL     1      24.761  28.694  10.820  1.00  0.00     0.010 C 
HETATM   49  C29 UNL     1      23.633  27.094  12.128  1.00  0.00     0.010 C 
HETATM   50  C30 UNL     1      24.099  29.374  13.036  1.00  0.00     0.029 C 
HETATM   51  C27 UNL     1      24.494  27.547   9.900  1.00  0.00     0.001 C 
HETATM   52  C28 UNL     1      23.981  26.441  10.815  1.00  0.00     0.001 C 
HETATM   53  C31 UNL     1      23.020  29.391  14.110  1.00  0.00     0.125 C 
ENDBRANCH  41  44
ENDBRANCH  32  41
ENDBRANCH  30  32
ENDBRANCH   1  28
TORSDOF 16
ENDMDL
MODEL 5
REMARK VINA RESULT: -9.260855039      1.304      3.320
REMARK  16 active torsions:
REMARK  status: ('A' for Active; 'I' for Inactive)
REMARK       I    between atoms: C2_2  and  N1_4 
REMARK    1  A    between atoms: N1_4  and  C3_6 
REMARK    2  A    between atoms: C3_6  and  C5_8 
REMARK       I    between atoms: C5_8  and  N2_10 
REMARK    3  A    between atoms: N2_10  and  C6_12 
REMARK    4  A    between atoms: C6_12  and  C7_13 
REMARK       I    between atoms: C7_13  and  N3_15 
REMARK    5  A    between atoms: N3_15  and  C8_17 
REMARK    6  A    between atoms: C8_17  and  C9_18 
REMARK    7  A    between atoms: C8_17  and  C14_23 
REMARK    8  A    between atoms: C9_18  and  C10_19 
REMARK       I    between atoms: C14_23  and  N4_25 
REMARK    9  A    between atoms: N4_25  and  C15_27 
REMARK   10  A    between atoms: C15_27  and  C16_28 
REMARK   11  A    between atoms: C15_27  and  C22_36 
REMARK   12  A    between atoms: C16_28  and  C17_29 
REMARK   13  A    between atoms: C17_29  and  C18_30 
REMARK   14  A    between atoms: C18_30  and  N5_31 
REMARK   15  A    between atoms: C22_36  and  O5_37 
REMARK   16  A    between atoms: C22_36  and  N6_39 
ROOT
HETATM    1  C8  UNL     1      21.367  33.894  17.110  1.00  0.00     0.177 C 
ENDROOT
BRANCH   1   2
HETATM    2  N3  UNL     1      19.977  34.064  17.014  1.00  0.00    -0.346 N 
HETATM    3  C7  UNL     1      19.157  34.125  15.849  1.00  0.00     0.246 C 
HETATM    4  O3  UNL     1      19.751  34.042  14.744  1.00  0.00    -0.271 OA
ATOM      5  H3  UNL     1      19.484  34.156  17.902  1.00  0.00     0.163 HD
BRANCH   3   6
HETATM    6  C6  UNL     1      17.675  34.275  15.901  1.00  0.00     0.114 C 
HETATM    7  C32 UNL     1      17.112  33.276  16.867  1.00  0.00     0.041 C 
HETATM    8  C33 UNL     1      15.896  32.615  16.259  1.00  0.00     0.003 C 
HETATM    9  C34 UNL     1      15.020  33.669  15.653  1.00  0.00     0.000 C 
HETATM   10  C35 UNL     1      15.695  34.144  14.376  1.00  0.00     0.003 C 
HETATM   11  C36 UNL     1      17.195  33.995  14.483  1.00  0.00     0.041 C 
BRANCH   6  12
HETATM   12  N2  UNL     1      17.353  35.615  16.323  1.00  0.00    -0.341 N 
HETATM   13  C5  UNL     1      17.305  36.109  17.633  1.00  0.00     0.241 C 
HETATM   14  O2  UNL     1      17.552  35.385  18.609  1.00  0.00    -0.271 OA
ATOM     15  H2  UNL     1      17.134  36.281  15.583  1.00  0.00     0.163 HD
BRANCH  13  16
HETATM   16  C3  UNL     1      16.953  37.540  17.923  1.00  0.00     0.172 C 
HETATM   17  C4  UNL     1      15.434  37.722  17.766  1.00  0.00     0.042 C 
BRANCH  16  18
HETATM   18  N1  UNL     1      17.579  38.467  17.041  1.00  0.00    -0.348 N 
HETATM   19  C2  UNL     1      18.574  39.349  17.535  1.00  0.00     0.214 C 
HETATM   20  C1  UNL     1      19.279  40.348  16.683  1.00  0.00     0.117 C 
HETATM   21  O1  UNL     1      18.894  39.309  18.742  1.00  0.00    -0.274 OA
ATOM     22  H1  UNL     1      17.314  38.495  16.056  1.00  0.00     0.163 HD
ENDBRANCH  16  18
ENDBRANCH  13  16
ENDBRANCH   6  12
ENDBRANCH   3   6
ENDBRANCH   1   2
BRANCH   1  23
HETATM   23  C9  UNL     1      22.264  34.883  16.487  1.00  0.00     0.043 C 
BRANCH  23  24
HETATM   24  C10 UNL     1      21.947  36.322  16.585  1.00  0.00    -0.049 C 
HETATM   25  C11 UNL     1      23.242  37.024  17.081  1.00  0.00     0.014 C 
HETATM   26  C12 UNL     1      20.900  36.643  17.634  1.00  0.00     0.014 C 
HETATM   27  C13 UNL     1      21.569  37.043  15.343  1.00  0.00     0.014 C 
ENDBRANCH  23  24
ENDBRANCH   1  23
BRANCH   1  28
HETATM   28  C14 UNL     1      21.782  32.474  16.765  1.00  0.00     0.241 C 
HETATM   29  O4  UNL     1      22.639  31.964  17.546  1.00  0.00    -0.271 OA
HETATM   30  N4  UNL     1      21.226  31.836  15.655  1.00  0.00    -0.347 N 
ATOM     31  H4  UNL     1      20.540  32.338  15.092  1.00  0.00     0.163 HD
BRANCH  30  32
HETATM   32  C15 UNL     1      21.597  30.460  15.268  1.00  0.00     0.159 C 
BRANCH  32  33
HETATM   33  C16 UNL     1      22.519  30.495  14.084  1.00  0.00     0.035 C 
BRANCH  33  34
HETATM   34  C17 UNL     1      22.827  29.055  13.629  1.00  0.00     0.022 C 
BRANCH  34  35
HETATM   35  C18 UNL     1      24.038  28.966  12.764  1.00  0.00     0.119 C 
BRANCH  35  36
HETATM   36  N5  UNL     1      23.625  29.119  11.401  1.00  0.00    -0.397 N 
HETATM   37  C19 UNL     1      23.988  28.408  10.423  1.00  0.00    -0.026 C 
HETATM   38  C20 UNL     1      23.463  28.702   9.072  1.00  0.00     0.062 C 
HETATM   39  C21 UNL     1      24.920  27.280  10.619  1.00  0.00     0.062 C 
ATOM     40  H5  UNL     1      22.974  29.877  11.200  1.00  0.00     0.159 HD
ENDBRANCH  35  36
ENDBRANCH  34  35
ENDBRANCH  33  34
ENDBRANCH  32  33
BRANCH  32  41
HETATM   41  C22 UNL     1      20.386  29.635  15.119  1.00  0.00     0.137 C 
BRANCH  41  42
HETATM   42  O5  UNL     1      20.141  28.767  16.065  1.00  0.00    -0.348 OA
ATOM     43  H5  UNL     1      19.408  28.179  15.930  1.00  0.00     0.219 HD
ENDBRANCH  41  42
BRANCH  41  44
HETATM   44  N6  UNL     1      19.430  29.626  14.100  1.00  0.00    -0.364 N 
HETATM   45  C23 UNL     1      18.475  28.515  14.050  1.00  0.00     0.125 C 
HETATM   46  C24 UNL     1      18.551  27.803  12.720  1.00  0.00     0.029 C 
HETATM   47  C25 UNL     1      18.713  28.763  11.567  1.00  0.00    -0.037 C 
HETATM   48  C26 UNL     1      17.707  28.393  10.453  1.00  0.00     0.010 C 
HETATM   49  C29 UNL     1      20.018  28.594  10.851  1.00  0.00     0.010 C 
HETATM   50  C30 UNL     1      18.405  30.172  11.922  1.00  0.00     0.029 C 
HETATM   51  C27 UNL     1      18.324  27.188   9.821  1.00  0.00     0.001 C 
HETATM   52  C28 UNL     1      19.823  27.455   9.883  1.00  0.00     0.001 C 
HETATM   53  C31 UNL     1      19.290  30.615  13.079  1.00  0.00     0.125 C 
ENDBRANCH  41  44
ENDBRANCH  32  41
ENDBRANCH  30  32
ENDBRANCH   1  28
TORSDOF 16
ENDMDL
