MODEL 1
REMARK VINA RESULT: -8.487139011      0.000      0.000
REMARK  17 active torsions:
REMARK  status: ('A' for Active; 'I' for Inactive)
REMARK    1  A    between atoms: N1_2  and  C2_4 
REMARK    2  A    between atoms: C2_4  and  C3_5 
REMARK    3  A    between atoms: C2_4  and  C30_47 
REMARK       I    between atoms: C3_5  and  N2_7 
REMARK    4  A    between atoms: N2_7  and  C4_9 
REMARK    5  A    between atoms: C4_9  and  C5_10 
REMARK    6  A    between atoms: C4_9  and  C26_43 
REMARK       I    between atoms: C5_10  and  N3_12 
REMARK    7  A    between atoms: N3_12  and  C6_14 
REMARK    8  A    between atoms: C6_14  and  C7_15 
REMARK    9  A    between atoms: C6_14  and  C10_18 
REMARK   10  A    between atoms: C10_18  and  C11_19 
REMARK   11  A    between atoms: C10_18  and  C21_38 
REMARK   12  A    between atoms: C11_19  and  O3_20 
REMARK   13  A    between atoms: N4_22  and  C13_24 
REMARK   14  A    between atoms: N5_27  and  S1_28 
REMARK   15  A    between atoms: S1_28  and  N6_31 
REMARK   16  A    between atoms: N6_31  and  C16_33 
REMARK   17  A    between atoms: C21_38  and  C23_40 
ROOT
HETATM    1  C6  UNL     1      21.013  30.822  14.568  1.00  0.00     0.051 C 
ENDROOT
BRANCH   1   2
HETATM    2  N3  UNL     1      21.811  30.268  13.537  1.00  0.00    -0.324 N 
HETATM    3  C5  UNL     1      22.254  29.039  13.059  1.00  0.00     0.245 C 
HETATM    4  O2  UNL     1      21.998  27.915  13.537  1.00  0.00    -0.271 OA
ATOM      5  H3  UNL     1      22.184  31.017  12.954  1.00  0.00     0.169 HD
BRANCH   3   6
HETATM    6  C4  UNL     1      23.135  28.988  11.825  1.00  0.00     0.184 C 
BRANCH   6   7
HETATM    7  N2  UNL     1      22.695  27.813  11.048  1.00  0.00    -0.342 N 
HETATM    8  C3  UNL     1      21.683  27.714  10.101  1.00  0.00     0.265 C 
HETATM    9  O1  UNL     1      21.024  28.772   9.795  1.00  0.00    -0.266 OA
ATOM     10  H2  UNL     1      23.206  26.950  11.233  1.00  0.00     0.163 HD
BRANCH   8  11
HETATM   11  C2  UNL     1      21.319  26.455   9.416  1.00  0.00     0.081 C 
BRANCH  11  12
HETATM   12  N1  UNL     1      20.050  26.299   8.895  1.00  0.00    -0.393 N 
HETATM   13  C1  UNL     1      18.917  25.941   9.620  1.00  0.00     0.146 C 
ATOM     14  H1  UNL     1      19.933  26.459   7.894  1.00  0.00     0.159 HD
ENDBRANCH  11  12
BRANCH  11  15
HETATM   15  C30 UNL     1      22.471  25.763   8.735  1.00  0.00    -0.004 C 
HETATM   16  C31 UNL     1      23.417  26.657   8.003  1.00  0.00     0.021 C 
HETATM   17  C32 UNL     1      23.192  24.864   9.747  1.00  0.00     0.021 C 
HETATM   18  C33 UNL     1      21.932  24.766   7.681  1.00  0.00     0.021 C 
ENDBRANCH  11  15
ENDBRANCH   8  11
ENDBRANCH   6   7
BRANCH   6  19
HETATM   19  C26 UNL     1      24.571  28.631  12.183  1.00  0.00    -0.022 C 
HETATM   20  C27 UNL     1      24.761  27.127  12.356  1.00  0.00     0.017 C 
HETATM   21  C28 UNL     1      25.092  29.327  13.411  1.00  0.00     0.017 C 
HETATM   22  C29 UNL     1      25.519  29.004  11.062  1.00  0.00     0.017 C 
ENDBRANCH   6  19
ENDBRANCH   3   6
ENDBRANCH   1   2
BRANCH   1  23
HETATM   23  C7  UNL     1      21.721  31.967  15.158  1.00  0.00    -0.060 C 
HETATM   24  C8  UNL     1      21.771  33.269  14.445  1.00  0.00     0.045 C 
HETATM   25  C9  UNL     1      21.894  32.114  16.616  1.00  0.00     0.045 C 
ENDBRANCH   1  23
BRANCH   1  26
HETATM   26  C10 UNL     1      19.568  30.598  14.549  1.00  0.00     0.044 C 
BRANCH  26  27
HETATM   27  C11 UNL     1      18.768  31.368  15.514  1.00  0.00     0.151 C 
HETATM   28  N4  UNL     1      18.196  32.556  15.614  1.00  0.00    -0.361 N 
HETATM   29  C12 UNL     1      17.918  33.490  14.537  1.00  0.00     0.152 C 
BRANCH  27  30
HETATM   30  O3  UNL     1      18.632  30.589  16.580  1.00  0.00    -0.345 OA
ATOM     31  H3  UNL     1      19.202  30.955  17.245  1.00  0.00     0.219 HD
ENDBRANCH  27  30
BRANCH  28  32
HETATM   32  C13 UNL     1      18.012  33.228  16.949  1.00  0.00     0.088 C 
HETATM   33  C14 UNL     1      18.784  34.414  17.211  1.00  0.00     0.041 C 
HETATM   34  C15 UNL     1      18.291  35.044  18.554  1.00  0.00     0.111 C 
HETATM   35  N5  UNL     1      16.997  35.571  18.335  1.00  0.00    -0.193 NA
HETATM   36  C19 UNL     1      16.273  35.007  17.212  1.00  0.00     0.111 C 
HETATM   37  C20 UNL     1      16.464  33.597  16.900  1.00  0.00     0.041 C 
BRANCH  35  38
HETATM   38  S1  UNL     1      16.894  37.268  18.128  1.00  0.00     0.299 S 
HETATM   39  O4  UNL     1      16.481  37.610  16.695  1.00  0.00    -0.188 OA
HETATM   40  O5  UNL     1      18.308  37.822  18.323  1.00  0.00    -0.188 OA
BRANCH  38  41
HETATM   41  N6  UNL     1      15.809  37.960  19.237  1.00  0.00    -0.303 N 
ATOM     42  H6  UNL     1      15.119  37.412  19.751  1.00  0.00     0.173 HD
BRANCH  41  43
HETATM   43  C16 UNL     1      15.946  39.388  19.391  1.00  0.00     0.086 C 
HETATM   44  C17 UNL     1      15.770  39.838  20.839  1.00  0.00     0.032 C 
HETATM   45  C18 UNL     1      14.968  40.130  18.543  1.00  0.00     0.032 C 
ENDBRANCH  41  43
ENDBRANCH  38  41
ENDBRANCH  35  38
ENDBRANCH  28  32
ENDBRANCH  26  27
BRANCH  26  46
HETATM   46  C21 UNL     1      18.712  30.344  13.376  1.00  0.00    -0.064 C 
HETATM   47  C22 UNL     1      18.711  31.249  12.212  1.00  0.00     0.045 C 
BRANCH  46  48
HETATM   48  C23 UNL     1      18.601  28.874  12.944  1.00  0.00     0.007 C 
HETATM   49  C24 UNL     1      17.574  28.883  11.800  1.00  0.00     0.014 C 
HETATM   50  C25 UNL     1      17.966  28.059  14.034  1.00  0.00     0.014 C 
ENDBRANCH  46  48
ENDBRANCH  26  46
ENDBRANCH   1  26
TORSDOF 17
ENDMDL
MODEL 2
REMARK VINA RESULT: -8.420497657      1.354      1.515
REMARK  17 active torsions:
REMARK  status: ('A' for Active; 'I' for Inactive)
REMARK    1  A    between atoms: N1_2  and  C2_4 
REMARK    2  A    between atoms: C2_4  and  C3_5 
REMARK    3  A    between atoms: C2_4  and  C30_47 
REMARK       I    between atoms: C3_5  and  N2_7 
REMARK    4  A    between atoms: N2_7  and  C4_9 
REMARK    5  A    between atoms: C4_9  and  C5_10 
REMARK    6  A    between atoms: C4_9  and  C26_43 
REMARK       I    between atoms: C5_10  and  N3_12 
REMARK    7  A    between atoms: N3_12  and  C6_14 
REMARK    8  A    between atoms: C6_14  and  C7_15 
REMARK    9  A    between atoms: C6_14  and  C10_18 
REMARK   10  A    between atoms: C10_18  and  C11_19 
REMARK   11  A    between atoms: C10_18  and  C21_38 
REMARK   12  A    between atoms: C11_19  and  O3_20 
REMARK   13  A    between atoms: N4_22  and  C13_24 
REMARK   14  A    between atoms: N5_27  and  S1_28 
REMARK   15  A    between atoms: S1_28  and  N6_31 
REMARK   16  A    between atoms: N6_31  and  C16_33 
REMARK   17  A    between atoms: C21_38  and  C23_40 
ROOT
HETATM    1  C6  UNL     1      20.992  30.834  14.568  1.00  0.00     0.051 C 
ENDROOT
BRANCH   1   2
HETATM    2  N3  UNL     1      21.800  30.283  13.544  1.00  0.00    -0.324 N 
HETATM    3  C5  UNL     1      22.246  29.054  13.066  1.00  0.00     0.245 C 
HETATM    4  O2  UNL     1      21.982  27.929  13.538  1.00  0.00    -0.271 OA
ATOM      5  H3  UNL     1      22.181  31.032  12.967  1.00  0.00     0.169 HD
BRANCH   3   6
HETATM    6  C4  UNL     1      23.140  29.006  11.842  1.00  0.00     0.184 C 
BRANCH   6   7
HETATM    7  N2  UNL     1      22.712  27.829  11.061  1.00  0.00    -0.342 N 
HETATM    8  C3  UNL     1      21.708  27.724  10.107  1.00  0.00     0.265 C 
HETATM    9  O1  UNL     1      21.045  28.778   9.796  1.00  0.00    -0.266 OA
ATOM     10  H2  UNL     1      23.228  26.969  11.249  1.00  0.00     0.163 HD
BRANCH   8  11
HETATM   11  C2  UNL     1      21.357  26.463   9.418  1.00  0.00     0.081 C 
BRANCH  11  12
HETATM   12  N1  UNL     1      20.089  26.296   8.897  1.00  0.00    -0.393 N 
HETATM   13  C1  UNL     1      18.960  25.922   9.619  1.00  0.00     0.146 C 
ATOM     14  H1  UNL     1      19.971  26.461   7.897  1.00  0.00     0.159 HD
ENDBRANCH  11  12
BRANCH  11  15
HETATM   15  C30 UNL     1      22.516  25.784   8.736  1.00  0.00    -0.004 C 
HETATM   16  C31 UNL     1      23.465  26.691   8.024  1.00  0.00     0.021 C 
HETATM   17  C32 UNL     1      23.231  24.872   9.740  1.00  0.00     0.021 C 
HETATM   18  C33 UNL     1      21.987  24.801   7.664  1.00  0.00     0.021 C 
ENDBRANCH  11  15
ENDBRANCH   8  11
ENDBRANCH   6   7
BRANCH   6  19
HETATM   19  C26 UNL     1      24.574  28.654  12.214  1.00  0.00    -0.022 C 
HETATM   20  C27 UNL     1      24.776  27.148  12.355  1.00  0.00     0.017 C 
HETATM   21  C28 UNL     1      25.067  29.326  13.467  1.00  0.00     0.017 C 
HETATM   22  C29 UNL     1      25.536  29.063  11.120  1.00  0.00     0.017 C 
ENDBRANCH   6  19
ENDBRANCH   3   6
ENDBRANCH   1   2
BRANCH   1  23
HETATM   23  C7  UNL     1      21.689  31.985  15.159  1.00  0.00    -0.060 C 
HETATM   24  C8  UNL     1      21.685  33.302  14.471  1.00  0.00     0.045 C 
HETATM   25  C9  UNL     1      21.902  32.109  16.614  1.00  0.00     0.045 C 
ENDBRANCH   1  23
BRANCH   1  26
HETATM   26  C10 UNL     1      19.549  30.601  14.541  1.00  0.00     0.044 C 
BRANCH  26  27
HETATM   27  C11 UNL     1      18.741  31.345  15.519  1.00  0.00     0.151 C 
HETATM   28  N4  UNL     1      18.145  32.520  15.635  1.00  0.00    -0.361 N 
HETATM   29  C12 UNL     1      17.837  33.457  14.569  1.00  0.00     0.152 C 
BRANCH  27  30
HETATM   30  O3  UNL     1      18.632  30.555  16.580  1.00  0.00    -0.345 OA
ATOM     31  H3  UNL     1      17.724  30.277  16.607  1.00  0.00     0.219 HD
ENDBRANCH  27  30
BRANCH  28  32
HETATM   32  C13 UNL     1      17.959  33.177  16.977  1.00  0.00     0.088 C 
HETATM   33  C14 UNL     1      18.806  34.294  17.296  1.00  0.00     0.041 C 
HETATM   34  C15 UNL     1      18.309  34.933  18.634  1.00  0.00     0.111 C 
HETATM   35  N5  UNL     1      17.067  35.561  18.378  1.00  0.00    -0.193 NA
HETATM   36  C19 UNL     1      16.349  35.077  17.215  1.00  0.00     0.111 C 
HETATM   37  C20 UNL     1      16.446  33.663  16.878  1.00  0.00     0.041 C 
BRANCH  35  38
HETATM   38  S1  UNL     1      17.101  37.265  18.208  1.00  0.00     0.299 S 
HETATM   39  O4  UNL     1      16.036  37.914  19.095  1.00  0.00    -0.188 OA
HETATM   40  O5  UNL     1      16.711  37.570  16.759  1.00  0.00    -0.188 OA
BRANCH  38  41
HETATM   41  N6  UNL     1      18.637  37.891  18.572  1.00  0.00    -0.303 N 
ATOM     42  H6  UNL     1      18.963  38.034  19.528  1.00  0.00     0.173 HD
BRANCH  41  43
HETATM   43  C16 UNL     1      19.442  38.202  17.416  1.00  0.00     0.086 C 
HETATM   44  C17 UNL     1      20.809  37.523  17.458  1.00  0.00     0.032 C 
HETATM   45  C18 UNL     1      19.649  39.671  17.266  1.00  0.00     0.032 C 
ENDBRANCH  41  43
ENDBRANCH  38  41
ENDBRANCH  35  38
ENDBRANCH  28  32
ENDBRANCH  26  27
BRANCH  26  46
HETATM   46  C21 UNL     1      18.697  30.366  13.360  1.00  0.00    -0.064 C 
HETATM   47  C22 UNL     1      18.697  31.293  12.214  1.00  0.00     0.045 C 
BRANCH  46  48
HETATM   48  C23 UNL     1      18.593  28.905  12.900  1.00  0.00     0.007 C 
HETATM   49  C24 UNL     1      17.557  28.929  11.764  1.00  0.00     0.014 C 
HETATM   50  C25 UNL     1      17.971  28.064  13.979  1.00  0.00     0.014 C 
ENDBRANCH  46  48
ENDBRANCH  26  46
ENDBRANCH   1  26
TORSDOF 17
ENDMDL
MODEL 3
REMARK VINA RESULT: -8.265857627      3.210     10.629
REMARK  17 active torsions:
REMARK  status: ('A' for Active; 'I' for Inactive)
REMARK    1  A    between atoms: N1_2  and  C2_4 
REMARK    2  A    between atoms: C2_4  and  C3_5 
REMARK    3  A    between atoms: C2_4  and  C30_47 
REMARK       I    between atoms: C3_5  and  N2_7 
REMARK    4  A    between atoms: N2_7  and  C4_9 
REMARK    5  A    between atoms: C4_9  and  C5_10 
REMARK    6  A    between atoms: C4_9  and  C26_43 
REMARK       I    between atoms: C5_10  and  N3_12 
REMARK    7  A    between atoms: N3_12  and  C6_14 
REMARK    8  A    between atoms: C6_14  and  C7_15 
REMARK    9  A    between atoms: C6_14  and  C10_18 
REMARK   10  A    between atoms: C10_18  and  C11_19 
REMARK   11  A    between atoms: C10_18  and  C21_38 
REMARK   12  A    between atoms: C11_19  and  O3_20 
REMARK   13  A    between atoms: N4_22  and  C13_24 
REMARK   14  A    between atoms: N5_27  and  S1_28 
REMARK   15  A    between atoms: S1_28  and  N6_31 
REMARK   16  A    between atoms: N6_31  and  C16_33 
REMARK   17  A    between atoms: C21_38  and  C23_40 
ROOT
HETATM    1  C6  UNL     1      20.476  32.999  14.332  1.00  0.00     0.051 C 
ENDROOT
BRANCH   1   2
HETATM    2  N3  UNL     1      20.726  34.009  15.293  1.00  0.00    -0.324 N 
HETATM    3  C5  UNL     1      21.093  34.161  16.627  1.00  0.00     0.245 C 
HETATM    4  O2  UNL     1      21.324  33.250  17.446  1.00  0.00    -0.271 OA
ATOM      5  H3  UNL     1      20.595  34.926  14.868  1.00  0.00     0.169 HD
BRANCH   3   6
HETATM    6  C4  UNL     1      21.256  35.554  17.204  1.00  0.00     0.184 C 
BRANCH   6   7
HETATM    7  N2  UNL     1      19.972  36.248  16.984  1.00  0.00    -0.342 N 
HETATM    8  C3  UNL     1      19.213  36.996  17.876  1.00  0.00     0.265 C 
HETATM    9  O1  UNL     1      19.659  37.168  19.067  1.00  0.00    -0.266 OA
ATOM     10  H2  UNL     1      19.587  36.167  16.043  1.00  0.00     0.163 HD
BRANCH   8  11
HETATM   11  C2  UNL     1      17.914  37.615  17.532  1.00  0.00     0.081 C 
BRANCH  11  12
HETATM   12  N1  UNL     1      17.838  38.518  16.491  1.00  0.00    -0.393 N 
HETATM   13  C1  UNL     1      18.368  39.805  16.496  1.00  0.00     0.146 C 
ATOM     14  H1  UNL     1      17.352  38.216  15.646  1.00  0.00     0.159 HD
ENDBRANCH  11  12
BRANCH  11  15
HETATM   15  C30 UNL     1      16.717  36.750  17.830  1.00  0.00    -0.004 C 
HETATM   16  C31 UNL     1      17.022  35.353  18.263  1.00  0.00     0.021 C 
HETATM   17  C32 UNL     1      15.802  37.476  18.824  1.00  0.00     0.021 C 
HETATM   18  C33 UNL     1      15.841  36.616  16.561  1.00  0.00     0.021 C 
ENDBRANCH  11  15
ENDBRANCH   8  11
ENDBRANCH   6   7
BRANCH   6  19
HETATM   19  C26 UNL     1      22.228  36.387  16.379  1.00  0.00    -0.022 C 
HETATM   20  C27 UNL     1      21.516  37.197  15.300  1.00  0.00     0.017 C 
HETATM   21  C28 UNL     1      23.329  35.588  15.735  1.00  0.00     0.017 C 
HETATM   22  C29 UNL     1      22.918  37.425  17.238  1.00  0.00     0.017 C 
ENDBRANCH   6  19
ENDBRANCH   3   6
ENDBRANCH   1   2
BRANCH   1  23
HETATM   23  C7  UNL     1      21.696  32.200  14.149  1.00  0.00    -0.060 C 
HETATM   24  C8  UNL     1      22.987  32.861  13.826  1.00  0.00     0.045 C 
HETATM   25  C9  UNL     1      21.881  30.890  14.804  1.00  0.00     0.045 C 
ENDBRANCH   1  23
BRANCH   1  26
HETATM   26  C10 UNL     1      19.100  32.567  14.093  1.00  0.00     0.044 C 
BRANCH  26  27
HETATM   27  C11 UNL     1      18.899  31.548  13.051  1.00  0.00     0.151 C 
HETATM   28  N4  UNL     1      18.724  30.242  12.951  1.00  0.00    -0.361 N 
HETATM   29  C12 UNL     1      18.353  29.323  14.013  1.00  0.00     0.152 C 
BRANCH  27  30
HETATM   30  O3  UNL     1      18.932  32.199  11.894  1.00  0.00    -0.345 OA
ATOM     31  H3  UNL     1      19.196  31.561  11.242  1.00  0.00     0.219 HD
ENDBRANCH  27  30
BRANCH  28  32
HETATM   32  C13 UNL     1      19.179  29.479  11.735  1.00  0.00     0.088 C 
HETATM   33  C14 UNL     1      20.592  29.433  11.468  1.00  0.00     0.041 C 
HETATM   34  C15 UNL     1      20.845  28.436  10.290  1.00  0.00     0.111 C 
HETATM   35  N5  UNL     1      20.587  27.129  10.767  1.00  0.00    -0.193 NA
HETATM   36  C19 UNL     1      19.728  27.046  11.933  1.00  0.00     0.111 C 
HETATM   37  C20 UNL     1      18.650  28.015  12.071  1.00  0.00     0.041 C 
BRANCH  35  38
HETATM   38  S1  UNL     1      21.959  26.178  11.151  1.00  0.00     0.299 S 
HETATM   39  O4  UNL     1      22.737  25.822   9.882  1.00  0.00    -0.188 OA
HETATM   40  O5  UNL     1      21.433  24.861  11.728  1.00  0.00    -0.188 OA
BRANCH  38  41
HETATM   41  N6  UNL     1      22.968  26.972  12.261  1.00  0.00    -0.303 N 
ATOM     42  H6  UNL     1      22.816  26.940  13.269  1.00  0.00     0.173 HD
BRANCH  41  43
HETATM   43  C16 UNL     1      24.061  27.698  11.658  1.00  0.00     0.086 C 
HETATM   44  C17 UNL     1      25.388  26.952  11.772  1.00  0.00     0.032 C 
HETATM   45  C18 UNL     1      24.225  29.051  12.263  1.00  0.00     0.032 C 
ENDBRANCH  41  43
ENDBRANCH  38  41
ENDBRANCH  35  38
ENDBRANCH  28  32
ENDBRANCH  26  27
BRANCH  26  46
HETATM   46  C21 UNL     1      18.028  32.389  15.089  1.00  0.00    -0.064 C 
HETATM   47  C22 UNL     1      18.269  31.696  16.368  1.00  0.00     0.045 C 
BRANCH  46  48
HETATM   48  C23 UNL     1      17.089  33.591  15.271  1.00  0.00     0.007 C 
HETATM   49  C24 UNL     1      15.726  32.970  15.620  1.00  0.00     0.014 C 
HETATM   50  C25 UNL     1      16.876  34.287  13.957  1.00  0.00     0.014 C 
ENDBRANCH  46  48
ENDBRANCH  26  46
ENDBRANCH   1  26
TORSDOF 17
ENDMDL
MODEL 4
REMARK VINA RESULT: -8.248301903      1.541      2.008
REMARK  17 active torsions:
REMARK  status: ('A' for Active; 'I' for Inactive)
REMARK    1  A    between atoms: N1_2  and  C2_4 
REMARK    2  A    between atoms: C2_4  and  C3_5 
REMARK    3  A    between atoms: C2_4  and  C30_47 
REMARK       I    between atoms: C3_5  and  N2_7 
REMARK    4  A    between atoms: N2_7  and  C4_9 
REMARK    5  A    between atoms: C4_9  and  C5_10 
REMARK    6  A    between atoms: C4_9  and  C26_43 
REMARK       I    between atoms: C5_10  and  N3_12 
REMARK    7  A    between atoms: N3_12  and  C6_14 
REMARK    8  A    between atoms: C6_14  and  C7_15 
REMARK    9  A    between atoms: C6_14  and  C10_18 
REMARK   10  A    between atoms: C10_18  and  C11_19 
REMARK   11  A    between atoms: C10_18  and  C21_38 
REMARK   12  A    between atoms: C11_19  and  O3_20 
REMARK   13  A    between atoms: N4_22  and  C13_24 
REMARK   14  A    between atoms: N5_27  and  S1_28 
REMARK   15  A    between atoms: S1_28  and  N6_31 
REMARK   16  A    between atoms: N6_31  and  C16_33 
REMARK   17  A    between atoms: C21_38  and  C23_40 
ROOT
HETATM    1  C6  UNL     1      21.058  30.846  14.542  1.00  0.00     0.051 C 
ENDROOT
BRANCH   1   2
HETATM    2  N3  UNL     1      21.870  30.272  13.533  1.00  0.00    -0.324 N 
HETATM    3  C5  UNL     1      22.251  29.031  13.032  1.00  0.00     0.245 C 
HETATM    4  O2  UNL     1      21.890  27.913  13.452  1.00  0.00    -0.271 OA
ATOM      5  H3  UNL     1      22.326  31.011  12.998  1.00  0.00     0.169 HD
BRANCH   3   6
HETATM    6  C4  UNL     1      23.190  28.959  11.844  1.00  0.00     0.184 C 
BRANCH   6   7
HETATM    7  N2  UNL     1      22.784  27.775  11.063  1.00  0.00    -0.342 N 
HETATM    8  C3  UNL     1      22.668  27.627   9.686  1.00  0.00     0.265 C 
HETATM    9  O1  UNL     1      22.977  28.620   8.934  1.00  0.00    -0.266 OA
ATOM     10  H2  UNL     1      22.554  26.947  11.612  1.00  0.00     0.163 HD
BRANCH   8  11
HETATM   11  C2  UNL     1      22.211  26.383   9.028  1.00  0.00     0.081 C 
BRANCH  11  12
HETATM   12  N1  UNL     1      23.125  25.398   8.712  1.00  0.00    -0.393 N 
HETATM   13  C1  UNL     1      23.924  25.372   7.572  1.00  0.00     0.146 C 
ATOM     14  H1  UNL     1      23.224  24.624   9.369  1.00  0.00     0.159 HD
ENDBRANCH  11  12
BRANCH  11  15
HETATM   15  C30 UNL     1      20.802  25.978   9.376  1.00  0.00    -0.004 C 
HETATM   16  C31 UNL     1      20.022  25.346   8.271  1.00  0.00     0.021 C 
HETATM   17  C32 UNL     1      20.822  25.109  10.640  1.00  0.00     0.021 C 
HETATM   18  C33 UNL     1      19.992  27.225   9.805  1.00  0.00     0.021 C 
ENDBRANCH  11  15
ENDBRANCH   8  11
ENDBRANCH   6   7
BRANCH   6  19
HETATM   19  C26 UNL     1      24.606  28.601  12.276  1.00  0.00    -0.022 C 
HETATM   20  C27 UNL     1      24.818  27.092  12.350  1.00  0.00     0.017 C 
HETATM   21  C28 UNL     1      25.022  29.211  13.587  1.00  0.00     0.017 C 
HETATM   22  C29 UNL     1      25.621  29.075  11.258  1.00  0.00     0.017 C 
ENDBRANCH   6  19
ENDBRANCH   3   6
ENDBRANCH   1   2
BRANCH   1  23
HETATM   23  C7  UNL     1      21.772  31.984  15.139  1.00  0.00    -0.060 C 
HETATM   24  C8  UNL     1      21.812  33.296  14.444  1.00  0.00     0.045 C 
HETATM   25  C9  UNL     1      21.962  32.111  16.597  1.00  0.00     0.045 C 
ENDBRANCH   1  23
BRANCH   1  26
HETATM   26  C10 UNL     1      19.612  30.645  14.493  1.00  0.00     0.044 C 
BRANCH  26  27
HETATM   27  C11 UNL     1      18.808  31.390  15.475  1.00  0.00     0.151 C 
HETATM   28  N4  UNL     1      18.227  32.571  15.600  1.00  0.00    -0.361 N 
HETATM   29  C12 UNL     1      17.938  33.524  14.543  1.00  0.00     0.152 C 
BRANCH  27  30
HETATM   30  O3  UNL     1      18.682  30.589  16.526  1.00  0.00    -0.345 OA
ATOM     31  H3  UNL     1      19.248  29.846  16.358  1.00  0.00     0.219 HD
ENDBRANCH  27  30
BRANCH  28  32
HETATM   32  C13 UNL     1      18.041  33.216  16.949  1.00  0.00     0.088 C 
HETATM   33  C14 UNL     1      18.850  34.366  17.255  1.00  0.00     0.041 C 
HETATM   34  C15 UNL     1      18.354  34.980  18.604  1.00  0.00     0.111 C 
HETATM   35  N5  UNL     1      17.083  35.558  18.376  1.00  0.00    -0.193 NA
HETATM   36  C19 UNL     1      16.361  35.048  17.226  1.00  0.00     0.111 C 
HETATM   37  C20 UNL     1      16.509  33.641  16.881  1.00  0.00     0.041 C 
BRANCH  35  38
HETATM   38  S1  UNL     1      17.044  37.262  18.211  1.00  0.00     0.299 S 
HETATM   39  O4  UNL     1      15.919  37.858  19.061  1.00  0.00    -0.188 OA
HETATM   40  O5  UNL     1      16.694  37.555  16.750  1.00  0.00    -0.188 OA
BRANCH  38  41
HETATM   41  N6  UNL     1      18.536  37.956  18.633  1.00  0.00    -0.303 N 
ATOM     42  H6  UNL     1      18.843  38.062  19.600  1.00  0.00     0.173 HD
BRANCH  41  43
HETATM   43  C16 UNL     1      19.333  38.383  17.508  1.00  0.00     0.086 C 
HETATM   44  C17 UNL     1      20.701  37.707  17.473  1.00  0.00     0.032 C 
HETATM   45  C18 UNL     1      19.535  39.861  17.504  1.00  0.00     0.032 C 
ENDBRANCH  41  43
ENDBRANCH  38  41
ENDBRANCH  35  38
ENDBRANCH  28  32
ENDBRANCH  26  27
BRANCH  26  46
HETATM   46  C21 UNL     1      18.770  30.450  13.299  1.00  0.00    -0.064 C 
HETATM   47  C22 UNL     1      18.858  31.354  12.137  1.00  0.00     0.045 C 
BRANCH  46  48
HETATM   48  C23 UNL     1      18.571  28.991  12.860  1.00  0.00     0.007 C 
HETATM   49  C24 UNL     1      17.418  29.044  11.846  1.00  0.00     0.014 C 
HETATM   50  C25 UNL     1      18.048  28.172  14.006  1.00  0.00     0.014 C 
ENDBRANCH  46  48
ENDBRANCH  26  46
ENDBRANCH   1  26
TORSDOF 17
ENDMDL
MODEL 5
REMARK VINA RESULT: -8.145782206      3.269     11.018
REMARK  17 active torsions:
REMARK  status: ('A' for Active; 'I' for Inactive)
REMARK    1  A    between atoms: N1_2  and  C2_4 
REMARK    2  A    between atoms: C2_4  and  C3_5 
REMARK    3  A    between atoms: C2_4  and  C30_47 
REMARK       I    between atoms: C3_5  and  N2_7 
REMARK    4  A    between atoms: N2_7  and  C4_9 
REMARK    5  A    between atoms: C4_9  and  C5_10 
REMARK    6  A    between atoms: C4_9  and  C26_43 
REMARK       I    between atoms: C5_10  and  N3_12 
REMARK    7  A    between atoms: N3_12  and  C6_14 
REMARK    8  A    between atoms: C6_14  and  C7_15 
REMARK    9  A    between atoms: C6_14  and  C10_18 
REMARK   10  A    between atoms: C10_18  and  C11_19 
REMARK   11  A    between atoms: C10_18  and  C21_38 
REMARK   12  A    between atoms: C11_19  and  O3_20 
REMARK   13  A    between atoms: N4_22  and  C13_24 
REMARK   14  A    between atoms: N5_27  and  S1_28 
REMARK   15  A    between atoms: S1_28  and  N6_31 
REMARK   16  A    between atoms: N6_31  and  C16_33 
REMARK   17  A    between atoms: C21_38  and  C23_40 
ROOT
HETATM    1  C6  UNL     1      19.892  34.506  15.600  1.00  0.00     0.051 C 
ENDROOT
BRANCH   1   2
HETATM    2  N3  UNL     1      20.210  35.687  16.315  1.00  0.00    -0.324 N 
HETATM    3  C5  UNL     1      20.750  36.100  17.529  1.00  0.00     0.245 C 
HETATM    4  O2  UNL     1      21.155  35.367  18.454  1.00  0.00    -0.271 OA
ATOM      5  H3  UNL     1      19.960  36.503  15.757  1.00  0.00     0.169 HD
BRANCH   3   6
HETATM    6  C4  UNL     1      20.903  37.581  17.816  1.00  0.00     0.184 C 
BRANCH   6   7
HETATM    7  N2  UNL     1      19.681  38.231  17.302  1.00  0.00    -0.342 N 
HETATM    8  C3  UNL     1      18.839  39.140  17.930  1.00  0.00     0.265 C 
HETATM    9  O1  UNL     1      19.133  39.531  19.117  1.00  0.00    -0.266 OA
ATOM     10  H2  UNL     1      19.418  37.977  16.350  1.00  0.00     0.163 HD
BRANCH   8  11
HETATM   11  C2  UNL     1      17.616  39.693  17.308  1.00  0.00     0.081 C 
BRANCH  11  12
HETATM   12  N1  UNL     1      16.376  39.239  17.711  1.00  0.00    -0.393 N 
HETATM   13  C1  UNL     1      16.147  38.202  18.610  1.00  0.00     0.146 C 
ATOM     14  H1  UNL     1      15.558  39.703  17.315  1.00  0.00     0.159 HD
ENDBRANCH  11  12
BRANCH  11  15
HETATM   15  C30 UNL     1      17.748  41.119  16.839  1.00  0.00    -0.004 C 
HETATM   16  C31 UNL     1      18.975  41.425  16.045  1.00  0.00     0.021 C 
HETATM   17  C32 UNL     1      16.467  41.531  16.104  1.00  0.00     0.021 C 
HETATM   18  C33 UNL     1      17.789  42.069  18.060  1.00  0.00     0.021 C 
ENDBRANCH  11  15
ENDBRANCH   8  11
ENDBRANCH   6   7
BRANCH   6  19
HETATM   19  C26 UNL     1      21.996  38.203  16.958  1.00  0.00    -0.022 C 
HETATM   20  C27 UNL     1      21.465  38.675  15.607  1.00  0.00     0.017 C 
HETATM   21  C28 UNL     1      23.180  37.305  16.723  1.00  0.00     0.017 C 
HETATM   22  C29 UNL     1      22.547  39.456  17.604  1.00  0.00     0.017 C 
ENDBRANCH   6  19
ENDBRANCH   3   6
ENDBRANCH   1   2
BRANCH   1  23
HETATM   23  C7  UNL     1      21.112  33.702  15.440  1.00  0.00    -0.060 C 
HETATM   24  C8  UNL     1      22.262  34.225  14.659  1.00  0.00     0.045 C 
HETATM   25  C9  UNL     1      21.519  32.689  16.435  1.00  0.00     0.045 C 
ENDBRANCH   1  23
BRANCH   1  26
HETATM   26  C10 UNL     1      18.514  34.020  15.602  1.00  0.00     0.044 C 
BRANCH  26  27
HETATM   27  C11 UNL     1      18.199  32.923  14.674  1.00  0.00     0.151 C 
HETATM   28  N4  UNL     1      18.341  31.611  14.591  1.00  0.00    -0.361 N 
HETATM   29  C12 UNL     1      18.655  30.693  15.673  1.00  0.00     0.152 C 
BRANCH  27  30
HETATM   30  O3  UNL     1      17.618  33.490  13.623  1.00  0.00    -0.345 OA
ATOM     31  H3  UNL     1      18.193  33.324  12.886  1.00  0.00     0.219 HD
ENDBRANCH  27  30
BRANCH  28  32
HETATM   32  C13 UNL     1      18.477  30.918  13.262  1.00  0.00     0.088 C 
HETATM   33  C14 UNL     1      19.711  31.091  12.542  1.00  0.00     0.041 C 
HETATM   34  C15 UNL     1      19.706  30.135  11.305  1.00  0.00     0.111 C 
HETATM   35  N5  UNL     1      19.821  28.809  11.783  1.00  0.00    -0.193 NA
HETATM   36  C19 UNL     1      19.420  28.603  13.162  1.00  0.00     0.111 C 
HETATM   37  C20 UNL     1      18.317  29.393  13.689  1.00  0.00     0.041 C 
BRANCH  35  38
HETATM   38  S1  UNL     1      21.369  28.087  11.653  1.00  0.00     0.299 S 
HETATM   39  O4  UNL     1      22.071  28.550  10.374  1.00  0.00    -0.188 OA
HETATM   40  O5  UNL     1      21.141  26.580  11.508  1.00  0.00    -0.188 OA
BRANCH  38  41
HETATM   41  N6  UNL     1      22.326  28.433  13.012  1.00  0.00    -0.303 N 
ATOM     42  H6  UNL     1      22.224  27.942  13.900  1.00  0.00     0.173 HD
BRANCH  41  43
HETATM   43  C16 UNL     1      23.297  29.481  12.804  1.00  0.00     0.086 C 
HETATM   44  C17 UNL     1      24.716  29.038  13.152  1.00  0.00     0.032 C 
HETATM   45  C18 UNL     1      22.973  30.700  13.600  1.00  0.00     0.032 C 
ENDBRANCH  41  43
ENDBRANCH  38  41
ENDBRANCH  35  38
ENDBRANCH  28  32
ENDBRANCH  26  27
BRANCH  26  46
HETATM   46  C21 UNL     1      17.609  33.885  16.758  1.00  0.00    -0.064 C 
HETATM   47  C22 UNL     1      17.995  34.362  18.099  1.00  0.00     0.045 C 
BRANCH  46  48
HETATM   48  C23 UNL     1      16.125  34.158  16.472  1.00  0.00     0.007 C 
HETATM   49  C24 UNL     1      16.084  35.617  15.991  1.00  0.00     0.014 C 
HETATM   50  C25 UNL     1      15.340  34.146  17.753  1.00  0.00     0.014 C 
ENDBRANCH  46  48
ENDBRANCH  26  46
ENDBRANCH   1  26
TORSDOF 17
ENDMDL
