MODEL 1
REMARK VINA RESULT: -10.172233101      0.000      0.000
REMARK  13 active torsions:
REMARK  status: ('A' for Active; 'I' for Inactive)
REMARK    1  A    between atoms: C2_2  and  C3_3 
REMARK    2  A    between atoms: C3_3  and  N1_4 
REMARK       I    between atoms: N2_8  and  C7_9 
REMARK       I    between atoms: C7_9  and  N3_11 
REMARK    3  A    between atoms: N3_11  and  C8_13 
REMARK    4  A    between atoms: C8_13  and  C9_14 
REMARK    5  A    between atoms: C12_17  and  C13_18 
REMARK       I    between atoms: C13_18  and  N4_20 
REMARK    6  A    between atoms: N4_20  and  C14_21 
REMARK    7  A    between atoms: C19_26  and  C20_27 
REMARK       I    between atoms: C20_27  and  N5_29 
REMARK    8  A    between atoms: N5_29  and  C21_31 
REMARK    9  A    between atoms: C21_31  and  C29_39 
REMARK   10  A    between atoms: C22_32  and  C23_33 
REMARK   11  A    between atoms: C29_39  and  C30_41 
REMARK       I    between atoms: C30_41  and  N6_43 
REMARK   12  A    between atoms: N6_43  and  C31_44 
REMARK   13  A    between atoms: C31_44  and  C32_45 
ROOT
HETATM    1  N1  UNL     1      20.350  31.611  14.254  1.00  0.00    -0.378 N 
HETATM    2  C4  UNL     1      19.562  31.432  13.109  1.00  0.00     0.089 C 
HETATM    3  C5  UNL     1      18.598  32.538  12.902  1.00  0.00     0.070 C 
HETATM    4  C6  UNL     1      17.737  32.808  14.016  1.00  0.00     0.071 C 
HETATM    5  N2  UNL     1      17.958  32.339  15.393  1.00  0.00    -0.312 N 
HETATM    6  C7  UNL     1      16.872  32.985  16.112  1.00  0.00     0.322 C 
HETATM    7  O1  UNL     1      15.797  33.120  15.468  1.00  0.00    -0.247 OA
HETATM    8  N3  UNL     1      16.930  33.530  17.463  1.00  0.00    -0.342 N 
ATOM      9  H3  UNL     1      17.705  33.402  18.114  1.00  0.00     0.164 HD
HETATM   10  C17 UNL     1      18.809  31.448  16.094  1.00  0.00     0.159 C 
HETATM   11  C18 UNL     1      19.895  30.776  15.316  1.00  0.00     0.115 C 
HETATM   12  C19 UNL     1      19.420  29.553  14.572  1.00  0.00     0.104 C 
HETATM   13  C36 UNL     1      18.662  30.201  13.372  1.00  0.00     0.041 C 
ENDROOT
BRANCH  12  14
HETATM   14  C20 UNL     1      20.453  28.712  13.884  1.00  0.00     0.228 C 
HETATM   15  O3  UNL     1      21.630  28.627  14.229  1.00  0.00    -0.273 OA
HETATM   16  N5  UNL     1      20.065  27.987  12.762  1.00  0.00    -0.323 N 
ATOM     17  H5  UNL     1      19.065  27.950  12.567  1.00  0.00     0.169 HD
BRANCH  16  18
HETATM   18  C21 UNL     1      20.895  27.306  11.878  1.00  0.00     0.089 C 
HETATM   19  C22 UNL     1      21.925  26.631  11.285  1.00  0.00     0.016 C 
BRANCH  19  20
HETATM   20  C23 UNL     1      23.328  27.093  11.186  1.00  0.00    -0.024 C 
HETATM   21  C24 UNL     1      23.652  26.875   9.696  1.00  0.00     0.019 C 
HETATM   22  C25 UNL     1      24.437  26.526  11.946  1.00  0.00     0.013 C 
HETATM   23  C26 UNL     1      25.476  27.631  12.102  1.00  0.00     0.001 C 
HETATM   24  C27 UNL     1      24.990  28.752  11.206  1.00  0.00     0.001 C 
HETATM   25  C28 UNL     1      23.464  28.628  11.395  1.00  0.00     0.013 C 
ENDBRANCH  19  20
BRANCH  18  26
HETATM   26  C29 UNL     1      19.592  26.940  10.915  1.00  0.00     0.279 C 
HETATM   27  O4  UNL     1      18.918  27.908  10.514  1.00  0.00    -0.279 OA
BRANCH  26  28
HETATM   28  C30 UNL     1      19.323  25.544  10.628  1.00  0.00     0.363 C 
HETATM   29  O5  UNL     1      19.195  24.622  11.427  1.00  0.00    -0.248 OA
HETATM   30  N6  UNL     1      19.220  25.377   9.236  1.00  0.00    -0.408 NA
BRANCH  30  31
HETATM   31  C31 UNL     1      19.120  25.206   7.929  1.00  0.00     0.230 C 
BRANCH  31  32
HETATM   32  C32 UNL     1      17.765  25.765   7.383  1.00  0.00    -0.024 C 
HETATM   33  C33 UNL     1      17.746  27.241   7.371  1.00  0.00     0.017 C 
HETATM   34  C34 UNL     1      16.596  25.212   8.179  1.00  0.00     0.017 C 
HETATM   35  C35 UNL     1      17.597  25.191   5.964  1.00  0.00     0.017 C 
ENDBRANCH  31  32
ENDBRANCH  30  31
ENDBRANCH  26  28
ENDBRANCH  18  26
ENDBRANCH  16  18
ENDBRANCH  12  14
BRANCH   1  36
HETATM   36  C3  UNL     1      21.602  32.206  14.209  1.00  0.00     0.085 C 
BRANCH  36  37
HETATM   37  C2  UNL     1      21.709  33.639  14.646  1.00  0.00     0.007 C 
HETATM   38  C1  UNL     1      22.824  34.372  14.407  1.00  0.00     0.012 C 
ENDBRANCH  36  37
ENDBRANCH   1  36
BRANCH   8  39
HETATM   39  C8  UNL     1      15.723  34.282  17.744  1.00  0.00     0.129 C 
BRANCH  39  40
HETATM   40  C9  UNL     1      15.735  35.605  18.316  1.00  0.00     0.008 C 
HETATM   41  C10 UNL     1      17.265  35.915  18.437  1.00  0.00     0.011 C 
HETATM   42  C11 UNL     1      17.590  36.936  17.412  1.00  0.00     0.041 C 
HETATM   43  C12 UNL     1      16.345  37.795  17.556  1.00  0.00     0.003 C 
HETATM   44  C16 UNL     1      15.254  36.827  17.534  1.00  0.00     0.047 C 
BRANCH  43  45
HETATM   45  C13 UNL     1      16.494  39.167  17.087  1.00  0.00     0.312 C 
HETATM   46  O2  UNL     1      17.390  39.391  16.238  1.00  0.00    -0.252 OA
HETATM   47  N4  UNL     1      15.652  40.114  17.669  1.00  0.00    -0.412 NA
BRANCH  47  48
HETATM   48  C14 UNL     1      14.884  41.106  18.182  1.00  0.00     0.217 C 
HETATM   49  C15 UNL     1      14.645  40.948  19.688  1.00  0.00     0.041 C 
ENDBRANCH  47  48
ENDBRANCH  43  45
ENDBRANCH  39  40
ENDBRANCH   8  39
TORSDOF 13
ENDMDL
MODEL 2
REMARK VINA RESULT: -10.119769213      0.863      1.228
REMARK  13 active torsions:
REMARK  status: ('A' for Active; 'I' for Inactive)
REMARK    1  A    between atoms: C2_2  and  C3_3 
REMARK    2  A    between atoms: C3_3  and  N1_4 
REMARK       I    between atoms: N2_8  and  C7_9 
REMARK       I    between atoms: C7_9  and  N3_11 
REMARK    3  A    between atoms: N3_11  and  C8_13 
REMARK    4  A    between atoms: C8_13  and  C9_14 
REMARK    5  A    between atoms: C12_17  and  C13_18 
REMARK       I    between atoms: C13_18  and  N4_20 
REMARK    6  A    between atoms: N4_20  and  C14_21 
REMARK    7  A    between atoms: C19_26  and  C20_27 
REMARK       I    between atoms: C20_27  and  N5_29 
REMARK    8  A    between atoms: N5_29  and  C21_31 
REMARK    9  A    between atoms: C21_31  and  C29_39 
REMARK   10  A    between atoms: C22_32  and  C23_33 
REMARK   11  A    between atoms: C29_39  and  C30_41 
REMARK       I    between atoms: C30_41  and  N6_43 
REMARK   12  A    between atoms: N6_43  and  C31_44 
REMARK   13  A    between atoms: C31_44  and  C32_45 
ROOT
HETATM    1  N1  UNL     1      20.302  31.634  14.421  1.00  0.00    -0.378 N 
HETATM    2  C4  UNL     1      19.569  31.520  13.232  1.00  0.00     0.089 C 
HETATM    3  C5  UNL     1      18.676  32.678  12.999  1.00  0.00     0.070 C 
HETATM    4  C6  UNL     1      17.771  32.970  14.073  1.00  0.00     0.071 C 
HETATM    5  N2  UNL     1      17.892  32.462  15.448  1.00  0.00    -0.312 N 
HETATM    6  C7  UNL     1      16.804  33.150  16.123  1.00  0.00     0.322 C 
HETATM    7  O1  UNL     1      15.773  33.353  15.427  1.00  0.00    -0.247 OA
HETATM    8  N3  UNL     1      16.816  33.663  17.488  1.00  0.00    -0.342 N 
ATOM      9  H3  UNL     1      17.547  33.482  18.176  1.00  0.00     0.164 HD
HETATM   10  C17 UNL     1      18.657  31.514  16.172  1.00  0.00     0.159 C 
HETATM   11  C18 UNL     1      19.749  30.802  15.437  1.00  0.00     0.115 C 
HETATM   12  C19 UNL     1      19.252  29.621  14.642  1.00  0.00     0.104 C 
HETATM   13  C36 UNL     1      18.594  30.332  13.418  1.00  0.00     0.041 C 
ENDROOT
BRANCH  12  14
HETATM   14  C20 UNL     1      20.277  28.741  13.990  1.00  0.00     0.228 C 
HETATM   15  O3  UNL     1      21.426  28.584  14.398  1.00  0.00    -0.273 OA
HETATM   16  N5  UNL     1      19.916  28.065  12.830  1.00  0.00    -0.323 N 
ATOM     17  H5  UNL     1      18.927  28.087  12.578  1.00  0.00     0.169 HD
BRANCH  16  18
HETATM   18  C21 UNL     1      20.757  27.360  11.975  1.00  0.00     0.089 C 
HETATM   19  C22 UNL     1      21.799  26.679  11.411  1.00  0.00     0.016 C 
BRANCH  19  20
HETATM   20  C23 UNL     1      23.194  27.162  11.289  1.00  0.00    -0.024 C 
HETATM   21  C24 UNL     1      23.396  27.231   9.764  1.00  0.00     0.019 C 
HETATM   22  C25 UNL     1      24.354  26.470  11.839  1.00  0.00     0.013 C 
HETATM   23  C26 UNL     1      25.411  27.534  12.117  1.00  0.00     0.001 C 
HETATM   24  C27 UNL     1      24.864  28.800  11.489  1.00  0.00     0.001 C 
HETATM   25  C28 UNL     1      23.357  28.631  11.772  1.00  0.00     0.013 C 
ENDBRANCH  19  20
BRANCH  18  26
HETATM   26  C29 UNL     1      19.460  26.929  11.032  1.00  0.00     0.279 C 
HETATM   27  O4  UNL     1      18.702  27.854  10.686  1.00  0.00    -0.279 OA
BRANCH  26  28
HETATM   28  C30 UNL     1      19.293  25.527  10.697  1.00  0.00     0.363 C 
HETATM   29  O5  UNL     1      19.201  24.575  11.465  1.00  0.00    -0.248 OA
HETATM   30  N6  UNL     1      19.247  25.395   9.298  1.00  0.00    -0.408 NA
BRANCH  30  31
HETATM   31  C31 UNL     1      19.201  25.257   7.985  1.00  0.00     0.230 C 
BRANCH  31  32
HETATM   32  C32 UNL     1      17.855  25.799   7.402  1.00  0.00    -0.024 C 
HETATM   33  C33 UNL     1      17.770  27.270   7.494  1.00  0.00     0.017 C 
HETATM   34  C34 UNL     1      16.669  25.141   8.085  1.00  0.00     0.017 C 
HETATM   35  C35 UNL     1      17.792  25.325   5.937  1.00  0.00     0.017 C 
ENDBRANCH  31  32
ENDBRANCH  30  31
ENDBRANCH  26  28
ENDBRANCH  18  26
ENDBRANCH  16  18
ENDBRANCH  12  14
BRANCH   1  36
HETATM   36  C3  UNL     1      21.583  32.163  14.456  1.00  0.00     0.085 C 
BRANCH  36  37
HETATM   37  C2  UNL     1      21.722  33.640  14.694  1.00  0.00     0.007 C 
HETATM   38  C1  UNL     1      22.855  34.308  14.367  1.00  0.00     0.012 C 
ENDBRANCH  36  37
ENDBRANCH   1  36
BRANCH   8  39
HETATM   39  C8  UNL     1      15.635  34.471  17.722  1.00  0.00     0.129 C 
BRANCH  39  40
HETATM   40  C9  UNL     1      15.686  35.790  18.300  1.00  0.00     0.008 C 
HETATM   41  C10 UNL     1      17.224  36.035  18.467  1.00  0.00     0.011 C 
HETATM   42  C11 UNL     1      17.621  37.046  17.457  1.00  0.00     0.041 C 
HETATM   43  C12 UNL     1      16.409  37.956  17.570  1.00  0.00     0.003 C 
HETATM   44  C16 UNL     1      15.279  37.034  17.512  1.00  0.00     0.047 C 
BRANCH  43  45
HETATM   45  C13 UNL     1      16.629  39.322  17.114  1.00  0.00     0.312 C 
HETATM   46  O2  UNL     1      15.644  40.098  17.123  1.00  0.00    -0.252 OA
HETATM   47  N4  UNL     1      17.913  39.623  16.660  1.00  0.00    -0.412 NA
BRANCH  47  48
HETATM   48  C14 UNL     1      19.126  40.009  16.193  1.00  0.00     0.217 C 
HETATM   49  C15 UNL     1      19.190  41.510  15.889  1.00  0.00     0.041 C 
ENDBRANCH  47  48
ENDBRANCH  43  45
ENDBRANCH  39  40
ENDBRANCH   8  39
TORSDOF 13
ENDMDL
MODEL 3
REMARK VINA RESULT: -10.071398093      1.254      1.729
REMARK  13 active torsions:
REMARK  status: ('A' for Active; 'I' for Inactive)
REMARK    1  A    between atoms: C2_2  and  C3_3 
REMARK    2  A    between atoms: C3_3  and  N1_4 
REMARK       I    between atoms: N2_8  and  C7_9 
REMARK       I    between atoms: C7_9  and  N3_11 
REMARK    3  A    between atoms: N3_11  and  C8_13 
REMARK    4  A    between atoms: C8_13  and  C9_14 
REMARK    5  A    between atoms: C12_17  and  C13_18 
REMARK       I    between atoms: C13_18  and  N4_20 
REMARK    6  A    between atoms: N4_20  and  C14_21 
REMARK    7  A    between atoms: C19_26  and  C20_27 
REMARK       I    between atoms: C20_27  and  N5_29 
REMARK    8  A    between atoms: N5_29  and  C21_31 
REMARK    9  A    between atoms: C21_31  and  C29_39 
REMARK   10  A    between atoms: C22_32  and  C23_33 
REMARK   11  A    between atoms: C29_39  and  C30_41 
REMARK       I    between atoms: C30_41  and  N6_43 
REMARK   12  A    between atoms: N6_43  and  C31_44 
REMARK   13  A    between atoms: C31_44  and  C32_45 
ROOT
HETATM    1  N1  UNL     1      20.029  31.730  14.729  1.00  0.00    -0.378 N 
HETATM    2  C4  UNL     1      19.454  31.654  13.454  1.00  0.00     0.089 C 
HETATM    3  C5  UNL     1      18.633  32.843  13.127  1.00  0.00     0.070 C 
HETATM    4  C6  UNL     1      17.605  33.149  14.078  1.00  0.00     0.071 C 
HETATM    5  N2  UNL     1      17.532  32.620  15.449  1.00  0.00    -0.312 N 
HETATM    6  C7  UNL     1      16.385  33.333  15.989  1.00  0.00     0.322 C 
HETATM    7  O1  UNL     1      15.461  33.577  15.168  1.00  0.00    -0.247 OA
HETATM    8  N3  UNL     1      16.234  33.829  17.351  1.00  0.00    -0.342 N 
ATOM      9  H3  UNL     1      16.864  33.615  18.125  1.00  0.00     0.164 HD
HETATM   10  C17 UNL     1      18.168  31.639  16.250  1.00  0.00     0.159 C 
HETATM   11  C18 UNL     1      19.324  30.903  15.652  1.00  0.00     0.115 C 
HETATM   12  C19 UNL     1      18.901  29.749  14.779  1.00  0.00     0.104 C 
HETATM   13  C36 UNL     1      18.429  30.495  13.492  1.00  0.00     0.041 C 
ENDROOT
BRANCH  12  14
HETATM   14  C20 UNL     1      19.976  28.845  14.251  1.00  0.00     0.228 C 
HETATM   15  O3  UNL     1      21.059  28.651  14.799  1.00  0.00    -0.273 OA
HETATM   16  N5  UNL     1      19.746  28.190  13.046  1.00  0.00    -0.323 N 
ATOM     17  H5  UNL     1      18.798  28.243  12.672  1.00  0.00     0.169 HD
BRANCH  16  18
HETATM   18  C21 UNL     1      20.669  27.469  12.296  1.00  0.00     0.089 C 
HETATM   19  C22 UNL     1      21.784  26.829  11.832  1.00  0.00     0.016 C 
BRANCH  19  20
HETATM   20  C23 UNL     1      23.126  27.428  11.658  1.00  0.00    -0.024 C 
HETATM   21  C24 UNL     1      23.006  28.140  10.297  1.00  0.00     0.019 C 
HETATM   22  C25 UNL     1      24.370  26.667  11.629  1.00  0.00     0.013 C 
HETATM   23  C26 UNL     1      25.471  27.601  12.120  1.00  0.00     0.001 C 
HETATM   24  C27 UNL     1      24.817  28.964  12.204  1.00  0.00     0.001 C 
HETATM   25  C28 UNL     1      23.400  28.573  12.675  1.00  0.00     0.013 C 
ENDBRANCH  19  20
BRANCH  18  26
HETATM   26  C29 UNL     1      19.440  26.793  11.407  1.00  0.00     0.279 C 
HETATM   27  O4  UNL     1      18.422  27.494  11.256  1.00  0.00    -0.279 OA
BRANCH  26  28
HETATM   28  C30 UNL     1      19.625  25.448  10.894  1.00  0.00     0.363 C 
HETATM   29  O5  UNL     1      19.881  24.429  11.526  1.00  0.00    -0.248 OA
HETATM   30  N6  UNL     1      19.463  25.468   9.498  1.00  0.00    -0.408 NA
BRANCH  30  31
HETATM   31  C31 UNL     1      19.313  25.471   8.185  1.00  0.00     0.230 C 
BRANCH  31  32
HETATM   32  C32 UNL     1      17.891  25.976   7.775  1.00  0.00    -0.024 C 
HETATM   33  C33 UNL     1      17.733  27.424   8.016  1.00  0.00     0.017 C 
HETATM   34  C34 UNL     1      16.812  25.185   8.493  1.00  0.00     0.017 C 
HETATM   35  C35 UNL     1      17.719  25.634   6.283  1.00  0.00     0.017 C 
ENDBRANCH  31  32
ENDBRANCH  30  31
ENDBRANCH  26  28
ENDBRANCH  18  26
ENDBRANCH  16  18
ENDBRANCH  12  14
BRANCH   1  36
HETATM   36  C3  UNL     1      21.310  32.218  14.940  1.00  0.00     0.085 C 
BRANCH  36  37
HETATM   37  C2  UNL     1      21.466  33.697  15.153  1.00  0.00     0.007 C 
HETATM   38  C1  UNL     1      22.454  34.401  14.547  1.00  0.00     0.012 C 
ENDBRANCH  36  37
ENDBRANCH   1  36
BRANCH   8  39
HETATM   39  C8  UNL     1      15.058  34.670  17.444  1.00  0.00     0.129 C 
BRANCH  39  40
HETATM   40  C9  UNL     1      15.119  36.110  17.455  1.00  0.00     0.008 C 
HETATM   41  C10 UNL     1      15.871  36.414  18.795  1.00  0.00     0.011 C 
HETATM   42  C11 UNL     1      17.229  36.892  18.439  1.00  0.00     0.041 C 
HETATM   43  C12 UNL     1      16.851  37.754  17.245  1.00  0.00     0.003 C 
HETATM   44  C16 UNL     1      15.977  36.889  16.459  1.00  0.00     0.047 C 
BRANCH  43  45
HETATM   45  C13 UNL     1      17.819  38.791  16.912  1.00  0.00     0.312 C 
HETATM   46  O2  UNL     1      17.399  39.789  16.280  1.00  0.00    -0.252 OA
HETATM   47  N4  UNL     1      19.140  38.548  17.288  1.00  0.00    -0.412 NA
BRANCH  47  48
HETATM   48  C14 UNL     1      20.449  38.398  17.606  1.00  0.00     0.217 C 
HETATM   49  C15 UNL     1      20.981  37.000  17.267  1.00  0.00     0.041 C 
ENDBRANCH  47  48
ENDBRANCH  43  45
ENDBRANCH  39  40
ENDBRANCH   8  39
TORSDOF 13
ENDMDL
MODEL 4
REMARK VINA RESULT: -10.039065663      1.372      2.010
REMARK  13 active torsions:
REMARK  status: ('A' for Active; 'I' for Inactive)
REMARK    1  A    between atoms: C2_2  and  C3_3 
REMARK    2  A    between atoms: C3_3  and  N1_4 
REMARK       I    between atoms: N2_8  and  C7_9 
REMARK       I    between atoms: C7_9  and  N3_11 
REMARK    3  A    between atoms: N3_11  and  C8_13 
REMARK    4  A    between atoms: C8_13  and  C9_14 
REMARK    5  A    between atoms: C12_17  and  C13_18 
REMARK       I    between atoms: C13_18  and  N4_20 
REMARK    6  A    between atoms: N4_20  and  C14_21 
REMARK    7  A    between atoms: C19_26  and  C20_27 
REMARK       I    between atoms: C20_27  and  N5_29 
REMARK    8  A    between atoms: N5_29  and  C21_31 
REMARK    9  A    between atoms: C21_31  and  C29_39 
REMARK   10  A    between atoms: C22_32  and  C23_33 
REMARK   11  A    between atoms: C29_39  and  C30_41 
REMARK       I    between atoms: C30_41  and  N6_43 
REMARK   12  A    between atoms: N6_43  and  C31_44 
REMARK   13  A    between atoms: C31_44  and  C32_45 
ROOT
HETATM    1  N1  UNL     1      20.323  31.565  14.327  1.00  0.00    -0.378 N 
HETATM    2  C4  UNL     1      19.660  31.357  13.110  1.00  0.00     0.089 C 
HETATM    3  C5  UNL     1      18.718  32.452  12.780  1.00  0.00     0.070 C 
HETATM    4  C6  UNL     1      17.744  32.738  13.793  1.00  0.00     0.071 C 
HETATM    5  N2  UNL     1      17.821  32.298  15.195  1.00  0.00    -0.312 N 
HETATM    6  C7  UNL     1      16.663  32.951  15.783  1.00  0.00     0.322 C 
HETATM    7  O1  UNL     1      15.660  33.065  15.028  1.00  0.00    -0.247 OA
HETATM    8  N3  UNL     1      16.576  33.524  17.121  1.00  0.00    -0.342 N 
ATOM      9  H3  UNL     1      17.279  33.414  17.852  1.00  0.00     0.164 HD
HETATM   10  C17 UNL     1      18.599  31.428  15.999  1.00  0.00     0.159 C 
HETATM   11  C18 UNL     1      19.764  30.748  15.353  1.00  0.00     0.115 C 
HETATM   12  C19 UNL     1      19.375  29.507  14.589  1.00  0.00     0.104 C 
HETATM   13  C36 UNL     1      18.743  30.126  13.303  1.00  0.00     0.041 C 
ENDROOT
BRANCH  12  14
HETATM   14  C20 UNL     1      20.479  28.660  14.030  1.00  0.00     0.228 C 
HETATM   15  O3  UNL     1      21.645  28.682  14.420  1.00  0.00    -0.273 OA
HETATM   16  N5  UNL     1      20.175  27.796  12.983  1.00  0.00    -0.323 N 
ATOM     17  H5  UNL     1      19.185  27.680  12.761  1.00  0.00     0.169 HD
BRANCH  16  18
HETATM   18  C21 UNL     1      21.074  27.075  12.205  1.00  0.00     0.089 C 
HETATM   19  C22 UNL     1      22.191  26.514  11.654  1.00  0.00     0.016 C 
BRANCH  19  20
HETATM   20  C23 UNL     1      23.367  27.245  11.128  1.00  0.00    -0.024 C 
HETATM   21  C24 UNL     1      23.944  26.260  10.095  1.00  0.00     0.019 C 
HETATM   22  C25 UNL     1      24.484  27.703  11.947  1.00  0.00     0.013 C 
HETATM   23  C26 UNL     1      25.073  28.923  11.246  1.00  0.00     0.001 C 
HETATM   24  C27 UNL     1      24.376  28.975   9.902  1.00  0.00     0.001 C 
HETATM   25  C28 UNL     1      22.963  28.495  10.294  1.00  0.00     0.013 C 
ENDBRANCH  19  20
BRANCH  18  26
HETATM   26  C29 UNL     1      19.851  26.074  11.695  1.00  0.00     0.279 C 
HETATM   27  O4  UNL     1      20.186  24.919  11.372  1.00  0.00    -0.279 OA
BRANCH  26  28
HETATM   28  C30 UNL     1      18.503  26.609  11.645  1.00  0.00     0.363 C 
HETATM   29  O5  UNL     1      17.691  26.692  12.561  1.00  0.00    -0.248 OA
HETATM   30  N6  UNL     1      18.235  27.046  10.337  1.00  0.00    -0.408 NA
BRANCH  30  31
HETATM   31  C31 UNL     1      17.969  27.462   9.111  1.00  0.00     0.230 C 
BRANCH  31  32
HETATM   32  C32 UNL     1      17.938  26.269   8.099  1.00  0.00    -0.024 C 
HETATM   33  C33 UNL     1      16.830  25.337   8.385  1.00  0.00     0.017 C 
HETATM   34  C34 UNL     1      19.271  25.542   8.084  1.00  0.00     0.017 C 
HETATM   35  C35 UNL     1      17.799  26.890   6.696  1.00  0.00     0.017 C 
ENDBRANCH  31  32
ENDBRANCH  30  31
ENDBRANCH  26  28
ENDBRANCH  18  26
ENDBRANCH  16  18
ENDBRANCH  12  14
BRANCH   1  36
HETATM   36  C3  UNL     1      21.570  32.167  14.401  1.00  0.00     0.085 C 
BRANCH  36  37
HETATM   37  C2  UNL     1      21.616  33.639  14.698  1.00  0.00     0.007 C 
HETATM   38  C1  UNL     1      22.725  34.379  14.449  1.00  0.00     0.012 C 
ENDBRANCH  36  37
ENDBRANCH   1  36
BRANCH   8  39
HETATM   39  C8  UNL     1      15.343  34.272  17.259  1.00  0.00     0.129 C 
BRANCH  39  40
HETATM   40  C9  UNL     1      15.287  35.711  17.215  1.00  0.00     0.008 C 
HETATM   41  C10 UNL     1      15.808  36.122  18.633  1.00  0.00     0.011 C 
HETATM   42  C11 UNL     1      17.160  36.703  18.454  1.00  0.00     0.041 C 
HETATM   43  C12 UNL     1      16.894  37.490  17.181  1.00  0.00     0.003 C 
HETATM   44  C16 UNL     1      16.216  36.528  16.318  1.00  0.00     0.047 C 
BRANCH  43  45
HETATM   45  C13 UNL     1      17.814  38.594  16.944  1.00  0.00     0.312 C 
HETATM   46  O2  UNL     1      17.360  39.607  16.361  1.00  0.00    -0.252 OA
HETATM   47  N4  UNL     1      19.135  38.396  17.347  1.00  0.00    -0.412 NA
BRANCH  47  48
HETATM   48  C14 UNL     1      20.440  38.295  17.698  1.00  0.00     0.217 C 
HETATM   49  C15 UNL     1      21.026  36.911  17.393  1.00  0.00     0.041 C 
ENDBRANCH  47  48
ENDBRANCH  43  45
ENDBRANCH  39  40
ENDBRANCH   8  39
TORSDOF 13
ENDMDL
MODEL 5
REMARK VINA RESULT: -9.996948065      0.813      1.225
REMARK  13 active torsions:
REMARK  status: ('A' for Active; 'I' for Inactive)
REMARK    1  A    between atoms: C2_2  and  C3_3 
REMARK    2  A    between atoms: C3_3  and  N1_4 
REMARK       I    between atoms: N2_8  and  C7_9 
REMARK       I    between atoms: C7_9  and  N3_11 
REMARK    3  A    between atoms: N3_11  and  C8_13 
REMARK    4  A    between atoms: C8_13  and  C9_14 
REMARK    5  A    between atoms: C12_17  and  C13_18 
REMARK       I    between atoms: C13_18  and  N4_20 
REMARK    6  A    between atoms: N4_20  and  C14_21 
REMARK    7  A    between atoms: C19_26  and  C20_27 
REMARK       I    between atoms: C20_27  and  N5_29 
REMARK    8  A    between atoms: N5_29  and  C21_31 
REMARK    9  A    between atoms: C21_31  and  C29_39 
REMARK   10  A    between atoms: C22_32  and  C23_33 
REMARK   11  A    between atoms: C29_39  and  C30_41 
REMARK       I    between atoms: C30_41  and  N6_43 
REMARK   12  A    between atoms: N6_43  and  C31_44 
REMARK   13  A    between atoms: C31_44  and  C32_45 
ROOT
HETATM    1  N1  UNL     1      20.419  31.515  14.417  1.00  0.00    -0.378 N 
HETATM    2  C4  UNL     1      19.723  31.354  13.211  1.00  0.00     0.089 C 
HETATM    3  C5  UNL     1      18.793  32.473  12.935  1.00  0.00     0.070 C 
HETATM    4  C6  UNL     1      17.849  32.747  13.979  1.00  0.00     0.071 C 
HETATM    5  N2  UNL     1      17.952  32.266  15.365  1.00  0.00    -0.312 N 
HETATM    6  C7  UNL     1      16.820  32.922  16.000  1.00  0.00     0.322 C 
HETATM    7  O1  UNL     1      15.802  33.075  15.273  1.00  0.00    -0.247 OA
HETATM    8  N3  UNL     1      16.775  33.458  17.355  1.00  0.00    -0.342 N 
ATOM      9  H3  UNL     1      17.494  33.316  18.065  1.00  0.00     0.164 HD
HETATM   10  C17 UNL     1      18.733  31.360  16.126  1.00  0.00     0.159 C 
HETATM   11  C18 UNL     1      19.870  30.679  15.432  1.00  0.00     0.115 C 
HETATM   12  C19 UNL     1      19.441  29.468  14.644  1.00  0.00     0.104 C 
HETATM   13  C36 UNL     1      18.790  30.133  13.392  1.00  0.00     0.041 C 
ENDROOT
BRANCH  12  14
HETATM   14  C20 UNL     1      20.516  28.617  14.035  1.00  0.00     0.228 C 
HETATM   15  O3  UNL     1      21.691  28.608  14.397  1.00  0.00    -0.273 OA
HETATM   16  N5  UNL     1      20.171  27.790  12.971  1.00  0.00    -0.323 N 
ATOM     17  H5  UNL     1      19.176  27.697  12.770  1.00  0.00     0.169 HD
BRANCH  16  18
HETATM   18  C21 UNL     1      21.039  27.076  12.152  1.00  0.00     0.089 C 
HETATM   19  C22 UNL     1      22.134  26.516  11.555  1.00  0.00     0.016 C 
BRANCH  19  20
HETATM   20  C23 UNL     1      23.299  27.247  11.007  1.00  0.00    -0.024 C 
HETATM   21  C24 UNL     1      22.642  28.268  10.059  1.00  0.00     0.019 C 
HETATM   22  C25 UNL     1      24.388  26.621  10.266  1.00  0.00     0.013 C 
HETATM   23  C26 UNL     1      25.625  27.485  10.485  1.00  0.00     0.001 C 
HETATM   24  C27 UNL     1      25.114  28.725  11.190  1.00  0.00     0.001 C 
HETATM   25  C28 UNL     1      24.014  28.114  12.082  1.00  0.00     0.013 C 
ENDBRANCH  19  20
BRANCH  18  26
HETATM   26  C29 UNL     1      19.791  26.096  11.662  1.00  0.00     0.279 C 
HETATM   27  O4  UNL     1      20.098  24.928  11.358  1.00  0.00    -0.279 OA
BRANCH  26  28
HETATM   28  C30 UNL     1      18.456  26.662  11.606  1.00  0.00     0.363 C 
HETATM   29  O5  UNL     1      17.653  26.788  12.525  1.00  0.00    -0.248 OA
HETATM   30  N6  UNL     1      18.190  27.072  10.289  1.00  0.00    -0.408 NA
BRANCH  30  31
HETATM   31  C31 UNL     1      17.926  27.462   9.054  1.00  0.00     0.230 C 
BRANCH  31  32
HETATM   32  C32 UNL     1      17.921  26.252   8.063  1.00  0.00    -0.024 C 
HETATM   33  C33 UNL     1      16.822  25.310   8.353  1.00  0.00     0.017 C 
HETATM   34  C34 UNL     1      19.263  25.542   8.075  1.00  0.00     0.017 C 
HETATM   35  C35 UNL     1      17.790  26.847   6.648  1.00  0.00     0.017 C 
ENDBRANCH  31  32
ENDBRANCH  30  31
ENDBRANCH  26  28
ENDBRANCH  18  26
ENDBRANCH  16  18
ENDBRANCH  12  14
BRANCH   1  36
HETATM   36  C3  UNL     1      21.677  32.094  14.477  1.00  0.00     0.085 C 
BRANCH  36  37
HETATM   37  C2  UNL     1      21.752  33.583  14.663  1.00  0.00     0.007 C 
HETATM   38  C1  UNL     1      22.887  34.275  14.395  1.00  0.00     0.012 C 
ENDBRANCH  36  37
ENDBRANCH   1  36
BRANCH   8  39
HETATM   39  C8  UNL     1      15.559  34.223  17.544  1.00  0.00     0.129 C 
BRANCH  39  40
HETATM   40  C9  UNL     1      15.537  35.527  18.156  1.00  0.00     0.008 C 
HETATM   41  C10 UNL     1      17.056  35.819  18.403  1.00  0.00     0.011 C 
HETATM   42  C11 UNL     1      17.465  36.868  17.439  1.00  0.00     0.041 C 
HETATM   43  C12 UNL     1      16.219  37.735  17.515  1.00  0.00     0.003 C 
HETATM   44  C16 UNL     1      15.125  36.777  17.379  1.00  0.00     0.047 C 
BRANCH  43  45
HETATM   45  C13 UNL     1      16.413  39.118  17.103  1.00  0.00     0.312 C 
HETATM   46  O2  UNL     1      17.361  39.358  16.318  1.00  0.00    -0.252 OA
HETATM   47  N4  UNL     1      15.549  40.058  17.664  1.00  0.00    -0.412 NA
BRANCH  47  48
HETATM   48  C14 UNL     1      14.763  41.044  18.163  1.00  0.00     0.217 C 
HETATM   49  C15 UNL     1      15.189  42.436  17.683  1.00  0.00     0.041 C 
ENDBRANCH  47  48
ENDBRANCH  43  45
ENDBRANCH  39  40
ENDBRANCH   8  39
TORSDOF 13
ENDMDL
