MODEL 1
REMARK VINA RESULT: -9.154118651      0.000      0.000
REMARK  19 active torsions:
REMARK  status: ('A' for Active; 'I' for Inactive)
REMARK    1  A    between atoms: C3_3  and  C4_4 
REMARK    2  A    between atoms: C6_11  and  C7_12 
REMARK    3  A    between atoms: C7_12  and  C8_13 
REMARK    4  A    between atoms: C11_16  and  O2_17 
REMARK    5  A    between atoms: O2_17  and  C12_18 
REMARK    6  A    between atoms: C12_18  and  C13_19 
REMARK    7  A    between atoms: C13_19  and  O3_20 
REMARK    8  A    between atoms: C13_19  and  C14_22 
REMARK    9  A    between atoms: C18_26  and  C19_27 
REMARK   10  A    between atoms: C19_27  and  C20_28 
REMARK   11  A    between atoms: C20_28  and  C21_29 
REMARK   12  A    between atoms: N4_34  and  C24_36 
REMARK   13  A    between atoms: C24_36  and  C25_37 
REMARK   14  A    between atoms: C25_37  and  C26_38 
REMARK   15  A    between atoms: C26_38  and  C27_39 
REMARK   16  A    between atoms: C27_39  and  C28_40 
REMARK   17  A    between atoms: C31_43  and  N5_44 
REMARK   18  A    between atoms: N5_44  and  C33_46 
REMARK   19  A    between atoms: C33_46  and  C34_47 
ROOT
HETATM    1  C8  UNL     1      19.562  32.343  15.181  1.00  0.00     0.019 A 
HETATM    2  C9  UNL     1      20.435  31.327  14.864  1.00  0.00    -0.012 A 
HETATM    3  C10 UNL     1      21.756  31.145  15.512  1.00  0.00     0.052 C 
HETATM    4  C11 UNL     1      20.136  30.480  13.781  1.00  0.00     0.102 A 
HETATM    5  C18 UNL     1      19.042  30.607  12.994  1.00  0.00     0.064 A 
HETATM    6  N3  UNL     1      18.171  31.639  13.326  1.00  0.00    -0.340 N 
ATOM      7  H3  UNL     1      17.325  31.775  12.772  1.00  0.00     0.167 HD
HETATM    8  C23 UNL     1      18.417  32.450  14.350  1.00  0.00     0.112 A 
HETATM    9  N4  UNL     1      17.600  33.411  14.599  1.00  0.00    -0.376 N 
ATOM     10  H4  UNL     1      17.832  34.026  15.378  1.00  0.00     0.161 HD
ENDROOT
BRANCH   1  11
HETATM   11  C7  UNL     1      19.625  33.106  16.218  1.00  0.00     0.048 C 
BRANCH  11  12
HETATM   12  C6  UNL     1      20.131  34.412  16.502  1.00  0.00     0.064 A 
HETATM   13  C4  UNL     1      21.322  34.972  16.081  1.00  0.00     0.063 A 
HETATM   14  N1  UNL     1      21.354  36.259  16.545  1.00  0.00    -0.307 N 
HETATM   15  C5  UNL     1      20.241  36.487  17.219  1.00  0.00     0.325 A 
ATOM     16  H1  UNL     1      22.109  36.928  16.395  1.00  0.00     0.170 HD
HETATM   17  O1  UNL     1      19.994  37.600  17.768  1.00  0.00    -0.247 OA
HETATM   18  N2  UNL     1      19.506  35.374  17.192  1.00  0.00    -0.306 N 
ATOM     19  H2  UNL     1      18.593  35.271  17.634  1.00  0.00     0.170 HD
BRANCH  13  20
HETATM   20  C3  UNL     1      22.386  34.388  15.302  1.00  0.00     0.027 C 
HETATM   21  C2  UNL     1      22.553  34.396  14.013  1.00  0.00    -0.029 C 
HETATM   22  C1  UNL     1      23.763  33.707  13.449  1.00  0.00     0.036 C 
ENDBRANCH  13  20
ENDBRANCH  11  12
ENDBRANCH   1  11
BRANCH   9  23
HETATM   23  C24 UNL     1      16.391  33.700  13.881  1.00  0.00     0.121 C 
BRANCH  23  24
HETATM   24  C25 UNL     1      15.252  33.298  14.828  1.00  0.00     0.020 C 
BRANCH  24  25
HETATM   25  C26 UNL     1      15.700  33.722  16.200  1.00  0.00     0.006 C 
BRANCH  25  26
HETATM   26  C27 UNL     1      14.692  34.615  16.830  1.00  0.00     0.038 C 
BRANCH  26  27
HETATM   27  C28 UNL     1      15.230  35.970  17.031  1.00  0.00    -0.058 A 
HETATM   28  C29 UNL     1      16.335  36.427  16.318  1.00  0.00     0.009 A 
HETATM   29  C30 UNL     1      16.812  37.689  16.502  1.00  0.00     0.030 A 
HETATM   30  C31 UNL     1      16.246  38.606  17.399  1.00  0.00     0.036 A 
HETATM   31  C35 UNL     1      15.146  38.153  18.110  1.00  0.00    -0.035 A 
HETATM   32  C36 UNL     1      14.486  39.068  19.078  1.00  0.00     0.050 C 
HETATM   33  C37 UNL     1      14.663  36.870  17.921  1.00  0.00     0.016 A 
BRANCH  30  34
HETATM   34  N5  UNL     1      16.796  39.888  17.522  1.00  0.00    -0.378 N 
HETATM   35  C32 UNL     1      16.606  40.840  16.415  1.00  0.00     0.150 C 
BRANCH  34  36
HETATM   36  C33 UNL     1      17.535  40.328  18.651  1.00  0.00     0.191 C 
BRANCH  36  37
HETATM   37  C34 UNL     1      18.716  41.122  18.310  1.00  0.00     0.250 C 
HETATM   38  O4  UNL     1      19.826  40.772  18.654  1.00  0.00    -0.305 OA
ENDBRANCH  36  37
ENDBRANCH  34  36
ENDBRANCH  30  34
ENDBRANCH  26  27
ENDBRANCH  25  26
ENDBRANCH  24  25
ENDBRANCH  23  24
ENDBRANCH   9  23
BRANCH   5  39
HETATM   39  C19 UNL     1      18.905  30.117  11.779  1.00  0.00     0.006 C 
BRANCH  39  40
HETATM   40  C20 UNL     1      18.412  28.805  11.403  1.00  0.00     0.029 C 
BRANCH  40  41
HETATM   41  C21 UNL     1      17.767  28.599  10.076  1.00  0.00    -0.001 C 
HETATM   42  C22 UNL     1      16.380  28.066  10.128  1.00  0.00     0.005 C 
ENDBRANCH  40  41
ENDBRANCH  39  40
ENDBRANCH   5  39
BRANCH   4  43
HETATM   43  O2  UNL     1      21.035  29.456  13.542  1.00  0.00    -0.346 OA
BRANCH  43  44
HETATM   44  C12 UNL     1      22.098  29.418  12.663  1.00  0.00     0.208 C 
BRANCH  44  45
HETATM   45  C13 UNL     1      22.601  28.379  11.828  1.00  0.00     0.149 C 
BRANCH  45  46
HETATM   46  O3  UNL     1      21.846  27.179  12.261  1.00  0.00    -0.393 OA
ATOM     47  H3  UNL     1      22.200  26.481  11.722  1.00  0.00     0.210 HD
ENDBRANCH  45  46
BRANCH  45  48
HETATM   48  C14 UNL     1      23.920  27.870  11.527  1.00  0.00    -0.023 C 
HETATM   49  C15 UNL     1      25.106  28.285  12.301  1.00  0.00     0.017 C 
HETATM   50  C16 UNL     1      23.958  26.350  11.306  1.00  0.00     0.017 C 
HETATM   51  C17 UNL     1      24.184  28.391  10.041  1.00  0.00     0.017 C 
ENDBRANCH  45  48
ENDBRANCH  44  45
ENDBRANCH  43  44
ENDBRANCH   4  43
TORSDOF 19
ENDMDL
MODEL 2
REMARK VINA RESULT: -9.108091049      1.683      2.011
REMARK  19 active torsions:
REMARK  status: ('A' for Active; 'I' for Inactive)
REMARK    1  A    between atoms: C3_3  and  C4_4 
REMARK    2  A    between atoms: C6_11  and  C7_12 
REMARK    3  A    between atoms: C7_12  and  C8_13 
REMARK    4  A    between atoms: C11_16  and  O2_17 
REMARK    5  A    between atoms: O2_17  and  C12_18 
REMARK    6  A    between atoms: C12_18  and  C13_19 
REMARK    7  A    between atoms: C13_19  and  O3_20 
REMARK    8  A    between atoms: C13_19  and  C14_22 
REMARK    9  A    between atoms: C18_26  and  C19_27 
REMARK   10  A    between atoms: C19_27  and  C20_28 
REMARK   11  A    between atoms: C20_28  and  C21_29 
REMARK   12  A    between atoms: N4_34  and  C24_36 
REMARK   13  A    between atoms: C24_36  and  C25_37 
REMARK   14  A    between atoms: C25_37  and  C26_38 
REMARK   15  A    between atoms: C26_38  and  C27_39 
REMARK   16  A    between atoms: C27_39  and  C28_40 
REMARK   17  A    between atoms: C31_43  and  N5_44 
REMARK   18  A    between atoms: N5_44  and  C33_46 
REMARK   19  A    between atoms: C33_46  and  C34_47 
ROOT
HETATM    1  C8  UNL     1      20.303  32.992  14.192  1.00  0.00     0.019 A 
HETATM    2  C9  UNL     1      21.441  32.405  13.688  1.00  0.00    -0.012 A 
HETATM    3  C10 UNL     1      22.782  33.034  13.736  1.00  0.00     0.052 C 
HETATM    4  C11 UNL     1      21.330  31.201  12.969  1.00  0.00     0.102 A 
HETATM    5  C18 UNL     1      20.157  30.575  12.708  1.00  0.00     0.064 A 
HETATM    6  N3  UNL     1      19.017  31.181  13.223  1.00  0.00    -0.340 N 
ATOM      7  H3  UNL     1      18.107  30.748  13.065  1.00  0.00     0.167 HD
HETATM    8  C23 UNL     1      19.088  32.313  13.917  1.00  0.00     0.112 A 
HETATM    9  N4  UNL     1      18.003  32.855  14.344  1.00  0.00    -0.376 N 
ATOM     10  H4  UNL     1      18.094  33.734  14.854  1.00  0.00     0.161 HD
ENDROOT
BRANCH   1  11
HETATM   11  C7  UNL     1      20.256  34.010  14.982  1.00  0.00     0.048 C 
BRANCH  11  12
HETATM   12  C6  UNL     1      21.143  34.618  15.924  1.00  0.00     0.064 A 
HETATM   13  C4  UNL     1      21.810  35.822  15.809  1.00  0.00     0.063 A 
HETATM   14  N1  UNL     1      22.493  36.024  16.977  1.00  0.00    -0.307 N 
HETATM   15  C5  UNL     1      22.263  34.998  17.777  1.00  0.00     0.325 A 
ATOM     16  H1  UNL     1      23.081  36.829  17.193  1.00  0.00     0.170 HD
HETATM   17  O1  UNL     1      22.770  34.911  18.934  1.00  0.00    -0.247 OA
HETATM   18  N2  UNL     1      21.449  34.153  17.142  1.00  0.00    -0.306 N 
ATOM     19  H2  UNL     1      21.107  33.275  17.531  1.00  0.00     0.170 HD
BRANCH  13  20
HETATM   20  C3  UNL     1      21.840  36.752  14.707  1.00  0.00     0.027 C 
HETATM   21  C2  UNL     1      21.746  38.048  14.730  1.00  0.00    -0.029 C 
HETATM   22  C1  UNL     1      21.810  38.790  13.425  1.00  0.00     0.036 C 
ENDBRANCH  13  20
ENDBRANCH  11  12
ENDBRANCH   1  11
BRANCH   9  23
HETATM   23  C24 UNL     1      16.675  32.339  14.171  1.00  0.00     0.121 C 
BRANCH  23  24
HETATM   24  C25 UNL     1      16.016  32.445  15.554  1.00  0.00     0.020 C 
BRANCH  24  25
HETATM   25  C26 UNL     1      14.990  33.538  15.428  1.00  0.00     0.006 C 
BRANCH  25  26
HETATM   26  C27 UNL     1      14.708  34.149  16.754  1.00  0.00     0.038 C 
BRANCH  26  27
HETATM   27  C28 UNL     1      15.333  35.477  16.873  1.00  0.00    -0.058 A 
HETATM   28  C29 UNL     1      16.451  35.825  16.120  1.00  0.00     0.009 A 
HETATM   29  C30 UNL     1      17.008  37.063  16.228  1.00  0.00     0.030 A 
HETATM   30  C31 UNL     1      16.516  38.060  17.082  1.00  0.00     0.036 A 
HETATM   31  C35 UNL     1      15.403  37.715  17.833  1.00  0.00    -0.035 A 
HETATM   32  C36 UNL     1      14.819  38.720  18.759  1.00  0.00     0.050 C 
HETATM   33  C37 UNL     1      14.838  36.457  17.721  1.00  0.00     0.016 A 
BRANCH  30  34
HETATM   34  N5  UNL     1      17.146  39.310  17.126  1.00  0.00    -0.378 N 
HETATM   35  C32 UNL     1      16.660  40.371  16.229  1.00  0.00     0.150 C 
BRANCH  34  36
HETATM   36  C33 UNL     1      18.235  39.617  17.983  1.00  0.00     0.191 C 
BRANCH  36  37
HETATM   37  C34 UNL     1      19.532  39.172  17.471  1.00  0.00     0.250 C 
HETATM   38  O4  UNL     1      20.031  38.133  17.852  1.00  0.00    -0.305 OA
ENDBRANCH  36  37
ENDBRANCH  34  36
ENDBRANCH  30  34
ENDBRANCH  26  27
ENDBRANCH  25  26
ENDBRANCH  24  25
ENDBRANCH  23  24
ENDBRANCH   9  23
BRANCH   5  39
HETATM   39  C19 UNL     1      19.950  29.694  11.751  1.00  0.00     0.006 C 
BRANCH  39  40
HETATM   40  C20 UNL     1      19.755  28.263  11.890  1.00  0.00     0.029 C 
BRANCH  40  41
HETATM   41  C21 UNL     1      18.425  27.725  12.292  1.00  0.00    -0.001 C 
HETATM   42  C22 UNL     1      18.007  26.489  11.578  1.00  0.00     0.005 C 
ENDBRANCH  40  41
ENDBRANCH  39  40
ENDBRANCH   5  39
BRANCH   4  43
HETATM   43  O2  UNL     1      22.516  30.645  12.525  1.00  0.00    -0.346 OA
BRANCH  43  44
HETATM   44  C12 UNL     1      23.222  29.577  13.038  1.00  0.00     0.208 C 
BRANCH  44  45
HETATM   45  C13 UNL     1      23.797  28.433  12.414  1.00  0.00     0.149 C 
BRANCH  45  46
HETATM   46  O3  UNL     1      25.232  28.513  12.777  1.00  0.00    -0.393 OA
ATOM     47  H3  UNL     1      25.677  28.125  12.033  1.00  0.00     0.210 HD
ENDBRANCH  45  46
BRANCH  45  48
HETATM   48  C14 UNL     1      23.809  27.912  11.065  1.00  0.00    -0.023 C 
HETATM   49  C15 UNL     1      22.978  28.506   9.999  1.00  0.00     0.017 C 
HETATM   50  C16 UNL     1      25.220  27.638  10.523  1.00  0.00     0.017 C 
HETATM   51  C17 UNL     1      23.266  26.422  11.241  1.00  0.00     0.017 C 
ENDBRANCH  45  48
ENDBRANCH  44  45
ENDBRANCH  43  44
ENDBRANCH   4  43
TORSDOF 19
ENDMDL
MODEL 3
REMARK VINA RESULT: -9.052018993      1.615      2.148
REMARK  19 active torsions:
REMARK  status: ('A' for Active; 'I' for Inactive)
REMARK    1  A    between atoms: C3_3  and  C4_4 
REMARK    2  A    between atoms: C6_11  and  C7_12 
REMARK    3  A    between atoms: C7_12  and  C8_13 
REMARK    4  A    between atoms: C11_16  and  O2_17 
REMARK    5  A    between atoms: O2_17  and  C12_18 
REMARK    6  A    between atoms: C12_18  and  C13_19 
REMARK    7  A    between atoms: C13_19  and  O3_20 
REMARK    8  A    between atoms: C13_19  and  C14_22 
REMARK    9  A    between atoms: C18_26  and  C19_27 
REMARK   10  A    between atoms: C19_27  and  C20_28 
REMARK   11  A    between atoms: C20_28  and  C21_29 
REMARK   12  A    between atoms: N4_34  and  C24_36 
REMARK   13  A    between atoms: C24_36  and  C25_37 
REMARK   14  A    between atoms: C25_37  and  C26_38 
REMARK   15  A    between atoms: C26_38  and  C27_39 
REMARK   16  A    between atoms: C27_39  and  C28_40 
REMARK   17  A    between atoms: C31_43  and  N5_44 
REMARK   18  A    between atoms: N5_44  and  C33_46 
REMARK   19  A    between atoms: C33_46  and  C34_47 
ROOT
HETATM    1  C8  UNL     1      20.313  32.881  14.289  1.00  0.00     0.019 A 
HETATM    2  C9  UNL     1      21.401  32.266  13.712  1.00  0.00    -0.012 A 
HETATM    3  C10 UNL     1      22.717  32.923  13.532  1.00  0.00     0.052 C 
HETATM    4  C11 UNL     1      21.243  30.991  13.139  1.00  0.00     0.102 A 
HETATM    5  C18 UNL     1      20.068  30.319  13.089  1.00  0.00     0.064 A 
HETATM    6  N3  UNL     1      18.979  30.954  13.674  1.00  0.00    -0.340 N 
ATOM      7  H3  UNL     1      18.071  30.489  13.673  1.00  0.00     0.167 HD
HETATM    8  C23 UNL     1      19.095  32.153  14.235  1.00  0.00     0.112 A 
HETATM    9  N4  UNL     1      18.053  32.716  14.733  1.00  0.00    -0.376 N 
ATOM     10  H4  UNL     1      18.176  33.645  15.136  1.00  0.00     0.161 HD
ENDROOT
BRANCH   1  11
HETATM   11  C7  UNL     1      20.328  33.975  14.970  1.00  0.00     0.048 C 
BRANCH  11  12
HETATM   12  C6  UNL     1      21.194  34.567  15.941  1.00  0.00     0.064 A 
HETATM   13  C4  UNL     1      21.840  35.786  15.873  1.00  0.00     0.063 A 
HETATM   14  N1  UNL     1      22.510  35.960  17.054  1.00  0.00    -0.307 N 
HETATM   15  C5  UNL     1      22.292  34.902  17.816  1.00  0.00     0.325 A 
ATOM     16  H1  UNL     1      23.080  36.768  17.303  1.00  0.00     0.170 HD
HETATM   17  O1  UNL     1      22.790  34.784  18.973  1.00  0.00    -0.247 OA
HETATM   18  N2  UNL     1      21.499  34.065  17.145  1.00  0.00    -0.306 N 
ATOM     19  H2  UNL     1      21.171  33.168  17.500  1.00  0.00     0.170 HD
BRANCH  13  20
HETATM   20  C3  UNL     1      21.862  36.755  14.805  1.00  0.00     0.027 C 
HETATM   21  C2  UNL     1      21.735  38.046  14.871  1.00  0.00    -0.029 C 
HETATM   22  C1  UNL     1      21.798  38.834  13.594  1.00  0.00     0.036 C 
ENDBRANCH  13  20
ENDBRANCH  11  12
ENDBRANCH   1  11
BRANCH   9  23
HETATM   23  C24 UNL     1      16.730  32.159  14.777  1.00  0.00     0.121 C 
BRANCH  23  24
HETATM   24  C25 UNL     1      15.792  33.314  14.398  1.00  0.00     0.020 C 
BRANCH  24  25
HETATM   25  C26 UNL     1      14.801  33.413  15.526  1.00  0.00     0.006 C 
BRANCH  25  26
HETATM   26  C27 UNL     1      15.495  33.685  16.813  1.00  0.00     0.038 C 
BRANCH  26  27
HETATM   27  C28 UNL     1      15.695  35.130  17.017  1.00  0.00    -0.058 A 
HETATM   28  C29 UNL     1      14.665  35.949  17.472  1.00  0.00     0.009 A 
HETATM   29  C30 UNL     1      14.869  37.280  17.672  1.00  0.00     0.030 A 
HETATM   30  C31 UNL     1      16.097  37.918  17.443  1.00  0.00     0.036 A 
HETATM   31  C35 UNL     1      17.123  37.104  16.990  1.00  0.00    -0.035 A 
HETATM   32  C36 UNL     1      18.457  37.704  16.728  1.00  0.00     0.050 C 
HETATM   33  C37 UNL     1      16.913  35.750  16.787  1.00  0.00     0.016 A 
BRANCH  30  34
HETATM   34  N5  UNL     1      16.221  39.292  17.682  1.00  0.00    -0.378 N 
HETATM   35  C32 UNL     1      16.006  40.219  16.560  1.00  0.00     0.150 C 
BRANCH  34  36
HETATM   36  C33 UNL     1      16.549  39.849  18.946  1.00  0.00     0.191 C 
BRANCH  36  37
HETATM   37  C34 UNL     1      17.660  40.801  18.900  1.00  0.00     0.250 C 
HETATM   38  O4  UNL     1      18.811  40.421  18.947  1.00  0.00    -0.305 OA
ENDBRANCH  36  37
ENDBRANCH  34  36
ENDBRANCH  30  34
ENDBRANCH  26  27
ENDBRANCH  25  26
ENDBRANCH  24  25
ENDBRANCH  23  24
ENDBRANCH   9  23
BRANCH   5  39
HETATM   39  C19 UNL     1      19.777  29.338  12.259  1.00  0.00     0.006 C 
BRANCH  39  40
HETATM   40  C20 UNL     1      18.462  28.838  11.906  1.00  0.00     0.029 C 
BRANCH  40  41
HETATM   41  C21 UNL     1      18.056  28.744  10.475  1.00  0.00    -0.001 C 
HETATM   42  C22 UNL     1      16.740  28.092  10.237  1.00  0.00     0.005 C 
ENDBRANCH  40  41
ENDBRANCH  39  40
ENDBRANCH   5  39
BRANCH   4  43
HETATM   43  O2  UNL     1      22.385  30.415  12.613  1.00  0.00    -0.346 OA
BRANCH  43  44
HETATM   44  C12 UNL     1      23.172  29.410  13.135  1.00  0.00     0.208 C 
BRANCH  44  45
HETATM   45  C13 UNL     1      23.736  28.243  12.544  1.00  0.00     0.149 C 
BRANCH  45  46
HETATM   46  O3  UNL     1      25.197  28.474  12.622  1.00  0.00    -0.393 OA
ATOM     47  H3  UNL     1      25.563  27.601  12.693  1.00  0.00     0.210 HD
ENDBRANCH  45  46
BRANCH  45  48
HETATM   48  C14 UNL     1      23.560  27.560  11.281  1.00  0.00    -0.023 C 
HETATM   49  C15 UNL     1      22.295  26.881  10.938  1.00  0.00     0.017 C 
HETATM   50  C16 UNL     1      24.053  28.367  10.071  1.00  0.00     0.017 C 
HETATM   51  C17 UNL     1      24.659  26.403  11.333  1.00  0.00     0.017 C 
ENDBRANCH  45  48
ENDBRANCH  44  45
ENDBRANCH  43  44
ENDBRANCH   4  43
TORSDOF 19
ENDMDL
MODEL 4
REMARK VINA RESULT: -9.040358268      2.789     10.056
REMARK  19 active torsions:
REMARK  status: ('A' for Active; 'I' for Inactive)
REMARK    1  A    between atoms: C3_3  and  C4_4 
REMARK    2  A    between atoms: C6_11  and  C7_12 
REMARK    3  A    between atoms: C7_12  and  C8_13 
REMARK    4  A    between atoms: C11_16  and  O2_17 
REMARK    5  A    between atoms: O2_17  and  C12_18 
REMARK    6  A    between atoms: C12_18  and  C13_19 
REMARK    7  A    between atoms: C13_19  and  O3_20 
REMARK    8  A    between atoms: C13_19  and  C14_22 
REMARK    9  A    between atoms: C18_26  and  C19_27 
REMARK   10  A    between atoms: C19_27  and  C20_28 
REMARK   11  A    between atoms: C20_28  and  C21_29 
REMARK   12  A    between atoms: N4_34  and  C24_36 
REMARK   13  A    between atoms: C24_36  and  C25_37 
REMARK   14  A    between atoms: C25_37  and  C26_38 
REMARK   15  A    between atoms: C26_38  and  C27_39 
REMARK   16  A    between atoms: C27_39  and  C28_40 
REMARK   17  A    between atoms: C31_43  and  N5_44 
REMARK   18  A    between atoms: N5_44  and  C33_46 
REMARK   19  A    between atoms: C33_46  and  C34_47 
ROOT
HETATM    1  C8  UNL     1      19.114  35.174  16.767  1.00  0.00     0.019 A 
HETATM    2  C9  UNL     1      20.080  36.150  16.672  1.00  0.00    -0.012 A 
HETATM    3  C10 UNL     1      19.918  37.523  17.208  1.00  0.00     0.052 C 
HETATM    4  C11 UNL     1      21.239  35.896  15.916  1.00  0.00     0.102 A 
HETATM    5  C18 UNL     1      21.470  34.745  15.240  1.00  0.00     0.064 A 
HETATM    6  N3  UNL     1      20.485  33.770  15.346  1.00  0.00    -0.340 N 
ATOM      7  H3  UNL     1      20.612  32.879  14.865  1.00  0.00     0.167 HD
HETATM    8  C23 UNL     1      19.383  33.973  16.061  1.00  0.00     0.112 A 
HETATM    9  N4  UNL     1      18.484  33.054  16.102  1.00  0.00    -0.376 N 
ATOM     10  H4  UNL     1      17.643  33.254  16.643  1.00  0.00     0.161 HD
ENDROOT
BRANCH   1  11
HETATM   11  C7  UNL     1      18.074  35.203  17.528  1.00  0.00     0.048 C 
BRANCH  11  12
HETATM   12  C6  UNL     1      16.809  35.870  17.511  1.00  0.00     0.064 A 
HETATM   13  C4  UNL     1      15.571  35.337  17.209  1.00  0.00     0.063 A 
HETATM   14  N1  UNL     1      14.646  36.330  17.382  1.00  0.00    -0.307 N 
HETATM   15  C5  UNL     1      15.277  37.424  17.772  1.00  0.00     0.325 A 
ATOM     16  H1  UNL     1      13.641  36.241  17.236  1.00  0.00     0.170 HD
HETATM   17  O1  UNL     1      14.672  38.511  18.009  1.00  0.00    -0.247 OA
HETATM   18  N2  UNL     1      16.579  37.145  17.850  1.00  0.00    -0.306 N 
ATOM     19  H2  UNL     1      17.299  37.810  18.129  1.00  0.00     0.170 HD
BRANCH  13  20
HETATM   20  C3  UNL     1      15.225  34.004  16.782  1.00  0.00     0.027 C 
HETATM   21  C2  UNL     1      15.017  33.560  15.579  1.00  0.00    -0.029 C 
HETATM   22  C1  UNL     1      14.668  32.109  15.406  1.00  0.00     0.036 C 
ENDBRANCH  13  20
ENDBRANCH  11  12
ENDBRANCH   1  11
BRANCH   9  23
HETATM   23  C24 UNL     1      18.554  31.774  15.458  1.00  0.00     0.121 C 
BRANCH  23  24
HETATM   24  C25 UNL     1      18.109  32.024  14.010  1.00  0.00     0.020 C 
BRANCH  24  25
HETATM   25  C26 UNL     1      18.359  30.731  13.283  1.00  0.00     0.006 C 
BRANCH  25  26
HETATM   26  C27 UNL     1      19.088  30.976  12.010  1.00  0.00     0.038 C 
BRANCH  26  27
HETATM   27  C28 UNL     1      19.720  29.743  11.512  1.00  0.00    -0.058 A 
HETATM   28  C29 UNL     1      20.987  29.758  10.935  1.00  0.00     0.009 A 
HETATM   29  C30 UNL     1      21.567  28.608  10.493  1.00  0.00     0.030 A 
HETATM   30  C31 UNL     1      20.954  27.350  10.581  1.00  0.00     0.036 A 
HETATM   31  C35 UNL     1      19.692  27.333  11.155  1.00  0.00    -0.035 A 
HETATM   32  C36 UNL     1      18.978  26.036  11.288  1.00  0.00     0.050 C 
HETATM   33  C37 UNL     1      19.105  28.504  11.603  1.00  0.00     0.016 A 
BRANCH  30  34
HETATM   34  N5  UNL     1      21.625  26.215  10.108  1.00  0.00    -0.378 N 
HETATM   35  C32 UNL     1      21.396  25.797   8.715  1.00  0.00     0.150 C 
BRANCH  34  36
HETATM   36  C33 UNL     1      22.512  25.435  10.894  1.00  0.00     0.191 C 
BRANCH  36  37
HETATM   37  C34 UNL     1      23.923  25.622  10.551  1.00  0.00     0.250 C 
HETATM   38  O4  UNL     1      24.802  25.169  11.254  1.00  0.00    -0.305 OA
ENDBRANCH  36  37
ENDBRANCH  34  36
ENDBRANCH  30  34
ENDBRANCH  26  27
ENDBRANCH  25  26
ENDBRANCH  24  25
ENDBRANCH  23  24
ENDBRANCH   9  23
BRANCH   5  39
HETATM   39  C19 UNL     1      22.314  34.595  14.240  1.00  0.00     0.006 C 
BRANCH  39  40
HETATM   40  C20 UNL     1      23.110  33.426  13.920  1.00  0.00     0.029 C 
BRANCH  40  41
HETATM   41  C21 UNL     1      22.479  32.248  13.262  1.00  0.00    -0.001 C 
HETATM   42  C22 UNL     1      22.273  31.070  14.146  1.00  0.00     0.005 C 
ENDBRANCH  40  41
ENDBRANCH  39  40
ENDBRANCH   5  39
BRANCH   4  43
HETATM   43  O2  UNL     1      22.185  36.905  15.894  1.00  0.00    -0.346 OA
BRANCH  43  44
HETATM   44  C12 UNL     1      23.317  37.053  16.669  1.00  0.00     0.208 C 
BRANCH  44  45
HETATM   45  C13 UNL     1      23.977  38.212  17.169  1.00  0.00     0.149 C 
BRANCH  45  46
HETATM   46  O3  UNL     1      24.123  37.940  18.618  1.00  0.00    -0.393 OA
ATOM     47  H3  UNL     1      24.815  38.530  18.893  1.00  0.00     0.210 HD
ENDBRANCH  45  46
BRANCH  45  48
HETATM   48  C14 UNL     1      23.718  39.633  17.107  1.00  0.00    -0.023 C 
HETATM   49  C15 UNL     1      23.615  40.345  15.818  1.00  0.00     0.017 C 
HETATM   50  C16 UNL     1      22.589  40.095  18.040  1.00  0.00     0.017 C 
HETATM   51  C17 UNL     1      24.985  40.270  17.840  1.00  0.00     0.017 C 
ENDBRANCH  45  48
ENDBRANCH  44  45
ENDBRANCH  43  44
ENDBRANCH   4  43
TORSDOF 19
ENDMDL
MODEL 5
REMARK VINA RESULT: -8.985123961      2.809      9.917
REMARK  19 active torsions:
REMARK  status: ('A' for Active; 'I' for Inactive)
REMARK    1  A    between atoms: C3_3  and  C4_4 
REMARK    2  A    between atoms: C6_11  and  C7_12 
REMARK    3  A    between atoms: C7_12  and  C8_13 
REMARK    4  A    between atoms: C11_16  and  O2_17 
REMARK    5  A    between atoms: O2_17  and  C12_18 
REMARK    6  A    between atoms: C12_18  and  C13_19 
REMARK    7  A    between atoms: C13_19  and  O3_20 
REMARK    8  A    between atoms: C13_19  and  C14_22 
REMARK    9  A    between atoms: C18_26  and  C19_27 
REMARK   10  A    between atoms: C19_27  and  C20_28 
REMARK   11  A    between atoms: C20_28  and  C21_29 
REMARK   12  A    between atoms: N4_34  and  C24_36 
REMARK   13  A    between atoms: C24_36  and  C25_37 
REMARK   14  A    between atoms: C25_37  and  C26_38 
REMARK   15  A    between atoms: C26_38  and  C27_39 
REMARK   16  A    between atoms: C27_39  and  C28_40 
REMARK   17  A    between atoms: C31_43  and  N5_44 
REMARK   18  A    between atoms: N5_44  and  C33_46 
REMARK   19  A    between atoms: C33_46  and  C34_47 
ROOT
HETATM    1  C8  UNL     1      19.048  34.939  16.866  1.00  0.00     0.019 A 
HETATM    2  C9  UNL     1      20.047  35.884  16.904  1.00  0.00    -0.012 A 
HETATM    3  C10 UNL     1      19.888  37.224  17.517  1.00  0.00     0.052 C 
HETATM    4  C11 UNL     1      21.250  35.638  16.218  1.00  0.00     0.102 A 
HETATM    5  C18 UNL     1      21.495  34.525  15.486  1.00  0.00     0.064 A 
HETATM    6  N3  UNL     1      20.476  33.580  15.456  1.00  0.00    -0.340 N 
ATOM      7  H3  UNL     1      20.610  32.719  14.927  1.00  0.00     0.167 HD
HETATM    8  C23 UNL     1      19.331  33.776  16.102  1.00  0.00     0.112 A 
HETATM    9  N4  UNL     1      18.403  32.890  16.018  1.00  0.00    -0.376 N 
ATOM     10  H4  UNL     1      17.531  33.084  16.509  1.00  0.00     0.161 HD
ENDROOT
BRANCH   1  11
HETATM   11  C7  UNL     1      17.955  34.956  17.550  1.00  0.00     0.048 C 
BRANCH  11  12
HETATM   12  C6  UNL     1      16.725  35.682  17.500  1.00  0.00     0.064 A 
HETATM   13  C4  UNL     1      15.474  35.212  17.151  1.00  0.00     0.063 A 
HETATM   14  N1  UNL     1      14.591  36.247  17.306  1.00  0.00    -0.307 N 
HETATM   15  C5  UNL     1      15.260  37.305  17.729  1.00  0.00     0.325 A 
ATOM     16  H1  UNL     1      13.588  36.207  17.125  1.00  0.00     0.170 HD
HETATM   17  O1  UNL     1      14.699  38.416  17.960  1.00  0.00    -0.247 OA
HETATM   18  N2  UNL     1      16.544  36.963  17.846  1.00  0.00    -0.306 N 
ATOM     19  H2  UNL     1      17.285  37.590  18.157  1.00  0.00     0.170 HD
BRANCH  13  20
HETATM   20  C3  UNL     1      15.080  33.901  16.697  1.00  0.00     0.027 C 
HETATM   21  C2  UNL     1      14.978  33.455  15.481  1.00  0.00    -0.029 C 
HETATM   22  C1  UNL     1      14.544  32.032  15.279  1.00  0.00     0.036 C 
ENDBRANCH  13  20
ENDBRANCH  11  12
ENDBRANCH   1  11
BRANCH   9  23
HETATM   23  C24 UNL     1      18.481  31.651  15.296  1.00  0.00     0.121 C 
BRANCH  23  24
HETATM   24  C25 UNL     1      18.051  31.991  13.862  1.00  0.00     0.020 C 
BRANCH  24  25
HETATM   25  C26 UNL     1      18.258  30.728  13.070  1.00  0.00     0.006 C 
BRANCH  25  26
HETATM   26  C27 UNL     1      19.105  30.989  11.876  1.00  0.00     0.038 C 
BRANCH  26  27
HETATM   27  C28 UNL     1      19.748  29.754  11.397  1.00  0.00    -0.058 A 
HETATM   28  C29 UNL     1      21.008  29.772  10.807  1.00  0.00     0.009 A 
HETATM   29  C30 UNL     1      21.598  28.620  10.384  1.00  0.00     0.030 A 
HETATM   30  C31 UNL     1      21.002  27.357  10.504  1.00  0.00     0.036 A 
HETATM   31  C35 UNL     1      19.746  27.337  11.090  1.00  0.00    -0.035 A 
HETATM   32  C36 UNL     1      19.049  26.034  11.257  1.00  0.00     0.050 C 
HETATM   33  C37 UNL     1      19.149  28.509  11.520  1.00  0.00     0.016 A 
BRANCH  30  34
HETATM   34  N5  UNL     1      21.682  26.221  10.048  1.00  0.00    -0.378 N 
HETATM   35  C32 UNL     1      21.472  25.791   8.656  1.00  0.00     0.150 C 
BRANCH  34  36
HETATM   36  C33 UNL     1      22.564  25.451  10.851  1.00  0.00     0.191 C 
BRANCH  36  37
HETATM   37  C34 UNL     1      23.977  25.774  10.651  1.00  0.00     0.250 C 
HETATM   38  O4  UNL     1      24.849  25.129  11.196  1.00  0.00    -0.305 OA
ENDBRANCH  36  37
ENDBRANCH  34  36
ENDBRANCH  30  34
ENDBRANCH  26  27
ENDBRANCH  25  26
ENDBRANCH  24  25
ENDBRANCH  23  24
ENDBRANCH   9  23
BRANCH   5  39
HETATM   39  C19 UNL     1      22.405  34.410  14.541  1.00  0.00     0.006 C 
BRANCH  39  40
HETATM   40  C20 UNL     1      23.111  33.210  14.131  1.00  0.00     0.029 C 
BRANCH  40  41
HETATM   41  C21 UNL     1      22.411  32.166  13.331  1.00  0.00    -0.001 C 
HETATM   42  C22 UNL     1      22.225  30.864  14.024  1.00  0.00     0.005 C 
ENDBRANCH  40  41
ENDBRANCH  39  40
ENDBRANCH   5  39
BRANCH   4  43
HETATM   43  O2  UNL     1      22.226  36.611  16.332  1.00  0.00    -0.346 OA
BRANCH  43  44
HETATM   44  C12 UNL     1      22.581  37.596  15.433  1.00  0.00     0.208 C 
BRANCH  44  45
HETATM   45  C13 UNL     1      21.798  38.486  14.644  1.00  0.00     0.149 C 
BRANCH  45  46
HETATM   46  O3  UNL     1      21.813  37.872  13.295  1.00  0.00    -0.393 OA
ATOM     47  H3  UNL     1      21.858  38.615  12.706  1.00  0.00     0.210 HD
ENDBRANCH  45  46
BRANCH  45  48
HETATM   48  C14 UNL     1      21.836  39.907  14.378  1.00  0.00    -0.023 C 
HETATM   49  C15 UNL     1      20.735  40.801  14.788  1.00  0.00     0.017 C 
HETATM   50  C16 UNL     1      23.183  40.562  14.719  1.00  0.00     0.017 C 
HETATM   51  C17 UNL     1      21.867  39.982  12.784  1.00  0.00     0.017 C 
ENDBRANCH  45  48
ENDBRANCH  44  45
ENDBRANCH  43  44
ENDBRANCH   4  43
TORSDOF 19
ENDMDL
