MODEL 1
REMARK VINA RESULT: -10.068007022      0.000      0.000
REMARK  15 active torsions:
REMARK  status: ('A' for Active; 'I' for Inactive)
REMARK    1  A    between atoms: C2_2  and  C3_3 
REMARK    2  A    between atoms: C3_3  and  C4_4 
REMARK    3  A    between atoms: C4_4  and  C5_5 
REMARK    4  A    between atoms: C5_5  and  N1_6 
REMARK    5  A    between atoms: C5_5  and  C23_32 
REMARK       I    between atoms: N1_6  and  C6_8 
REMARK    6  A    between atoms: C6_8  and  C7_10 
REMARK    7  A    between atoms: C7_10  and  C8_11 
REMARK    8  A    between atoms: C7_10  and  N2_18 
REMARK    9  A    between atoms: C8_11  and  C9_12 
REMARK       I    between atoms: N2_18  and  C15_20 
REMARK   10  A    between atoms: C15_20  and  C16_22 
REMARK   11  A    between atoms: C16_22  and  C17_23 
REMARK   12  A    between atoms: C16_22  and  N3_27 
REMARK   13  A    between atoms: C17_23  and  C18_24 
REMARK       I    between atoms: N3_27  and  C21_29 
REMARK       I    between atoms: C23_32  and  N4_34 
REMARK   14  A    between atoms: N4_34  and  C24_36 
REMARK   15  A    between atoms: C24_36  and  C26_38 
REMARK       I    between atoms: C26_38  and  N5_40 
ROOT
HETATM    1  N1  UNL     1      20.348  34.444  16.163  1.00  0.00    -0.342 N 
ATOM      2  H1  UNL     1      19.830  34.738  15.335  1.00  0.00     0.163 HD
HETATM    3  C6  UNL     1      20.350  35.337  17.215  1.00  0.00     0.268 C 
HETATM    4  O1  UNL     1      20.945  34.979  18.304  1.00  0.00    -0.266 OA
ENDROOT
BRANCH   1   5
HETATM    5  C5  UNL     1      20.979  33.155  16.078  1.00  0.00     0.177 C 
BRANCH   5   6
HETATM    6  C4  UNL     1      22.404  33.185  15.622  1.00  0.00     0.035 C 
BRANCH   6   7
HETATM    7  C3  UNL     1      22.801  34.619  15.265  1.00  0.00     0.002 C 
BRANCH   7   8
HETATM    8  C2  UNL     1      23.083  34.605  13.766  1.00  0.00    -0.004 C 
HETATM    9  C1  UNL     1      23.816  33.332  13.366  1.00  0.00     0.005 C 
ENDBRANCH   7   8
ENDBRANCH   6   7
ENDBRANCH   5   6
BRANCH   5  10
HETATM   10  C23 UNL     1      20.179  32.224  15.260  1.00  0.00     0.241 C 
HETATM   11  O4  UNL     1      19.138  31.709  15.723  1.00  0.00    -0.271 OA
HETATM   12  N4  UNL     1      20.528  31.853  13.930  1.00  0.00    -0.346 N 
ATOM     13  H4  UNL     1      21.358  32.259  13.498  1.00  0.00     0.163 HD
BRANCH  12  14
HETATM   14  C24 UNL     1      19.719  30.901  13.173  1.00  0.00     0.172 C 
HETATM   15  C25 UNL     1      18.447  31.625  12.689  1.00  0.00     0.042 C 
BRANCH  14  16
HETATM   16  C26 UNL     1      20.424  30.480  11.971  1.00  0.00     0.242 C 
HETATM   17  O5  UNL     1      20.265  31.205  10.909  1.00  0.00    -0.271 OA
HETATM   18  N5  UNL     1      21.258  29.378  11.840  1.00  0.00    -0.350 N 
HETATM   19  C27 UNL     1      21.839  29.036  10.538  1.00  0.00     0.126 C 
HETATM   20  C35 UNL     1      21.620  28.566  12.995  1.00  0.00     0.126 C 
HETATM   21  C28 UNL     1      23.342  28.966  10.651  1.00  0.00     0.029 C 
HETATM   22  C29 UNL     1      23.734  27.990  11.739  1.00  0.00    -0.037 C 
HETATM   23  C30 UNL     1      23.416  26.581  11.355  1.00  0.00     0.010 C 
HETATM   24  C33 UNL     1      25.251  28.049  11.912  1.00  0.00     0.010 C 
HETATM   25  C34 UNL     1      23.137  28.404  13.045  1.00  0.00     0.029 C 
HETATM   26  C31 UNL     1      24.744  25.866  11.259  1.00  0.00     0.001 C 
HETATM   27  C32 UNL     1      25.691  27.005  10.889  1.00  0.00     0.001 C 
ENDBRANCH  14  16
ENDBRANCH  12  14
ENDBRANCH   5  10
ENDBRANCH   1   5
BRANCH   3  28
HETATM   28  C7  UNL     1      19.752  36.656  17.201  1.00  0.00     0.099 C 
BRANCH  28  29
HETATM   29  C8  UNL     1      20.457  37.871  16.835  1.00  0.00     0.013 C 
BRANCH  29  30
HETATM   30  C9  UNL     1      20.652  38.344  15.466  1.00  0.00     0.010 C 
HETATM   31  C10 UNL     1      20.301  39.835  15.440  1.00  0.00     0.008 C 
HETATM   32  C11 UNL     1      21.396  40.672  14.830  1.00  0.00     0.001 C 
HETATM   33  C12 UNL     1      21.816  40.185  13.471  1.00  0.00     0.000 C 
HETATM   34  C13 UNL     1      21.802  38.689  13.355  1.00  0.00     0.001 C 
HETATM   35  C14 UNL     1      21.919  38.060  14.759  1.00  0.00     0.008 C 
ENDBRANCH  29  30
ENDBRANCH  28  29
BRANCH  28  36
HETATM   36  N2  UNL     1      18.410  36.653  16.627  1.00  0.00    -0.321 N 
HETATM   37  C15 UNL     1      17.388  35.783  17.066  1.00  0.00     0.245 C 
HETATM   38  O2  UNL     1      17.610  34.957  17.972  1.00  0.00    -0.271 OA
ATOM     39  H2  UNL     1      18.202  37.309  15.875  1.00  0.00     0.169 HD
BRANCH  37  40
HETATM   40  C16 UNL     1      16.017  35.831  16.458  1.00  0.00     0.177 C 
BRANCH  40  41
HETATM   41  C17 UNL     1      15.190  36.668  17.388  1.00  0.00     0.038 C 
BRANCH  41  42
HETATM   42  C18 UNL     1      15.789  37.962  17.821  1.00  0.00    -0.020 C 
HETATM   43  C19 UNL     1      14.908  38.580  18.946  1.00  0.00     0.009 C 
HETATM   44  C20 UNL     1      15.880  39.030  16.783  1.00  0.00     0.009 C 
ENDBRANCH  41  42
ENDBRANCH  40  41
BRANCH  40  45
HETATM   45  N3  UNL     1      15.586  34.480  16.292  1.00  0.00    -0.348 N 
HETATM   46  C21 UNL     1      15.708  33.704  15.117  1.00  0.00     0.214 C 
HETATM   47  C22 UNL     1      15.224  32.314  15.066  1.00  0.00     0.117 C 
HETATM   48  O3  UNL     1      16.245  34.187  14.063  1.00  0.00    -0.274 OA
ATOM     49  H3  UNL     1      15.147  34.033  17.098  1.00  0.00     0.163 HD
ENDBRANCH  40  45
ENDBRANCH  37  40
ENDBRANCH  28  36
ENDBRANCH   3  28
TORSDOF 15
ENDMDL
MODEL 2
REMARK VINA RESULT: -9.968328513      1.911      5.208
REMARK  15 active torsions:
REMARK  status: ('A' for Active; 'I' for Inactive)
REMARK    1  A    between atoms: C2_2  and  C3_3 
REMARK    2  A    between atoms: C3_3  and  C4_4 
REMARK    3  A    between atoms: C4_4  and  C5_5 
REMARK    4  A    between atoms: C5_5  and  N1_6 
REMARK    5  A    between atoms: C5_5  and  C23_32 
REMARK       I    between atoms: N1_6  and  C6_8 
REMARK    6  A    between atoms: C6_8  and  C7_10 
REMARK    7  A    between atoms: C7_10  and  C8_11 
REMARK    8  A    between atoms: C7_10  and  N2_18 
REMARK    9  A    between atoms: C8_11  and  C9_12 
REMARK       I    between atoms: N2_18  and  C15_20 
REMARK   10  A    between atoms: C15_20  and  C16_22 
REMARK   11  A    between atoms: C16_22  and  C17_23 
REMARK   12  A    between atoms: C16_22  and  N3_27 
REMARK   13  A    between atoms: C17_23  and  C18_24 
REMARK       I    between atoms: N3_27  and  C21_29 
REMARK       I    between atoms: C23_32  and  N4_34 
REMARK   14  A    between atoms: N4_34  and  C24_36 
REMARK   15  A    between atoms: C24_36  and  C26_38 
REMARK       I    between atoms: C26_38  and  N5_40 
ROOT
HETATM    1  N1  UNL     1      18.927  33.594  14.916  1.00  0.00    -0.342 N 
ATOM      2  H1  UNL     1      19.643  33.760  14.209  1.00  0.00     0.163 HD
HETATM    3  C6  UNL     1      19.195  34.110  16.169  1.00  0.00     0.268 C 
HETATM    4  O1  UNL     1      18.288  33.975  17.079  1.00  0.00    -0.266 OA
ENDROOT
BRANCH   1   5
HETATM    5  C5  UNL     1      17.775  32.856  14.477  1.00  0.00     0.177 C 
BRANCH   5   6
HETATM    6  C4  UNL     1      16.620  32.873  15.429  1.00  0.00     0.035 C 
BRANCH   6   7
HETATM    7  C3  UNL     1      15.309  32.736  14.652  1.00  0.00     0.002 C 
BRANCH   7   8
HETATM    8  C2  UNL     1      14.203  33.047  15.654  1.00  0.00    -0.004 C 
HETATM    9  C1  UNL     1      14.556  34.272  16.485  1.00  0.00     0.005 C 
ENDBRANCH   7   8
ENDBRANCH   6   7
ENDBRANCH   5   6
BRANCH   5  10
HETATM   10  C23 UNL     1      18.137  31.475  14.106  1.00  0.00     0.241 C 
HETATM   11  O4  UNL     1      18.157  30.572  14.970  1.00  0.00    -0.271 OA
HETATM   12  N4  UNL     1      18.483  31.087  12.780  1.00  0.00    -0.346 N 
ATOM     13  H4  UNL     1      18.464  31.781  12.034  1.00  0.00     0.163 HD
BRANCH  12  14
HETATM   14  C24 UNL     1      18.866  29.711  12.470  1.00  0.00     0.172 C 
HETATM   15  C25 UNL     1      17.660  29.011  11.813  1.00  0.00     0.042 C 
BRANCH  14  16
HETATM   16  C26 UNL     1      19.931  29.693  11.479  1.00  0.00     0.242 C 
HETATM   17  O5  UNL     1      19.878  30.582  10.538  1.00  0.00    -0.271 OA
HETATM   18  N5  UNL     1      21.009  28.819  11.434  1.00  0.00    -0.350 N 
HETATM   19  C27 UNL     1      21.965  28.874  10.323  1.00  0.00     0.126 C 
HETATM   20  C35 UNL     1      21.250  27.865  12.508  1.00  0.00     0.126 C 
HETATM   21  C28 UNL     1      23.362  29.065  10.860  1.00  0.00     0.029 C 
HETATM   22  C29 UNL     1      23.687  27.972  11.855  1.00  0.00    -0.037 C 
HETATM   23  C30 UNL     1      23.822  26.642  11.188  1.00  0.00     0.010 C 
HETATM   24  C33 UNL     1      25.052  28.277  12.472  1.00  0.00     0.010 C 
HETATM   25  C34 UNL     1      22.698  27.982  12.976  1.00  0.00     0.029 C 
HETATM   26  C31 UNL     1      25.262  26.224  11.379  1.00  0.00     0.001 C 
HETATM   27  C32 UNL     1      25.972  27.573  11.478  1.00  0.00     0.001 C 
ENDBRANCH  14  16
ENDBRANCH  12  14
ENDBRANCH   5  10
ENDBRANCH   1   5
BRANCH   3  28
HETATM   28  C7  UNL     1      20.417  34.782  16.559  1.00  0.00     0.099 C 
BRANCH  28  29
HETATM   29  C8  UNL     1      21.694  34.117  16.743  1.00  0.00     0.013 C 
BRANCH  29  30
HETATM   30  C9  UNL     1      22.468  33.483  15.677  1.00  0.00     0.010 C 
HETATM   31  C10 UNL     1      22.175  31.981  15.727  1.00  0.00     0.008 C 
HETATM   32  C11 UNL     1      21.750  31.434  14.388  1.00  0.00     0.001 C 
HETATM   33  C12 UNL     1      22.718  31.767  13.287  1.00  0.00     0.000 C 
HETATM   34  C13 UNL     1      23.323  33.132  13.431  1.00  0.00     0.001 C 
HETATM   35  C14 UNL     1      22.402  34.016  14.299  1.00  0.00     0.008 C 
ENDBRANCH  29  30
ENDBRANCH  28  29
BRANCH  28  36
HETATM   36  N2  UNL     1      20.599  36.053  15.865  1.00  0.00    -0.321 N 
HETATM   37  C15 UNL     1      20.367  37.304  16.477  1.00  0.00     0.245 C 
HETATM   38  O2  UNL     1      19.973  37.363  17.658  1.00  0.00    -0.271 OA
ATOM     39  H2  UNL     1      20.909  36.037  14.894  1.00  0.00     0.169 HD
BRANCH  37  40
HETATM   40  C16 UNL     1      20.588  38.585  15.729  1.00  0.00     0.177 C 
BRANCH  40  41
HETATM   41  C17 UNL     1      22.052  38.619  15.405  1.00  0.00     0.038 C 
BRANCH  41  42
HETATM   42  C18 UNL     1      22.973  38.897  16.543  1.00  0.00    -0.020 C 
HETATM   43  C19 UNL     1      23.938  40.053  16.147  1.00  0.00     0.009 C 
HETATM   44  C20 UNL     1      23.873  37.779  16.955  1.00  0.00     0.009 C 
ENDBRANCH  41  42
ENDBRANCH  40  41
BRANCH  40  45
HETATM   45  N3  UNL     1      20.114  39.643  16.563  1.00  0.00    -0.348 N 
HETATM   46  C21 UNL     1      18.877  40.316  16.435  1.00  0.00     0.214 C 
HETATM   47  C22 UNL     1      18.495  41.397  17.360  1.00  0.00     0.117 C 
HETATM   48  O3  UNL     1      18.051  40.003  15.511  1.00  0.00    -0.274 OA
ATOM     49  H3  UNL     1      20.726  39.942  17.322  1.00  0.00     0.163 HD
ENDBRANCH  40  45
ENDBRANCH  37  40
ENDBRANCH  28  36
ENDBRANCH   3  28
TORSDOF 15
ENDMDL
MODEL 3
REMARK VINA RESULT: -9.922183225      1.695      4.572
REMARK  15 active torsions:
REMARK  status: ('A' for Active; 'I' for Inactive)
REMARK    1  A    between atoms: C2_2  and  C3_3 
REMARK    2  A    between atoms: C3_3  and  C4_4 
REMARK    3  A    between atoms: C4_4  and  C5_5 
REMARK    4  A    between atoms: C5_5  and  N1_6 
REMARK    5  A    between atoms: C5_5  and  C23_32 
REMARK       I    between atoms: N1_6  and  C6_8 
REMARK    6  A    between atoms: C6_8  and  C7_10 
REMARK    7  A    between atoms: C7_10  and  C8_11 
REMARK    8  A    between atoms: C7_10  and  N2_18 
REMARK    9  A    between atoms: C8_11  and  C9_12 
REMARK       I    between atoms: N2_18  and  C15_20 
REMARK   10  A    between atoms: C15_20  and  C16_22 
REMARK   11  A    between atoms: C16_22  and  C17_23 
REMARK   12  A    between atoms: C16_22  and  N3_27 
REMARK   13  A    between atoms: C17_23  and  C18_24 
REMARK       I    between atoms: N3_27  and  C21_29 
REMARK       I    between atoms: C23_32  and  N4_34 
REMARK   14  A    between atoms: N4_34  and  C24_36 
REMARK   15  A    between atoms: C24_36  and  C26_38 
REMARK       I    between atoms: C26_38  and  N5_40 
ROOT
HETATM    1  N1  UNL     1      20.005  34.573  15.776  1.00  0.00    -0.342 N 
ATOM      2  H1  UNL     1      19.431  34.670  14.938  1.00  0.00     0.163 HD
HETATM    3  C6  UNL     1      19.558  35.258  16.888  1.00  0.00     0.268 C 
HETATM    4  O1  UNL     1      20.223  35.117  17.986  1.00  0.00    -0.266 OA
ENDROOT
BRANCH   1   5
HETATM    5  C5  UNL     1      21.171  33.743  15.641  1.00  0.00     0.177 C 
BRANCH   5   6
HETATM    6  C4  UNL     1      22.261  34.327  14.798  1.00  0.00     0.035 C 
BRANCH   6   7
HETATM    7  C3  UNL     1      22.635  35.713  15.328  1.00  0.00     0.002 C 
BRANCH   7   8
HETATM    8  C2  UNL     1      22.143  36.701  14.275  1.00  0.00    -0.004 C 
HETATM    9  C1  UNL     1      21.472  37.900  14.931  1.00  0.00     0.005 C 
ENDBRANCH   7   8
ENDBRANCH   6   7
ENDBRANCH   5   6
BRANCH   5  10
HETATM   10  C23 UNL     1      20.810  32.390  15.179  1.00  0.00     0.241 C 
HETATM   11  O4  UNL     1      21.197  31.381  15.809  1.00  0.00    -0.271 OA
HETATM   12  N4  UNL     1      20.023  32.143  14.017  1.00  0.00    -0.346 N 
ATOM     13  H4  UNL     1      19.666  32.932  13.478  1.00  0.00     0.163 HD
BRANCH  12  14
HETATM   14  C24 UNL     1      19.720  30.782  13.583  1.00  0.00     0.172 C 
HETATM   15  C25 UNL     1      18.219  30.708  13.239  1.00  0.00     0.042 C 
BRANCH  14  16
HETATM   16  C26 UNL     1      20.431  30.472  12.353  1.00  0.00     0.242 C 
HETATM   17  O5  UNL     1      20.271  31.285  11.357  1.00  0.00    -0.271 OA
HETATM   18  N5  UNL     1      21.272  29.390  12.130  1.00  0.00    -0.350 N 
HETATM   19  C27 UNL     1      21.861  29.166  10.805  1.00  0.00     0.126 C 
HETATM   20  C35 UNL     1      21.636  28.483  13.210  1.00  0.00     0.126 C 
HETATM   21  C28 UNL     1      23.363  29.096  10.917  1.00  0.00     0.029 C 
HETATM   22  C29 UNL     1      23.757  28.031  11.917  1.00  0.00    -0.037 C 
HETATM   23  C30 UNL     1      23.450  26.660  11.410  1.00  0.00     0.010 C 
HETATM   24  C33 UNL     1      25.274  28.084  12.100  1.00  0.00     0.010 C 
HETATM   25  C34 UNL     1      23.154  28.326  13.252  1.00  0.00     0.029 C 
HETATM   26  C31 UNL     1      24.783  25.963  11.258  1.00  0.00     0.001 C 
HETATM   27  C32 UNL     1      25.724  27.136  10.992  1.00  0.00     0.001 C 
ENDBRANCH  14  16
ENDBRANCH  12  14
ENDBRANCH   5  10
ENDBRANCH   1   5
BRANCH   3  28
HETATM   28  C7  UNL     1      18.410  36.139  16.929  1.00  0.00     0.099 C 
BRANCH  28  29
HETATM   29  C8  UNL     1      17.046  35.697  17.150  1.00  0.00     0.013 C 
BRANCH  29  30
HETATM   30  C9  UNL     1      16.495  34.423  16.689  1.00  0.00     0.010 C 
HETATM   31  C10 UNL     1      15.094  34.283  17.292  1.00  0.00     0.008 C 
HETATM   32  C11 UNL     1      14.048  33.978  16.251  1.00  0.00     0.001 C 
HETATM   33  C12 UNL     1      14.400  32.788  15.401  1.00  0.00     0.000 C 
HETATM   34  C13 UNL     1      15.867  32.694  15.104  1.00  0.00     0.001 C 
HETATM   35  C14 UNL     1      16.515  34.087  15.250  1.00  0.00     0.008 C 
ENDBRANCH  29  30
ENDBRANCH  28  29
BRANCH  28  36
HETATM   36  N2  UNL     1      18.675  37.366  17.676  1.00  0.00    -0.321 N 
HETATM   37  C15 UNL     1      18.525  38.654  17.118  1.00  0.00     0.245 C 
HETATM   38  O2  UNL     1      18.166  38.788  15.932  1.00  0.00    -0.271 OA
ATOM     39  H2  UNL     1      18.983  37.288  18.645  1.00  0.00     0.169 HD
BRANCH  37  40
HETATM   40  C16 UNL     1      18.790  39.886  17.932  1.00  0.00     0.177 C 
BRANCH  40  41
HETATM   41  C17 UNL     1      17.478  40.607  18.014  1.00  0.00     0.038 C 
BRANCH  41  42
HETATM   42  C18 UNL     1      16.338  39.840  18.591  1.00  0.00    -0.020 C 
HETATM   43  C19 UNL     1      15.099  39.991  17.660  1.00  0.00     0.009 C 
HETATM   44  C20 UNL     1      15.856  40.279  19.934  1.00  0.00     0.009 C 
ENDBRANCH  41  42
ENDBRANCH  40  41
BRANCH  40  45
HETATM   45  N3  UNL     1      19.846  40.595  17.285  1.00  0.00    -0.348 N 
HETATM   46  C21 UNL     1      21.228  40.453  17.545  1.00  0.00     0.214 C 
HETATM   47  C22 UNL     1      22.230  41.243  16.809  1.00  0.00     0.117 C 
HETATM   48  O3  UNL     1      21.650  39.631  18.429  1.00  0.00    -0.274 OA
ATOM     49  H3  UNL     1      19.578  41.269  16.566  1.00  0.00     0.163 HD
ENDBRANCH  40  45
ENDBRANCH  37  40
ENDBRANCH  28  36
ENDBRANCH   3  28
TORSDOF 15
ENDMDL
MODEL 4
REMARK VINA RESULT: -9.797872891      1.801      4.868
REMARK  15 active torsions:
REMARK  status: ('A' for Active; 'I' for Inactive)
REMARK    1  A    between atoms: C2_2  and  C3_3 
REMARK    2  A    between atoms: C3_3  and  C4_4 
REMARK    3  A    between atoms: C4_4  and  C5_5 
REMARK    4  A    between atoms: C5_5  and  N1_6 
REMARK    5  A    between atoms: C5_5  and  C23_32 
REMARK       I    between atoms: N1_6  and  C6_8 
REMARK    6  A    between atoms: C6_8  and  C7_10 
REMARK    7  A    between atoms: C7_10  and  C8_11 
REMARK    8  A    between atoms: C7_10  and  N2_18 
REMARK    9  A    between atoms: C8_11  and  C9_12 
REMARK       I    between atoms: N2_18  and  C15_20 
REMARK   10  A    between atoms: C15_20  and  C16_22 
REMARK   11  A    between atoms: C16_22  and  C17_23 
REMARK   12  A    between atoms: C16_22  and  N3_27 
REMARK   13  A    between atoms: C17_23  and  C18_24 
REMARK       I    between atoms: N3_27  and  C21_29 
REMARK       I    between atoms: C23_32  and  N4_34 
REMARK   14  A    between atoms: N4_34  and  C24_36 
REMARK   15  A    between atoms: C24_36  and  C26_38 
REMARK       I    between atoms: C26_38  and  N5_40 
ROOT
HETATM    1  N1  UNL     1      19.117  33.538  15.006  1.00  0.00    -0.342 N 
ATOM      2  H1  UNL     1      19.915  33.614  14.374  1.00  0.00     0.163 HD
HETATM    3  C6  UNL     1      19.284  34.113  16.250  1.00  0.00     0.268 C 
HETATM    4  O1  UNL     1      18.278  34.092  17.059  1.00  0.00    -0.266 OA
ENDROOT
BRANCH   1   5
HETATM    5  C5  UNL     1      17.971  32.847  14.482  1.00  0.00     0.177 C 
BRANCH   5   6
HETATM    6  C4  UNL     1      16.773  32.854  15.379  1.00  0.00     0.035 C 
BRANCH   6   7
HETATM    7  C3  UNL     1      15.511  33.111  14.552  1.00  0.00     0.002 C 
BRANCH   7   8
HETATM    8  C2  UNL     1      14.349  33.007  15.534  1.00  0.00    -0.004 C 
HETATM    9  C1  UNL     1      14.271  34.248  16.413  1.00  0.00     0.005 C 
ENDBRANCH   7   8
ENDBRANCH   6   7
ENDBRANCH   5   6
BRANCH   5  10
HETATM   10  C23 UNL     1      18.319  31.474  14.070  1.00  0.00     0.241 C 
HETATM   11  O4  UNL     1      18.454  30.572  14.925  1.00  0.00    -0.271 OA
HETATM   12  N4  UNL     1      18.523  31.093  12.713  1.00  0.00    -0.346 N 
ATOM     13  H4  UNL     1      18.406  31.787  11.975  1.00  0.00     0.163 HD
BRANCH  12  14
HETATM   14  C24 UNL     1      18.898  29.726  12.359  1.00  0.00     0.172 C 
HETATM   15  C25 UNL     1      17.706  29.071  11.633  1.00  0.00     0.042 C 
BRANCH  14  16
HETATM   16  C26 UNL     1      19.996  29.733  11.405  1.00  0.00     0.242 C 
HETATM   17  O5  UNL     1      19.981  30.653  10.493  1.00  0.00    -0.271 OA
HETATM   18  N5  UNL     1      21.069  28.853  11.367  1.00  0.00    -0.350 N 
HETATM   19  C27 UNL     1      22.063  28.938  10.293  1.00  0.00     0.126 C 
HETATM   20  C35 UNL     1      21.268  27.862  12.417  1.00  0.00     0.126 C 
HETATM   21  C28 UNL     1      23.443  29.100  10.882  1.00  0.00     0.029 C 
HETATM   22  C29 UNL     1      23.726  27.972  11.851  1.00  0.00    -0.037 C 
HETATM   23  C30 UNL     1      23.876  26.665  11.145  1.00  0.00     0.010 C 
HETATM   24  C33 UNL     1      25.071  28.246  12.524  1.00  0.00     0.010 C 
HETATM   25  C34 UNL     1      22.700  27.953  12.937  1.00  0.00     0.029 C 
HETATM   26  C31 UNL     1      25.306  26.230  11.371  1.00  0.00     0.001 C 
HETATM   27  C32 UNL     1      26.020  27.569  11.539  1.00  0.00     0.001 C 
ENDBRANCH  14  16
ENDBRANCH  12  14
ENDBRANCH   5  10
ENDBRANCH   1   5
BRANCH   3  28
HETATM   28  C7  UNL     1      20.500  34.730  16.736  1.00  0.00     0.099 C 
BRANCH  28  29
HETATM   29  C8  UNL     1      21.779  34.052  16.836  1.00  0.00     0.013 C 
BRANCH  29  30
HETATM   30  C9  UNL     1      22.519  33.492  15.706  1.00  0.00     0.010 C 
HETATM   31  C10 UNL     1      22.311  31.974  15.727  1.00  0.00     0.008 C 
HETATM   32  C11 UNL     1      21.834  31.442  14.400  1.00  0.00     0.001 C 
HETATM   33  C12 UNL     1      22.714  31.859  13.253  1.00  0.00     0.000 C 
HETATM   34  C13 UNL     1      23.252  33.250  13.403  1.00  0.00     0.001 C 
HETATM   35  C14 UNL     1      22.340  34.057  14.352  1.00  0.00     0.008 C 
ENDBRANCH  29  30
ENDBRANCH  28  29
BRANCH  28  36
HETATM   36  N2  UNL     1      20.681  36.085  16.224  1.00  0.00    -0.321 N 
HETATM   37  C15 UNL     1      20.300  37.237  16.945  1.00  0.00     0.245 C 
HETATM   38  O2  UNL     1      19.768  37.131  18.067  1.00  0.00    -0.271 OA
ATOM     39  H2  UNL     1      21.101  36.204  15.303  1.00  0.00     0.169 HD
BRANCH  37  40
HETATM   40  C16 UNL     1      20.524  38.611  16.385  1.00  0.00     0.177 C 
BRANCH  40  41
HETATM   41  C17 UNL     1      19.328  39.417  16.797  1.00  0.00     0.038 C 
BRANCH  41  42
HETATM   42  C18 UNL     1      18.811  40.390  15.794  1.00  0.00    -0.020 C 
HETATM   43  C19 UNL     1      19.565  41.742  15.958  1.00  0.00     0.009 C 
HETATM   44  C20 UNL     1      17.366  40.749  15.903  1.00  0.00     0.009 C 
ENDBRANCH  41  42
ENDBRANCH  40  41
BRANCH  40  45
HETATM   45  N3  UNL     1      20.715  38.463  14.977  1.00  0.00    -0.348 N 
HETATM   46  C21 UNL     1      21.684  39.128  14.193  1.00  0.00     0.214 C 
HETATM   47  C22 UNL     1      21.787  38.892  12.742  1.00  0.00     0.117 C 
HETATM   48  O3  UNL     1      22.503  39.955  14.721  1.00  0.00    -0.274 OA
ATOM     49  H3  UNL     1      20.093  37.815  14.492  1.00  0.00     0.163 HD
ENDBRANCH  40  45
ENDBRANCH  37  40
ENDBRANCH  28  36
ENDBRANCH   3  28
TORSDOF 15
ENDMDL
MODEL 5
REMARK VINA RESULT: -9.735549907      1.817      4.582
REMARK  15 active torsions:
REMARK  status: ('A' for Active; 'I' for Inactive)
REMARK    1  A    between atoms: C2_2  and  C3_3 
REMARK    2  A    between atoms: C3_3  and  C4_4 
REMARK    3  A    between atoms: C4_4  and  C5_5 
REMARK    4  A    between atoms: C5_5  and  N1_6 
REMARK    5  A    between atoms: C5_5  and  C23_32 
REMARK       I    between atoms: N1_6  and  C6_8 
REMARK    6  A    between atoms: C6_8  and  C7_10 
REMARK    7  A    between atoms: C7_10  and  C8_11 
REMARK    8  A    between atoms: C7_10  and  N2_18 
REMARK    9  A    between atoms: C8_11  and  C9_12 
REMARK       I    between atoms: N2_18  and  C15_20 
REMARK   10  A    between atoms: C15_20  and  C16_22 
REMARK   11  A    between atoms: C16_22  and  C17_23 
REMARK   12  A    between atoms: C16_22  and  N3_27 
REMARK   13  A    between atoms: C17_23  and  C18_24 
REMARK       I    between atoms: N3_27  and  C21_29 
REMARK       I    between atoms: C23_32  and  N4_34 
REMARK   14  A    between atoms: N4_34  and  C24_36 
REMARK   15  A    between atoms: C24_36  and  C26_38 
REMARK       I    between atoms: C26_38  and  N5_40 
ROOT
HETATM    1  N1  UNL     1      19.979  34.745  15.795  1.00  0.00    -0.342 N 
ATOM      2  H1  UNL     1      19.371  34.739  14.976  1.00  0.00     0.163 HD
HETATM    3  C6  UNL     1      19.493  35.423  16.895  1.00  0.00     0.268 C 
HETATM    4  O1  UNL     1      20.204  35.405  17.972  1.00  0.00    -0.266 OA
ENDROOT
BRANCH   1   5
HETATM    5  C5  UNL     1      21.227  34.046  15.650  1.00  0.00     0.177 C 
BRANCH   5   6
HETATM    6  C4  UNL     1      22.198  34.687  14.709  1.00  0.00     0.035 C 
BRANCH   6   7
HETATM    7  C3  UNL     1      22.665  36.026  15.284  1.00  0.00     0.002 C 
BRANCH   7   8
HETATM    8  C2  UNL     1      21.992  37.096  14.431  1.00  0.00    -0.004 C 
HETATM    9  C1  UNL     1      21.387  38.184  15.307  1.00  0.00     0.005 C 
ENDBRANCH   7   8
ENDBRANCH   6   7
ENDBRANCH   5   6
BRANCH   5  10
HETATM   10  C23 UNL     1      21.006  32.629  15.302  1.00  0.00     0.241 C 
HETATM   11  O4  UNL     1      21.568  31.722  15.954  1.00  0.00    -0.271 OA
HETATM   12  N4  UNL     1      20.169  32.209  14.229  1.00  0.00    -0.346 N 
ATOM     13  H4  UNL     1      19.673  32.908  13.677  1.00  0.00     0.163 HD
BRANCH  12  14
HETATM   14  C24 UNL     1      20.009  30.793  13.904  1.00  0.00     0.172 C 
HETATM   15  C25 UNL     1      18.503  30.502  13.745  1.00  0.00     0.042 C 
BRANCH  14  16
HETATM   16  C26 UNL     1      20.615  30.498  12.615  1.00  0.00     0.242 C 
HETATM   17  O5  UNL     1      20.401  31.340  11.654  1.00  0.00    -0.271 OA
HETATM   18  N5  UNL     1      21.407  29.401  12.302  1.00  0.00    -0.350 N 
HETATM   19  C27 UNL     1      21.885  29.197  10.930  1.00  0.00     0.126 C 
HETATM   20  C35 UNL     1      21.829  28.458  13.329  1.00  0.00     0.126 C 
HETATM   21  C28 UNL     1      23.390  29.087  10.924  1.00  0.00     0.029 C 
HETATM   22  C29 UNL     1      23.831  27.987  11.865  1.00  0.00    -0.037 C 
HETATM   23  C30 UNL     1      23.449  26.637  11.352  1.00  0.00     0.010 C 
HETATM   24  C33 UNL     1      25.359  27.998  11.931  1.00  0.00     0.010 C 
HETATM   25  C34 UNL     1      23.340  28.262  13.249  1.00  0.00     0.029 C 
HETATM   26  C31 UNL     1      24.747  25.912  11.080  1.00  0.00     0.001 C 
HETATM   27  C32 UNL     1      25.696  27.068  10.769  1.00  0.00     0.001 C 
ENDBRANCH  14  16
ENDBRANCH  12  14
ENDBRANCH   5  10
ENDBRANCH   1   5
BRANCH   3  28
HETATM   28  C7  UNL     1      18.254  36.170  16.943  1.00  0.00     0.099 C 
BRANCH  28  29
HETATM   29  C8  UNL     1      16.964  35.596  17.280  1.00  0.00     0.013 C 
BRANCH  29  30
HETATM   30  C9  UNL     1      16.441  34.341  16.743  1.00  0.00     0.010 C 
HETATM   31  C10 UNL     1      15.010  34.179  17.262  1.00  0.00     0.008 C 
HETATM   32  C11 UNL     1      14.023  33.913  16.154  1.00  0.00     0.001 C 
HETATM   33  C12 UNL     1      14.423  32.756  15.281  1.00  0.00     0.000 C 
HETATM   34  C13 UNL     1      15.905  32.671  15.063  1.00  0.00     0.001 C 
HETATM   35  C14 UNL     1      16.542  34.057  15.296  1.00  0.00     0.008 C 
ENDBRANCH  29  30
ENDBRANCH  28  29
BRANCH  28  36
HETATM   36  N2  UNL     1      18.413  37.474  17.580  1.00  0.00    -0.321 N 
HETATM   37  C15 UNL     1      17.786  38.645  17.104  1.00  0.00     0.245 C 
HETATM   38  O2  UNL     1      17.068  38.605  16.086  1.00  0.00    -0.271 OA
ATOM     39  H2  UNL     1      19.006  37.541  18.408  1.00  0.00     0.169 HD
BRANCH  37  40
HETATM   40  C16 UNL     1      17.965  39.959  17.805  1.00  0.00     0.177 C 
BRANCH  40  41
HETATM   41  C17 UNL     1      19.444  40.203  17.840  1.00  0.00     0.038 C 
BRANCH  41  42
HETATM   42  C18 UNL     1      19.909  41.519  17.317  1.00  0.00    -0.020 C 
HETATM   43  C19 UNL     1      19.094  41.875  16.039  1.00  0.00     0.009 C 
HETATM   44  C20 UNL     1      21.336  41.594  16.887  1.00  0.00     0.009 C 
ENDBRANCH  41  42
ENDBRANCH  40  41
BRANCH  40  45
HETATM   45  N3  UNL     1      17.327  39.844  19.078  1.00  0.00    -0.348 N 
HETATM   46  C21 UNL     1      15.960  40.076  19.349  1.00  0.00     0.214 C 
HETATM   47  C22 UNL     1      15.413  39.924  20.708  1.00  0.00     0.117 C 
HETATM   48  O3  UNL     1      15.154  40.424  18.419  1.00  0.00    -0.274 OA
ATOM     49  H3  UNL     1      17.914  39.569  19.866  1.00  0.00     0.163 HD
ENDBRANCH  40  45
ENDBRANCH  37  40
ENDBRANCH  28  36
ENDBRANCH   3  28
TORSDOF 15
ENDMDL
