MODEL 1
REMARK VINA RESULT: -9.279951358      0.000      0.000
REMARK  17 active torsions:
REMARK  status: ('A' for Active; 'I' for Inactive)
REMARK    1  A    between atoms: C2_2  and  C3_3 
REMARK    2  A    between atoms: C3_3  and  C4_4 
REMARK    3  A    between atoms: C4_4  and  C5_5 
REMARK    4  A    between atoms: C5_5  and  N1_6 
REMARK    5  A    between atoms: N1_6  and  C6_7 
REMARK    6  A    between atoms: N1_6  and  C18_26 
REMARK    7  A    between atoms: C6_7  and  O1_8 
REMARK    8  A    between atoms: C6_7  and  C7_10 
REMARK    9  A    between atoms: C7_10  and  C8_11 
REMARK   10  A    between atoms: C7_10  and  N3_15 
REMARK   11  A    between atoms: C8_11  and  C9_12 
REMARK       I    between atoms: N3_15  and  C10_17 
REMARK   12  A    between atoms: C10_17  and  C11_19 
REMARK   13  A    between atoms: C11_19  and  C12_20 
REMARK   14  A    between atoms: C18_26  and  C19_27 
REMARK   15  A    between atoms: C18_26  and  C25_35 
REMARK   16  A    between atoms: C19_27  and  C20_28 
REMARK       I    between atoms: C25_35  and  N5_37 
REMARK   17  A    between atoms: N5_37  and  C26_39 
ROOT
HETATM    1  N1  UNL     1      19.886  29.895  14.278  1.00  0.00    -0.350 N 
ENDROOT
BRANCH   1   2
HETATM    2  C5  UNL     1      19.186  30.820  15.153  1.00  0.00     0.125 C 
BRANCH   2   3
HETATM    3  C4  UNL     1      17.805  31.175  14.736  1.00  0.00     0.020 C 
BRANCH   3   4
HETATM    4  C3  UNL     1      17.855  32.547  14.063  1.00  0.00     0.001 C 
BRANCH   4   5
HETATM    5  C2  UNL     1      16.574  33.306  14.166  1.00  0.00    -0.004 C 
HETATM    6  C1  UNL     1      15.571  32.383  14.870  1.00  0.00     0.005 C 
ENDBRANCH   4   5
ENDBRANCH   3   4
ENDBRANCH   2   3
ENDBRANCH   1   2
BRANCH   1   7
HETATM    7  C6  UNL     1      19.236  28.818  13.697  1.00  0.00     0.138 C 
BRANCH   7   8
HETATM    8  O1  UNL     1      19.259  27.683  14.364  1.00  0.00    -0.348 OA
ATOM      9  H1  UNL     1      19.844  27.008  14.038  1.00  0.00     0.219 HD
ENDBRANCH   7   8
BRANCH   7  10
HETATM   10  C7  UNL     1      18.490  28.684  12.447  1.00  0.00     0.167 C 
BRANCH  10  11
HETATM   11  C8  UNL     1      18.368  29.850  11.542  1.00  0.00     0.133 C 
BRANCH  11  12
HETATM   12  C9  UNL     1      19.561  30.289  10.836  1.00  0.00     0.233 C 
HETATM   13  N2  UNL     1      19.989  31.630  10.836  1.00  0.00    -0.062 NA
HETATM   14  O2  UNL     1      20.252  29.463  10.193  1.00  0.00    -0.277 OA
ENDBRANCH  11  12
ENDBRANCH  10  11
BRANCH  10  15
HETATM   15  N3  UNL     1      19.023  27.520  11.726  1.00  0.00    -0.349 N 
HETATM   16  C10 UNL     1      18.218  26.429  11.295  1.00  0.00     0.218 C 
HETATM   17  O3  UNL     1      16.993  26.508  11.574  1.00  0.00    -0.274 OA
ATOM     18  H3  UNL     1      20.022  27.493  11.524  1.00  0.00     0.163 HD
BRANCH  16  19
HETATM   19  C11 UNL     1      18.876  25.343  10.583  1.00  0.00     0.107 C 
BRANCH  19  20
HETATM   20  C12 UNL     1      18.882  25.411   9.117  1.00  0.00    -0.006 C 
HETATM   21  C13 UNL     1      18.639  26.831   8.593  1.00  0.00     0.005 C 
HETATM   22  C14 UNL     1      18.189  26.673   7.159  1.00  0.00     0.000 C 
HETATM   23  C15 UNL     1      18.386  25.302   6.604  1.00  0.00     0.000 C 
HETATM   24  C16 UNL     1      19.695  24.656   6.959  1.00  0.00     0.000 C 
HETATM   25  C17 UNL     1      20.114  24.928   8.409  1.00  0.00     0.005 C 
ENDBRANCH  19  20
ENDBRANCH  16  19
ENDBRANCH  10  15
ENDBRANCH   7  10
ENDBRANCH   1   7
BRANCH   1  26
HETATM   26  C18 UNL     1      21.348  30.202  14.108  1.00  0.00     0.178 C 
BRANCH  26  27
HETATM   27  C19 UNL     1      21.554  31.490  13.476  1.00  0.00     0.040 C 
BRANCH  27  28
HETATM   28  C20 UNL     1      21.950  32.711  14.179  1.00  0.00    -0.009 C 
HETATM   29  C21 UNL     1      23.039  33.568  13.663  1.00  0.00     0.024 C 
HETATM   30  C22 UNL     1      22.682  35.002  14.179  1.00  0.00     0.114 C 
HETATM   31  N4  UNL     1      22.721  34.981  15.625  1.00  0.00    -0.421 N 
HETATM   32  C23 UNL     1      21.945  33.966  16.248  1.00  0.00     0.114 C 
ATOM     33  H4  UNL     1      23.269  35.653  16.162  1.00  0.00     0.153 HD
HETATM   34  C24 UNL     1      22.177  32.572  15.680  1.00  0.00     0.024 C 
ENDBRANCH  27  28
ENDBRANCH  26  27
BRANCH  26  35
HETATM   35  C25 UNL     1      21.959  28.970  13.630  1.00  0.00     0.241 C 
HETATM   36  O4  UNL     1      21.999  27.979  14.392  1.00  0.00    -0.271 OA
HETATM   37  N5  UNL     1      22.526  28.811  12.357  1.00  0.00    -0.354 N 
ATOM     38  H5  UNL     1      22.480  29.630  11.750  1.00  0.00     0.162 HD
BRANCH  37  39
HETATM   39  C26 UNL     1      23.158  27.661  11.794  1.00  0.00     0.092 C 
HETATM   40  C27 UNL     1      24.502  28.103  11.261  1.00  0.00     0.009 C 
HETATM   41  C28 UNL     1      25.588  27.093  11.417  1.00  0.00     0.007 C 
HETATM   42  C33 UNL     1      24.468  28.595   9.854  1.00  0.00     0.011 C 
HETATM   43  C29 UNL     1      25.241  25.686  11.104  1.00  0.00     0.005 C 
HETATM   44  C30 UNL     1      24.253  25.470  10.013  1.00  0.00    -0.014 C 
HETATM   45  C31 UNL     1      24.424  26.346   8.824  1.00  0.00     0.009 C 
HETATM   46  C36 UNL     1      22.869  25.505  10.609  1.00  0.00     0.011 C 
HETATM   47  C32 UNL     1      23.728  27.675   8.941  1.00  0.00    -0.013 C 
HETATM   48  C34 UNL     1      22.314  27.561   9.432  1.00  0.00     0.011 C 
HETATM   49  C35 UNL     1      22.343  26.914  10.796  1.00  0.00     0.009 C 
ENDBRANCH  37  39
ENDBRANCH  26  35
ENDBRANCH   1  26
TORSDOF 17
ENDMDL
MODEL 2
REMARK VINA RESULT: -9.217757650      1.357      2.320
REMARK  17 active torsions:
REMARK  status: ('A' for Active; 'I' for Inactive)
REMARK    1  A    between atoms: C2_2  and  C3_3 
REMARK    2  A    between atoms: C3_3  and  C4_4 
REMARK    3  A    between atoms: C4_4  and  C5_5 
REMARK    4  A    between atoms: C5_5  and  N1_6 
REMARK    5  A    between atoms: N1_6  and  C6_7 
REMARK    6  A    between atoms: N1_6  and  C18_26 
REMARK    7  A    between atoms: C6_7  and  O1_8 
REMARK    8  A    between atoms: C6_7  and  C7_10 
REMARK    9  A    between atoms: C7_10  and  C8_11 
REMARK   10  A    between atoms: C7_10  and  N3_15 
REMARK   11  A    between atoms: C8_11  and  C9_12 
REMARK       I    between atoms: N3_15  and  C10_17 
REMARK   12  A    between atoms: C10_17  and  C11_19 
REMARK   13  A    between atoms: C11_19  and  C12_20 
REMARK   14  A    between atoms: C18_26  and  C19_27 
REMARK   15  A    between atoms: C18_26  and  C25_35 
REMARK   16  A    between atoms: C19_27  and  C20_28 
REMARK       I    between atoms: C25_35  and  N5_37 
REMARK   17  A    between atoms: N5_37  and  C26_39 
ROOT
HETATM    1  N1  UNL     1      19.413  29.438  12.741  1.00  0.00    -0.350 N 
ENDROOT
BRANCH   1   2
HETATM    2  C5  UNL     1      18.484  30.552  12.647  1.00  0.00     0.125 C 
BRANCH   2   3
HETATM    3  C4  UNL     1      17.731  30.864  13.889  1.00  0.00     0.020 C 
BRANCH   3   4
HETATM    4  C3  UNL     1      17.535  32.379  13.952  1.00  0.00     0.001 C 
BRANCH   4   5
HETATM    5  C2  UNL     1      16.748  32.828  15.137  1.00  0.00    -0.004 C 
HETATM    6  C1  UNL     1      15.278  32.504  14.837  1.00  0.00     0.005 C 
ENDBRANCH   4   5
ENDBRANCH   3   4
ENDBRANCH   2   3
ENDBRANCH   1   2
BRANCH   1   7
HETATM    7  C6  UNL     1      18.968  28.139  12.927  1.00  0.00     0.138 C 
BRANCH   7   8
HETATM    8  O1  UNL     1      19.196  27.599  14.107  1.00  0.00    -0.348 OA
ATOM      9  H1  UNL     1      19.130  26.653  14.162  1.00  0.00     0.219 HD
ENDBRANCH   7   8
BRANCH   7  10
HETATM   10  C7  UNL     1      18.258  27.213  12.047  1.00  0.00     0.167 C 
BRANCH  10  11
HETATM   11  C8  UNL     1      16.875  27.528  11.620  1.00  0.00     0.133 C 
BRANCH  11  12
HETATM   12  C9  UNL     1      16.690  28.131  10.310  1.00  0.00     0.233 C 
HETATM   13  N2  UNL     1      17.724  28.810   9.638  1.00  0.00    -0.062 NA
HETATM   14  O2  UNL     1      15.578  28.061   9.736  1.00  0.00    -0.277 OA
ENDBRANCH  11  12
ENDBRANCH  10  11
BRANCH  10  15
HETATM   15  N3  UNL     1      19.114  26.950  10.883  1.00  0.00    -0.349 N 
HETATM   16  C10 UNL     1      19.314  25.653  10.333  1.00  0.00     0.218 C 
HETATM   17  O3  UNL     1      18.709  24.713  10.913  1.00  0.00    -0.274 OA
ATOM     18  H3  UNL     1      19.590  27.739  10.445  1.00  0.00     0.163 HD
BRANCH  16  19
HETATM   19  C11 UNL     1      20.184  25.537   9.172  1.00  0.00     0.107 C 
BRANCH  19  20
HETATM   20  C12 UNL     1      19.574  25.061   7.924  1.00  0.00    -0.006 C 
HETATM   21  C13 UNL     1      18.595  26.077   7.324  1.00  0.00     0.005 C 
HETATM   22  C14 UNL     1      17.712  25.294   6.379  1.00  0.00     0.000 C 
HETATM   23  C15 UNL     1      18.202  23.915   6.087  1.00  0.00     0.000 C 
HETATM   24  C16 UNL     1      19.682  23.803   5.852  1.00  0.00     0.000 C 
HETATM   25  C17 UNL     1      20.499  24.686   6.804  1.00  0.00     0.005 C 
ENDBRANCH  19  20
ENDBRANCH  16  19
ENDBRANCH  10  15
ENDBRANCH   7  10
ENDBRANCH   1   7
BRANCH   1  26
HETATM   26  C18 UNL     1      20.860  29.840  12.653  1.00  0.00     0.178 C 
BRANCH  26  27
HETATM   27  C19 UNL     1      21.035  31.259  12.889  1.00  0.00     0.040 C 
BRANCH  27  28
HETATM   28  C20 UNL     1      21.429  31.851  14.168  1.00  0.00    -0.009 C 
HETATM   29  C21 UNL     1      21.137  31.168  15.446  1.00  0.00     0.024 C 
HETATM   30  C22 UNL     1      22.265  31.658  16.414  1.00  0.00     0.114 C 
HETATM   31  N4  UNL     1      22.123  33.087  16.582  1.00  0.00    -0.421 N 
HETATM   32  C23 UNL     1      22.064  33.847  15.381  1.00  0.00     0.114 C 
ATOM     33  H4  UNL     1      22.069  33.523  17.503  1.00  0.00     0.153 HD
HETATM   34  C24 UNL     1      21.063  33.318  14.363  1.00  0.00     0.024 C 
ENDBRANCH  27  28
ENDBRANCH  26  27
BRANCH  26  35
HETATM   35  C25 UNL     1      21.393  29.151  11.487  1.00  0.00     0.241 C 
HETATM   36  O4  UNL     1      20.979  29.475  10.351  1.00  0.00    -0.271 OA
HETATM   37  N5  UNL     1      22.347  28.125  11.542  1.00  0.00    -0.354 N 
ATOM     38  H5  UNL     1      22.674  27.878  12.477  1.00  0.00     0.162 HD
BRANCH  37  39
HETATM   39  C26 UNL     1      22.924  27.378  10.470  1.00  0.00     0.092 C 
HETATM   40  C27 UNL     1      23.578  26.157  11.075  1.00  0.00     0.009 C 
HETATM   41  C28 UNL     1      23.479  24.927  10.235  1.00  0.00     0.007 C 
HETATM   42  C33 UNL     1      24.992  26.369  11.497  1.00  0.00     0.011 C 
HETATM   43  C29 UNL     1      23.720  25.091   8.782  1.00  0.00     0.005 C 
HETATM   44  C30 UNL     1      24.719  26.118   8.383  1.00  0.00    -0.014 C 
HETATM   45  C31 UNL     1      25.946  26.166   9.223  1.00  0.00     0.009 C 
HETATM   46  C36 UNL     1      24.014  27.443   8.247  1.00  0.00     0.011 C 
HETATM   47  C32 UNL     1      25.813  27.035  10.444  1.00  0.00    -0.013 C 
HETATM   48  C34 UNL     1      25.205  28.377  10.152  1.00  0.00     0.011 C 
HETATM   49  C35 UNL     1      23.829  28.151   9.573  1.00  0.00     0.009 C 
ENDBRANCH  37  39
ENDBRANCH  26  35
ENDBRANCH   1  26
TORSDOF 17
ENDMDL
MODEL 3
REMARK VINA RESULT: -9.011965767      3.515      8.778
REMARK  17 active torsions:
REMARK  status: ('A' for Active; 'I' for Inactive)
REMARK    1  A    between atoms: C2_2  and  C3_3 
REMARK    2  A    between atoms: C3_3  and  C4_4 
REMARK    3  A    between atoms: C4_4  and  C5_5 
REMARK    4  A    between atoms: C5_5  and  N1_6 
REMARK    5  A    between atoms: N1_6  and  C6_7 
REMARK    6  A    between atoms: N1_6  and  C18_26 
REMARK    7  A    between atoms: C6_7  and  O1_8 
REMARK    8  A    between atoms: C6_7  and  C7_10 
REMARK    9  A    between atoms: C7_10  and  C8_11 
REMARK   10  A    between atoms: C7_10  and  N3_15 
REMARK   11  A    between atoms: C8_11  and  C9_12 
REMARK       I    between atoms: N3_15  and  C10_17 
REMARK   12  A    between atoms: C10_17  and  C11_19 
REMARK   13  A    between atoms: C11_19  and  C12_20 
REMARK   14  A    between atoms: C18_26  and  C19_27 
REMARK   15  A    between atoms: C18_26  and  C25_35 
REMARK   16  A    between atoms: C19_27  and  C20_28 
REMARK       I    between atoms: C25_35  and  N5_37 
REMARK   17  A    between atoms: N5_37  and  C26_39 
ROOT
HETATM    1  N1  UNL     1      19.733  31.984  14.694  1.00  0.00    -0.350 N 
ENDROOT
BRANCH   1   2
HETATM    2  C5  UNL     1      20.378  30.741  15.084  1.00  0.00     0.125 C 
BRANCH   2   3
HETATM    3  C4  UNL     1      21.825  30.644  14.765  1.00  0.00     0.020 C 
BRANCH   3   4
HETATM    4  C3  UNL     1      21.991  29.625  13.637  1.00  0.00     0.001 C 
BRANCH   4   5
HETATM    5  C2  UNL     1      22.651  30.185  12.422  1.00  0.00    -0.004 C 
HETATM    6  C1  UNL     1      23.300  29.003  11.689  1.00  0.00     0.005 C 
ENDBRANCH   4   5
ENDBRANCH   3   4
ENDBRANCH   2   3
ENDBRANCH   1   2
BRANCH   1   7
HETATM    7  C6  UNL     1      20.307  33.214  14.971  1.00  0.00     0.138 C 
BRANCH   7   8
HETATM    8  O1  UNL     1      20.782  33.890  13.945  1.00  0.00    -0.348 OA
ATOM      9  H1  UNL     1      21.175  34.733  14.135  1.00  0.00     0.219 HD
ENDBRANCH   7   8
BRANCH   7  10
HETATM   10  C7  UNL     1      20.491  33.949  16.222  1.00  0.00     0.167 C 
BRANCH  10  11
HETATM   11  C8  UNL     1      21.862  34.238  16.702  1.00  0.00     0.133 C 
BRANCH  11  12
HETATM   12  C9  UNL     1      22.373  35.588  16.524  1.00  0.00     0.233 C 
HETATM   13  N2  UNL     1      22.433  36.213  15.265  1.00  0.00    -0.062 NA
HETATM   14  O2  UNL     1      22.784  36.241  17.513  1.00  0.00    -0.277 OA
ENDBRANCH  11  12
ENDBRANCH  10  11
BRANCH  10  15
HETATM   15  N3  UNL     1      19.698  35.183  16.141  1.00  0.00    -0.349 N 
HETATM   16  C10 UNL     1      18.846  35.637  17.186  1.00  0.00     0.218 C 
HETATM   17  O3  UNL     1      18.798  34.907  18.210  1.00  0.00    -0.274 OA
ATOM     18  H3  UNL     1      19.762  35.743  15.291  1.00  0.00     0.163 HD
BRANCH  16  19
HETATM   19  C11 UNL     1      18.122  36.882  16.975  1.00  0.00     0.107 C 
BRANCH  19  20
HETATM   20  C12 UNL     1      18.908  38.051  16.561  1.00  0.00    -0.006 C 
HETATM   21  C13 UNL     1      18.067  39.332  16.501  1.00  0.00     0.005 C 
HETATM   22  C14 UNL     1      18.836  40.292  15.621  1.00  0.00     0.000 C 
HETATM   23  C15 UNL     1      20.236  39.865  15.330  1.00  0.00     0.000 C 
HETATM   24  C16 UNL     1      20.986  39.302  16.504  1.00  0.00     0.000 C 
HETATM   25  C17 UNL     1      20.112  38.400  17.385  1.00  0.00     0.005 C 
ENDBRANCH  19  20
ENDBRANCH  16  19
ENDBRANCH  10  15
ENDBRANCH   7  10
ENDBRANCH   1   7
BRANCH   1  26
HETATM   26  C18 UNL     1      18.404  31.797  14.015  1.00  0.00     0.178 C 
BRANCH  26  27
HETATM   27  C19 UNL     1      17.382  31.367  14.949  1.00  0.00     0.040 C 
BRANCH  27  28
HETATM   28  C20 UNL     1      16.260  32.192  15.398  1.00  0.00    -0.009 C 
HETATM   29  C21 UNL     1      14.982  32.210  14.654  1.00  0.00     0.024 C 
HETATM   30  C22 UNL     1      13.907  32.547  15.740  1.00  0.00     0.114 C 
HETATM   31  N4  UNL     1      14.188  33.868  16.256  1.00  0.00    -0.421 N 
HETATM   32  C23 UNL     1      15.517  34.080  16.717  1.00  0.00     0.114 C 
ATOM     33  H4  UNL     1      13.480  34.601  16.288  1.00  0.00     0.153 HD
HETATM   34  C24 UNL     1      16.592  33.642  15.731  1.00  0.00     0.024 C 
ENDBRANCH  27  28
ENDBRANCH  26  27
BRANCH  26  35
HETATM   35  C25 UNL     1      18.690  31.102  12.768  1.00  0.00     0.241 C 
HETATM   36  O4  UNL     1      19.459  31.639  11.939  1.00  0.00    -0.271 OA
HETATM   37  N5  UNL     1      18.152  29.857  12.415  1.00  0.00    -0.354 N 
ATOM     38  H5  UNL     1      17.530  29.434  13.106  1.00  0.00     0.162 HD
BRANCH  37  39
HETATM   39  C26 UNL     1      18.352  29.098  11.222  1.00  0.00     0.092 C 
HETATM   40  C27 UNL     1      17.130  28.230  11.030  1.00  0.00     0.009 C 
HETATM   41  C28 UNL     1      16.726  28.041   9.607  1.00  0.00     0.007 C 
HETATM   42  C33 UNL     1      17.209  26.907  11.713  1.00  0.00     0.011 C 
HETATM   43  C29 UNL     1      17.815  27.784   8.634  1.00  0.00     0.005 C 
HETATM   44  C30 UNL     1      18.981  27.004   9.127  1.00  0.00    -0.014 C 
HETATM   45  C31 UNL     1      18.642  25.847   9.998  1.00  0.00     0.009 C 
HETATM   46  C36 UNL     1      19.974  27.962   9.733  1.00  0.00     0.011 C 
HETATM   47  C32 UNL     1      18.499  26.202  11.453  1.00  0.00    -0.013 C 
HETATM   48  C34 UNL     1      19.617  27.062  11.966  1.00  0.00     0.011 C 
HETATM   49  C35 UNL     1      19.633  28.339  11.161  1.00  0.00     0.009 C 
ENDBRANCH  37  39
ENDBRANCH  26  35
ENDBRANCH   1  26
TORSDOF 17
ENDMDL
MODEL 4
REMARK VINA RESULT: -8.991934455      2.315      5.638
REMARK  17 active torsions:
REMARK  status: ('A' for Active; 'I' for Inactive)
REMARK    1  A    between atoms: C2_2  and  C3_3 
REMARK    2  A    between atoms: C3_3  and  C4_4 
REMARK    3  A    between atoms: C4_4  and  C5_5 
REMARK    4  A    between atoms: C5_5  and  N1_6 
REMARK    5  A    between atoms: N1_6  and  C6_7 
REMARK    6  A    between atoms: N1_6  and  C18_26 
REMARK    7  A    between atoms: C6_7  and  O1_8 
REMARK    8  A    between atoms: C6_7  and  C7_10 
REMARK    9  A    between atoms: C7_10  and  C8_11 
REMARK   10  A    between atoms: C7_10  and  N3_15 
REMARK   11  A    between atoms: C8_11  and  C9_12 
REMARK       I    between atoms: N3_15  and  C10_17 
REMARK   12  A    between atoms: C10_17  and  C11_19 
REMARK   13  A    between atoms: C11_19  and  C12_20 
REMARK   14  A    between atoms: C18_26  and  C19_27 
REMARK   15  A    between atoms: C18_26  and  C25_35 
REMARK   16  A    between atoms: C19_27  and  C20_28 
REMARK       I    between atoms: C25_35  and  N5_37 
REMARK   17  A    between atoms: N5_37  and  C26_39 
ROOT
HETATM    1  N1  UNL     1      19.126  31.556  14.823  1.00  0.00    -0.350 N 
ENDROOT
BRANCH   1   2
HETATM    2  C5  UNL     1      18.976  32.323  16.048  1.00  0.00     0.125 C 
BRANCH   2   3
HETATM    3  C4  UNL     1      19.410  33.742  15.972  1.00  0.00     0.020 C 
BRANCH   3   4
HETATM    4  C3  UNL     1      18.860  34.468  17.200  1.00  0.00     0.001 C 
BRANCH   4   5
HETATM    5  C2  UNL     1      19.652  35.674  17.581  1.00  0.00    -0.004 C 
HETATM    6  C1  UNL     1      18.853  36.894  17.104  1.00  0.00     0.005 C 
ENDBRANCH   4   5
ENDBRANCH   3   4
ENDBRANCH   2   3
ENDBRANCH   1   2
BRANCH   1   7
HETATM    7  C6  UNL     1      20.202  30.704  14.631  1.00  0.00     0.138 C 
BRANCH   7   8
HETATM    8  O1  UNL     1      19.977  29.418  14.810  1.00  0.00    -0.348 OA
ATOM      9  H1  UNL     1      19.946  28.878  14.028  1.00  0.00     0.219 HD
ENDBRANCH   7   8
BRANCH   7  10
HETATM   10  C7  UNL     1      21.590  30.951  14.244  1.00  0.00     0.167 C 
BRANCH  10  11
HETATM   11  C8  UNL     1      22.454  31.777  15.119  1.00  0.00     0.133 C 
BRANCH  11  12
HETATM   12  C9  UNL     1      22.814  33.107  14.655  1.00  0.00     0.233 C 
HETATM   13  N2  UNL     1      23.230  33.361  13.335  1.00  0.00    -0.062 NA
HETATM   14  O2  UNL     1      22.764  34.083  15.442  1.00  0.00    -0.277 OA
ENDBRANCH  11  12
ENDBRANCH  10  11
BRANCH  10  15
HETATM   15  N3  UNL     1      22.219  29.653  13.967  1.00  0.00    -0.349 N 
HETATM   16  C10 UNL     1      22.726  29.284  12.690  1.00  0.00     0.218 C 
HETATM   17  O3  UNL     1      22.599  30.145  11.781  1.00  0.00    -0.274 OA
ATOM     18  H3  UNL     1      22.297  28.981  14.731  1.00  0.00     0.163 HD
BRANCH  16  19
HETATM   19  C11 UNL     1      23.332  27.967  12.558  1.00  0.00     0.107 C 
BRANCH  19  20
HETATM   20  C12 UNL     1      23.451  27.418  11.201  1.00  0.00    -0.006 C 
HETATM   21  C13 UNL     1      24.830  27.677  10.583  1.00  0.00     0.005 C 
HETATM   22  C14 UNL     1      24.651  27.520   9.089  1.00  0.00     0.000 C 
HETATM   23  C15 UNL     1      23.351  26.904   8.692  1.00  0.00     0.000 C 
HETATM   24  C16 UNL     1      22.916  25.738   9.534  1.00  0.00     0.000 C 
HETATM   25  C17 UNL     1      23.203  25.950  11.026  1.00  0.00     0.005 C 
ENDBRANCH  19  20
ENDBRANCH  16  19
ENDBRANCH  10  15
ENDBRANCH   7  10
ENDBRANCH   1   7
BRANCH   1  26
HETATM   26  C18 UNL     1      18.045  31.806  13.808  1.00  0.00     0.178 C 
BRANCH  26  27
HETATM   27  C19 UNL     1      16.725  31.709  14.399  1.00  0.00     0.040 C 
BRANCH  27  28
HETATM   28  C20 UNL     1      16.013  32.814  15.042  1.00  0.00    -0.009 C 
HETATM   29  C21 UNL     1      14.593  32.683  15.431  1.00  0.00     0.024 C 
HETATM   30  C22 UNL     1      14.432  33.657  16.645  1.00  0.00     0.114 C 
HETATM   31  N4  UNL     1      14.687  35.002  16.179  1.00  0.00    -0.421 N 
HETATM   32  C23 UNL     1      15.913  35.191  15.483  1.00  0.00     0.114 C 
ATOM     33  H4  UNL     1      14.030  35.766  16.339  1.00  0.00     0.153 HD
HETATM   34  C24 UNL     1      16.160  34.177  14.375  1.00  0.00     0.024 C 
ENDBRANCH  27  28
ENDBRANCH  26  27
BRANCH  26  35
HETATM   35  C25 UNL     1      18.442  31.073  12.615  1.00  0.00     0.241 C 
HETATM   36  O4  UNL     1      19.255  31.601  11.823  1.00  0.00    -0.271 OA
HETATM   37  N5  UNL     1      17.967  29.798  12.276  1.00  0.00    -0.354 N 
ATOM     38  H5  UNL     1      17.309  29.383  12.936  1.00  0.00     0.162 HD
BRANCH  37  39
HETATM   39  C26 UNL     1      18.278  29.000  11.133  1.00  0.00     0.092 C 
HETATM   40  C27 UNL     1      17.113  28.063  10.909  1.00  0.00     0.009 C 
HETATM   41  C28 UNL     1      16.808  27.792   9.474  1.00  0.00     0.007 C 
HETATM   42  C33 UNL     1      17.215  26.776  11.655  1.00  0.00     0.011 C 
HETATM   43  C29 UNL     1      17.965  27.550   8.580  1.00  0.00     0.005 C 
HETATM   44  C30 UNL     1      19.135  26.853   9.177  1.00  0.00    -0.014 C 
HETATM   45  C31 UNL     1      18.801  25.718  10.079  1.00  0.00     0.009 C 
HETATM   46  C36 UNL     1      20.041  27.886   9.797  1.00  0.00     0.011 C 
HETATM   47  C32 UNL     1      18.551  26.128  11.504  1.00  0.00    -0.013 C 
HETATM   48  C34 UNL     1      19.592  27.065  12.043  1.00  0.00     0.011 C 
HETATM   49  C35 UNL     1      19.595  28.305  11.182  1.00  0.00     0.009 C 
ENDBRANCH  37  39
ENDBRANCH  26  35
ENDBRANCH   1  26
TORSDOF 17
ENDMDL
MODEL 5
REMARK VINA RESULT: -8.963463207      1.770      7.798
REMARK  17 active torsions:
REMARK  status: ('A' for Active; 'I' for Inactive)
REMARK    1  A    between atoms: C2_2  and  C3_3 
REMARK    2  A    between atoms: C3_3  and  C4_4 
REMARK    3  A    between atoms: C4_4  and  C5_5 
REMARK    4  A    between atoms: C5_5  and  N1_6 
REMARK    5  A    between atoms: N1_6  and  C6_7 
REMARK    6  A    between atoms: N1_6  and  C18_26 
REMARK    7  A    between atoms: C6_7  and  O1_8 
REMARK    8  A    between atoms: C6_7  and  C7_10 
REMARK    9  A    between atoms: C7_10  and  C8_11 
REMARK   10  A    between atoms: C7_10  and  N3_15 
REMARK   11  A    between atoms: C8_11  and  C9_12 
REMARK       I    between atoms: N3_15  and  C10_17 
REMARK   12  A    between atoms: C10_17  and  C11_19 
REMARK   13  A    between atoms: C11_19  and  C12_20 
REMARK   14  A    between atoms: C18_26  and  C19_27 
REMARK   15  A    between atoms: C18_26  and  C25_35 
REMARK   16  A    between atoms: C19_27  and  C20_28 
REMARK       I    between atoms: C25_35  and  N5_37 
REMARK   17  A    between atoms: N5_37  and  C26_39 
ROOT
HETATM    1  N1  UNL     1      20.985  28.656  11.338  1.00  0.00    -0.350 N 
ENDROOT
BRANCH   1   2
HETATM    2  C5  UNL     1      20.946  27.899  10.099  1.00  0.00     0.125 C 
BRANCH   2   3
HETATM    3  C4  UNL     1      20.889  26.422  10.252  1.00  0.00     0.020 C 
BRANCH   3   4
HETATM    4  C3  UNL     1      20.444  25.827   8.916  1.00  0.00     0.001 C 
BRANCH   4   5
HETATM    5  C2  UNL     1      19.005  25.433   8.891  1.00  0.00    -0.004 C 
HETATM    6  C1  UNL     1      18.444  25.902   7.542  1.00  0.00     0.005 C 
ENDBRANCH   4   5
ENDBRANCH   3   4
ENDBRANCH   2   3
ENDBRANCH   1   2
BRANCH   1   7
HETATM    7  C6  UNL     1      19.955  28.586  12.261  1.00  0.00     0.138 C 
BRANCH   7   8
HETATM    8  O1  UNL     1      20.244  28.054  13.431  1.00  0.00    -0.348 OA
ATOM      9  H1  UNL     1      21.052  27.556  13.485  1.00  0.00     0.219 HD
ENDBRANCH   7   8
BRANCH   7  10
HETATM   10  C7  UNL     1      18.557  29.010  12.202  1.00  0.00     0.167 C 
BRANCH  10  11
HETATM   11  C8  UNL     1      17.533  28.074  11.684  1.00  0.00     0.133 C 
BRANCH  11  12
HETATM   12  C9  UNL     1      16.997  28.322  10.355  1.00  0.00     0.233 C 
HETATM   13  N2  UNL     1      15.655  28.063  10.021  1.00  0.00    -0.062 NA
HETATM   14  O2  UNL     1      17.738  28.780   9.453  1.00  0.00    -0.277 OA
ENDBRANCH  11  12
ENDBRANCH  10  11
BRANCH  10  15
HETATM   15  N3  UNL     1      18.180  29.509  13.531  1.00  0.00    -0.349 N 
HETATM   16  C10 UNL     1      17.973  30.887  13.822  1.00  0.00     0.218 C 
HETATM   17  O3  UNL     1      18.139  31.680  12.859  1.00  0.00    -0.274 OA
ATOM     18  H3  UNL     1      18.061  28.833  14.285  1.00  0.00     0.163 HD
BRANCH  16  19
HETATM   19  C11 UNL     1      17.595  31.242  15.182  1.00  0.00     0.107 C 
BRANCH  19  20
HETATM   20  C12 UNL     1      16.524  32.233  15.342  1.00  0.00    -0.006 C 
HETATM   21  C13 UNL     1      16.861  33.574  14.680  1.00  0.00     0.005 C 
HETATM   22  C14 UNL     1      15.950  34.595  15.324  1.00  0.00     0.000 C 
HETATM   23  C15 UNL     1      14.851  34.003  16.141  1.00  0.00     0.000 C 
HETATM   24  C16 UNL     1      14.174  32.810  15.527  1.00  0.00     0.000 C 
HETATM   25  C17 UNL     1      15.162  31.865  14.831  1.00  0.00     0.005 C 
ENDBRANCH  19  20
ENDBRANCH  16  19
ENDBRANCH  10  15
ENDBRANCH   7  10
ENDBRANCH   1   7
BRANCH   1  26
HETATM   26  C18 UNL     1      22.206  29.522  11.487  1.00  0.00     0.178 C 
BRANCH  26  27
HETATM   27  C19 UNL     1      23.320  28.784  12.048  1.00  0.00     0.040 C 
BRANCH  27  28
HETATM   28  C20 UNL     1      24.216  27.915  11.284  1.00  0.00    -0.009 C 
HETATM   29  C21 UNL     1      25.556  27.560  11.800  1.00  0.00     0.024 C 
HETATM   30  C22 UNL     1      25.859  26.164  11.162  1.00  0.00     0.114 C 
HETATM   31  N4  UNL     1      25.917  26.328   9.726  1.00  0.00    -0.421 N 
HETATM   32  C23 UNL     1      24.795  26.969   9.133  1.00  0.00     0.114 C 
ATOM     33  H4  UNL     1      26.712  26.005   9.174  1.00  0.00     0.153 HD
HETATM   34  C24 UNL     1      24.394  28.271   9.812  1.00  0.00     0.024 C 
ENDBRANCH  27  28
ENDBRANCH  26  27
BRANCH  26  35
HETATM   35  C25 UNL     1      21.732  30.787  12.029  1.00  0.00     0.241 C 
HETATM   36  O4  UNL     1      20.857  31.425  11.400  1.00  0.00    -0.271 OA
HETATM   37  N5  UNL     1      22.197  31.361  13.220  1.00  0.00    -0.354 N 
ATOM     38  H5  UNL     1      22.907  30.824  13.719  1.00  0.00     0.162 HD
BRANCH  37  39
HETATM   39  C26 UNL     1      21.814  32.593  13.832  1.00  0.00     0.092 C 
HETATM   40  C27 UNL     1      23.084  33.339  14.174  1.00  0.00     0.009 C 
HETATM   41  C28 UNL     1      22.991  34.819  14.013  1.00  0.00     0.007 C 
HETATM   42  C33 UNL     1      23.639  33.011  15.518  1.00  0.00     0.011 C 
HETATM   43  C29 UNL     1      21.752  35.467  14.505  1.00  0.00     0.005 C 
HETATM   44  C30 UNL     1      21.117  34.866  15.708  1.00  0.00    -0.014 C 
HETATM   45  C31 UNL     1      22.063  34.444  16.776  1.00  0.00     0.009 C 
HETATM   46  C36 UNL     1      20.173  33.781  15.258  1.00  0.00     0.011 C 
HETATM   47  C32 UNL     1      22.605  33.052  16.593  1.00  0.00    -0.013 C 
HETATM   48  C34 UNL     1      21.545  32.041  16.265  1.00  0.00     0.011 C 
HETATM   49  C35 UNL     1      20.875  32.467  14.981  1.00  0.00     0.009 C 
ENDBRANCH  37  39
ENDBRANCH  26  35
ENDBRANCH   1  26
TORSDOF 17
ENDMDL
