MODEL 1
REMARK VINA RESULT: -9.248507389      0.000      0.000
REMARK  15 active torsions:
REMARK  status: ('A' for Active; 'I' for Inactive)
REMARK    1  A    between atoms: C2_2  and  C3_3 
REMARK    2  A    between atoms: C3_3  and  N1_4 
REMARK    3  A    between atoms: C3_3  and  C35_46 
REMARK       I    between atoms: N1_4  and  C4_6 
REMARK    4  A    between atoms: C4_6  and  C5_8 
REMARK    5  A    between atoms: C5_8  and  N2_9 
REMARK    6  A    between atoms: C5_8  and  C31_42 
REMARK       I    between atoms: N2_9  and  C6_11 
REMARK    7  A    between atoms: C6_11  and  C7_13 
REMARK    8  A    between atoms: C7_13  and  N3_14 
REMARK       I    between atoms: N3_14  and  C8_16 
REMARK    9  A    between atoms: C8_16  and  C9_18 
REMARK   10  A    between atoms: C9_18  and  C10_19 
REMARK   11  A    between atoms: C9_18  and  N4_26 
REMARK   12  A    between atoms: C10_19  and  C11_20 
REMARK   13  A    between atoms: C23_34  and  C24_35 
REMARK   14  A    between atoms: C24_35  and  C25_36 
REMARK   15  A    between atoms: C31_42  and  C33_44 
ROOT
HETATM    1  N3  UNL     1      23.466  28.574  11.963  1.00  0.00    -0.347 N 
ATOM      2  H3  UNL     1      23.623  29.138  11.129  1.00  0.00     0.163 HD
HETATM    3  C8  UNL     1      22.408  28.951  12.825  1.00  0.00     0.264 C 
HETATM    4  O3  UNL     1      22.228  28.216  13.875  1.00  0.00    -0.266 OA
ENDROOT
BRANCH   3   5
HETATM    5  C9  UNL     1      21.477  30.061  12.682  1.00  0.00     0.083 C 
BRANCH   5   6
HETATM    6  C10 UNL     1      21.906  31.457  12.545  1.00  0.00     0.067 C 
BRANCH   6   7
HETATM    7  C11 UNL     1      21.977  32.337  13.742  1.00  0.00    -0.009 C 
HETATM    8  C12 UNL     1      23.193  33.287  13.514  1.00  0.00     0.005 C 
HETATM    9  C13 UNL     1      23.014  34.538  14.311  1.00  0.00     0.000 C 
HETATM   10  C14 UNL     1      22.204  34.249  15.551  1.00  0.00     0.000 C 
HETATM   11  C15 UNL     1      22.552  32.873  16.044  1.00  0.00     0.000 C 
HETATM   12  C16 UNL     1      22.183  31.760  15.077  1.00  0.00     0.005 C 
ENDBRANCH   6   7
ENDBRANCH   5   6
BRANCH   5  13
HETATM   13  N4  UNL     1      20.229  29.702  11.990  1.00  0.00    -0.311 N 
HETATM   14  C17 UNL     1      20.173  28.805  10.892  1.00  0.00     0.229 C 
HETATM   15  O4  UNL     1      21.061  28.085  10.359  1.00  0.00    -0.273 OA
HETATM   16  C18 UNL     1      18.774  28.787  10.349  1.00  0.00     0.084 C 
HETATM   17  C19 UNL     1      18.329  27.408   9.997  1.00  0.00     0.014 C 
HETATM   18  C22 UNL     1      18.039  29.097  11.687  1.00  0.00     0.022 C 
HETATM   19  C20 UNL     1      17.949  26.723  11.298  1.00  0.00     0.001 C 
HETATM   20  C21 UNL     1      18.214  27.785  12.373  1.00  0.00     0.007 C 
HETATM   21  C23 UNL     1      18.865  30.202  12.264  1.00  0.00     0.098 C 
BRANCH  21  22
HETATM   22  C24 UNL     1      18.719  30.495  13.693  1.00  0.00     0.031 C 
BRANCH  22  23
HETATM   23  C25 UNL     1      18.135  31.763  14.161  1.00  0.00    -0.013 C 
HETATM   24  C26 UNL     1      18.789  32.018  15.552  1.00  0.00     0.005 C 
HETATM   25  C27 UNL     1      18.561  33.424  15.996  1.00  0.00     0.000 C 
HETATM   26  C28 UNL     1      17.060  33.650  16.075  1.00  0.00     0.000 C 
HETATM   27  C29 UNL     1      16.421  33.363  14.736  1.00  0.00     0.000 C 
HETATM   28  C30 UNL     1      16.687  31.880  14.392  1.00  0.00     0.005 C 
ENDBRANCH  22  23
ENDBRANCH  21  22
ENDBRANCH   5  13
ENDBRANCH   3   5
BRANCH   1  29
HETATM   29  C7  UNL     1      24.327  27.456  12.183  1.00  0.00     0.225 C 
BRANCH  29  30
HETATM   30  C6  UNL     1      24.217  26.341  11.258  1.00  0.00     0.236 C 
HETATM   31  N2  UNL     1      23.211  26.267  10.249  1.00  0.00    -0.346 N 
ATOM     32  H2  UNL     1      22.552  27.042  10.187  1.00  0.00     0.163 HD
HETATM   33  O2  UNL     1      25.011  25.377  11.306  1.00  0.00    -0.272 OA
BRANCH  31  34
HETATM   34  C5  UNL     1      23.052  25.196   9.320  1.00  0.00     0.180 C 
BRANCH  34  35
HETATM   35  C4  UNL     1      23.580  25.567   7.985  1.00  0.00     0.241 C 
HETATM   36  N1  UNL     1      23.661  24.618   6.957  1.00  0.00    -0.346 N 
ATOM     37  H1  UNL     1      23.357  23.659   7.122  1.00  0.00     0.163 HD
HETATM   38  O1  UNL     1      23.951  26.749   7.797  1.00  0.00    -0.271 OA
BRANCH  36  39
HETATM   39  C3  UNL     1      24.184  25.008   5.645  1.00  0.00     0.173 C 
BRANCH  39  40
HETATM   40  C2  UNL     1      23.017  24.951   4.663  1.00  0.00     0.030 C 
HETATM   41  C1  UNL     1      22.060  23.852   4.990  1.00  0.00     0.007 C 
ENDBRANCH  39  40
BRANCH  39  42
HETATM   42  C35 UNL     1      25.278  24.115   5.255  1.00  0.00     0.254 C 
HETATM   43  N5  UNL     1      25.748  23.029   6.023  1.00  0.00    -0.060 NA
HETATM   44  O5  UNL     1      25.857  24.325   4.140  1.00  0.00    -0.275 OA
ENDBRANCH  39  42
ENDBRANCH  36  39
ENDBRANCH  34  35
BRANCH  34  45
HETATM   45  C31 UNL     1      21.614  24.734   9.202  1.00  0.00     0.013 C 
HETATM   46  C32 UNL     1      21.015  24.582  10.577  1.00  0.00     0.012 C 
BRANCH  45  47
HETATM   47  C33 UNL     1      20.790  25.659   8.333  1.00  0.00     0.002 C 
HETATM   48  C34 UNL     1      19.636  24.910   7.685  1.00  0.00     0.005 C 
ENDBRANCH  45  47
ENDBRANCH  34  45
ENDBRANCH  31  34
ENDBRANCH  29  30
ENDBRANCH   1  29
TORSDOF 15
ENDMDL
MODEL 2
REMARK VINA RESULT: -9.051629605      4.277     11.015
REMARK  15 active torsions:
REMARK  status: ('A' for Active; 'I' for Inactive)
REMARK    1  A    between atoms: C2_2  and  C3_3 
REMARK    2  A    between atoms: C3_3  and  N1_4 
REMARK    3  A    between atoms: C3_3  and  C35_46 
REMARK       I    between atoms: N1_4  and  C4_6 
REMARK    4  A    between atoms: C4_6  and  C5_8 
REMARK    5  A    between atoms: C5_8  and  N2_9 
REMARK    6  A    between atoms: C5_8  and  C31_42 
REMARK       I    between atoms: N2_9  and  C6_11 
REMARK    7  A    between atoms: C6_11  and  C7_13 
REMARK    8  A    between atoms: C7_13  and  N3_14 
REMARK       I    between atoms: N3_14  and  C8_16 
REMARK    9  A    between atoms: C8_16  and  C9_18 
REMARK   10  A    between atoms: C9_18  and  C10_19 
REMARK   11  A    between atoms: C9_18  and  N4_26 
REMARK   12  A    between atoms: C10_19  and  C11_20 
REMARK   13  A    between atoms: C23_34  and  C24_35 
REMARK   14  A    between atoms: C24_35  and  C25_36 
REMARK   15  A    between atoms: C31_42  and  C33_44 
ROOT
HETATM    1  N3  UNL     1      21.688  33.108  13.902  1.00  0.00    -0.347 N 
ATOM      2  H3  UNL     1      20.715  33.019  14.195  1.00  0.00     0.163 HD
HETATM    3  C8  UNL     1      22.349  31.943  13.448  1.00  0.00     0.264 C 
HETATM    4  O3  UNL     1      23.582  32.085  13.080  1.00  0.00    -0.266 OA
ENDROOT
BRANCH   3   5
HETATM    5  C9  UNL     1      21.822  30.591  13.328  1.00  0.00     0.083 C 
BRANCH   5   6
HETATM    6  C10 UNL     1      22.616  29.390  13.607  1.00  0.00     0.067 C 
BRANCH   6   7
HETATM    7  C11 UNL     1      23.256  28.644  12.492  1.00  0.00    -0.009 C 
HETATM    8  C12 UNL     1      24.790  28.666  12.775  1.00  0.00     0.005 C 
HETATM    9  C13 UNL     1      25.447  27.509  12.097  1.00  0.00     0.000 C 
HETATM   10  C14 UNL     1      24.677  27.133  10.855  1.00  0.00     0.000 C 
HETATM   11  C15 UNL     1      24.124  28.385  10.234  1.00  0.00     0.000 C 
HETATM   12  C16 UNL     1      23.114  29.111  11.106  1.00  0.00     0.005 C 
ENDBRANCH   6   7
ENDBRANCH   5   6
BRANCH   5  13
HETATM   13  N4  UNL     1      20.382  30.491  13.617  1.00  0.00    -0.311 N 
HETATM   14  C17 UNL     1      19.790  30.958  14.819  1.00  0.00     0.229 C 
HETATM   15  O4  UNL     1      20.274  31.601  15.790  1.00  0.00    -0.273 OA
HETATM   16  C18 UNL     1      18.342  30.563  14.834  1.00  0.00     0.084 C 
HETATM   17  C19 UNL     1      17.471  31.656  15.353  1.00  0.00     0.014 C 
HETATM   18  C22 UNL     1      18.115  30.589  13.294  1.00  0.00     0.022 C 
HETATM   19  C20 UNL     1      17.299  32.655  14.221  1.00  0.00     0.001 C 
HETATM   20  C21 UNL     1      18.121  32.063  13.070  1.00  0.00     0.007 C 
HETATM   21  C23 UNL     1      19.329  29.887  12.773  1.00  0.00     0.098 C 
BRANCH  21  22
HETATM   22  C24 UNL     1      19.666  30.057  11.357  1.00  0.00     0.031 C 
BRANCH  22  23
HETATM   23  C25 UNL     1      19.517  28.953  10.395  1.00  0.00    -0.013 C 
HETATM   24  C26 UNL     1      17.978  28.772  10.225  1.00  0.00     0.005 C 
HETATM   25  C27 UNL     1      17.671  27.930   9.033  1.00  0.00     0.000 C 
HETATM   26  C28 UNL     1      18.338  26.578   9.233  1.00  0.00     0.000 C 
HETATM   27  C29 UNL     1      19.824  26.758   9.437  1.00  0.00     0.000 C 
HETATM   28  C30 UNL     1      20.028  27.610  10.710  1.00  0.00     0.005 C 
ENDBRANCH  22  23
ENDBRANCH  21  22
ENDBRANCH   5  13
ENDBRANCH   3   5
BRANCH   1  29
HETATM   29  C7  UNL     1      22.289  34.401  13.979  1.00  0.00     0.225 C 
BRANCH  29  30
HETATM   30  C6  UNL     1      22.052  35.174  15.187  1.00  0.00     0.236 C 
HETATM   31  N2  UNL     1      21.263  36.362  15.205  1.00  0.00    -0.346 N 
ATOM     32  H2  UNL     1      20.852  36.665  14.322  1.00  0.00     0.163 HD
HETATM   33  O2  UNL     1      22.539  34.827  16.285  1.00  0.00    -0.272 OA
BRANCH  31  34
HETATM   34  C5  UNL     1      21.003  37.162  16.357  1.00  0.00     0.180 C 
BRANCH  34  35
HETATM   35  C4  UNL     1      19.688  36.824  16.953  1.00  0.00     0.241 C 
HETATM   36  N1  UNL     1      18.498  37.275  16.366  1.00  0.00    -0.346 N 
ATOM     37  H1  UNL     1      18.529  37.844  15.520  1.00  0.00     0.163 HD
HETATM   38  O1  UNL     1      19.666  36.125  17.993  1.00  0.00    -0.271 OA
BRANCH  36  39
HETATM   39  C3  UNL     1      17.210  36.927  16.971  1.00  0.00     0.173 C 
BRANCH  39  40
HETATM   40  C2  UNL     1      16.601  35.815  16.120  1.00  0.00     0.030 C 
HETATM   41  C1  UNL     1      15.869  34.811  16.947  1.00  0.00     0.007 C 
ENDBRANCH  39  40
BRANCH  39  42
HETATM   42  C35 UNL     1      16.348  38.110  17.033  1.00  0.00     0.254 C 
HETATM   43  N5  UNL     1      15.261  38.273  17.918  1.00  0.00    -0.060 NA
HETATM   44  O5  UNL     1      16.588  39.071  16.232  1.00  0.00    -0.275 OA
ENDBRANCH  39  42
ENDBRANCH  36  39
ENDBRANCH  34  35
BRANCH  34  45
HETATM   45  C31 UNL     1      21.078  38.647  16.066  1.00  0.00     0.013 C 
HETATM   46  C32 UNL     1      21.356  39.402  17.340  1.00  0.00     0.012 C 
BRANCH  45  47
HETATM   47  C33 UNL     1      22.099  38.964  14.994  1.00  0.00     0.002 C 
HETATM   48  C34 UNL     1      21.469  39.758  13.862  1.00  0.00     0.005 C 
ENDBRANCH  45  47
ENDBRANCH  34  45
ENDBRANCH  31  34
ENDBRANCH  29  30
ENDBRANCH   1  29
TORSDOF 15
ENDMDL
MODEL 3
REMARK VINA RESULT: -8.853618060      3.647     10.573
REMARK  15 active torsions:
REMARK  status: ('A' for Active; 'I' for Inactive)
REMARK    1  A    between atoms: C2_2  and  C3_3 
REMARK    2  A    between atoms: C3_3  and  N1_4 
REMARK    3  A    between atoms: C3_3  and  C35_46 
REMARK       I    between atoms: N1_4  and  C4_6 
REMARK    4  A    between atoms: C4_6  and  C5_8 
REMARK    5  A    between atoms: C5_8  and  N2_9 
REMARK    6  A    between atoms: C5_8  and  C31_42 
REMARK       I    between atoms: N2_9  and  C6_11 
REMARK    7  A    between atoms: C6_11  and  C7_13 
REMARK    8  A    between atoms: C7_13  and  N3_14 
REMARK       I    between atoms: N3_14  and  C8_16 
REMARK    9  A    between atoms: C8_16  and  C9_18 
REMARK   10  A    between atoms: C9_18  and  C10_19 
REMARK   11  A    between atoms: C9_18  and  N4_26 
REMARK   12  A    between atoms: C10_19  and  C11_20 
REMARK   13  A    between atoms: C23_34  and  C24_35 
REMARK   14  A    between atoms: C24_35  and  C25_36 
REMARK   15  A    between atoms: C31_42  and  C33_44 
ROOT
HETATM    1  N3  UNL     1      18.924  30.652  13.576  1.00  0.00    -0.347 N 
ATOM      2  H3  UNL     1      18.723  31.229  12.760  1.00  0.00     0.163 HD
HETATM    3  C8  UNL     1      19.725  29.500  13.389  1.00  0.00     0.264 C 
HETATM    4  O3  UNL     1      19.967  28.788  14.442  1.00  0.00    -0.266 OA
ENDROOT
BRANCH   3   5
HETATM    5  C9  UNL     1      20.329  29.008  12.159  1.00  0.00     0.083 C 
BRANCH   5   6
HETATM    6  C10 UNL     1      19.900  29.439  10.824  1.00  0.00     0.067 C 
BRANCH   6   7
HETATM    7  C11 UNL     1      18.952  28.605  10.040  1.00  0.00    -0.009 C 
HETATM    8  C12 UNL     1      17.738  28.325  10.978  1.00  0.00     0.005 C 
HETATM    9  C13 UNL     1      16.524  28.027  10.160  1.00  0.00     0.000 C 
HETATM   10  C14 UNL     1      16.927  27.396   8.849  1.00  0.00     0.000 C 
HETATM   11  C15 UNL     1      18.128  26.525   9.084  1.00  0.00     0.000 C 
HETATM   12  C16 UNL     1      19.363  27.287   9.538  1.00  0.00     0.005 C 
ENDBRANCH   6   7
ENDBRANCH   5   6
BRANCH   5  13
HETATM   13  N4  UNL     1      21.754  28.664  12.297  1.00  0.00    -0.311 N 
HETATM   14  C17 UNL     1      22.285  27.388  11.977  1.00  0.00     0.229 C 
HETATM   15  O4  UNL     1      21.754  26.373  11.452  1.00  0.00    -0.273 OA
HETATM   16  C18 UNL     1      23.732  27.351  12.374  1.00  0.00     0.084 C 
HETATM   17  C19 UNL     1      24.574  26.666  11.352  1.00  0.00     0.014 C 
HETATM   18  C22 UNL     1      24.033  28.865  12.167  1.00  0.00     0.022 C 
HETATM   19  C20 UNL     1      24.797  27.661  10.227  1.00  0.00     0.001 C 
HETATM   20  C21 UNL     1      24.033  28.913  10.677  1.00  0.00     0.007 C 
HETATM   21  C23 UNL     1      22.847  29.522  12.799  1.00  0.00     0.098 C 
BRANCH  21  22
HETATM   22  C24 UNL     1      22.578  30.923  12.462  1.00  0.00     0.031 C 
BRANCH  22  23
HETATM   23  C25 UNL     1      22.225  31.908  13.498  1.00  0.00    -0.013 C 
HETATM   24  C26 UNL     1      23.312  33.019  13.384  1.00  0.00     0.005 C 
HETATM   25  C27 UNL     1      22.899  34.244  14.128  1.00  0.00     0.000 C 
HETATM   26  C28 UNL     1      22.696  33.858  15.585  1.00  0.00     0.000 C 
HETATM   27  C29 UNL     1      21.672  32.753  15.691  1.00  0.00     0.000 C 
HETATM   28  C30 UNL     1      22.214  31.528  14.919  1.00  0.00     0.005 C 
ENDBRANCH  22  23
ENDBRANCH  21  22
ENDBRANCH   5  13
ENDBRANCH   3   5
BRANCH   1  29
HETATM   29  C7  UNL     1      18.378  31.061  14.831  1.00  0.00     0.225 C 
BRANCH  29  30
HETATM   30  C6  UNL     1      17.737  32.364  14.882  1.00  0.00     0.236 C 
HETATM   31  N2  UNL     1      17.471  33.049  16.106  1.00  0.00    -0.346 N 
ATOM     32  H2  UNL     1      17.754  32.589  16.971  1.00  0.00     0.163 HD
HETATM   33  O2  UNL     1      17.382  32.955  13.840  1.00  0.00    -0.272 OA
BRANCH  31  34
HETATM   34  C5  UNL     1      16.841  34.325  16.217  1.00  0.00     0.180 C 
BRANCH  34  35
HETATM   35  C4  UNL     1      17.697  35.278  16.962  1.00  0.00     0.241 C 
HETATM   36  N1  UNL     1      17.922  36.572  16.475  1.00  0.00    -0.346 N 
ATOM     37  H1  UNL     1      17.496  36.868  15.597  1.00  0.00     0.163 HD
HETATM   38  O1  UNL     1      18.214  34.900  18.040  1.00  0.00    -0.271 OA
BRANCH  36  39
HETATM   39  C3  UNL     1      18.770  37.499  17.229  1.00  0.00     0.173 C 
BRANCH  39  40
HETATM   40  C2  UNL     1      18.078  38.860  17.205  1.00  0.00     0.030 C 
HETATM   41  C1  UNL     1      16.690  38.775  16.661  1.00  0.00     0.007 C 
ENDBRANCH  39  40
BRANCH  39  42
HETATM   42  C35 UNL     1      20.109  37.548  16.639  1.00  0.00     0.254 C 
HETATM   43  N5  UNL     1      21.232  36.842  17.121  1.00  0.00    -0.060 NA
HETATM   44  O5  UNL     1      20.287  38.281  15.612  1.00  0.00    -0.275 OA
ENDBRANCH  39  42
ENDBRANCH  36  39
ENDBRANCH  34  35
BRANCH  34  45
HETATM   45  C31 UNL     1      15.470  34.244  16.856  1.00  0.00     0.013 C 
HETATM   46  C32 UNL     1      14.959  35.633  17.143  1.00  0.00     0.012 C 
BRANCH  45  47
HETATM   47  C33 UNL     1      14.494  33.454  16.010  1.00  0.00     0.002 C 
HETATM   48  C34 UNL     1      13.099  34.052  16.088  1.00  0.00     0.005 C 
ENDBRANCH  45  47
ENDBRANCH  34  45
ENDBRANCH  31  34
ENDBRANCH  29  30
ENDBRANCH   1  29
TORSDOF 15
ENDMDL
MODEL 4
REMARK VINA RESULT: -8.795110077      4.735     11.372
REMARK  15 active torsions:
REMARK  status: ('A' for Active; 'I' for Inactive)
REMARK    1  A    between atoms: C2_2  and  C3_3 
REMARK    2  A    between atoms: C3_3  and  N1_4 
REMARK    3  A    between atoms: C3_3  and  C35_46 
REMARK       I    between atoms: N1_4  and  C4_6 
REMARK    4  A    between atoms: C4_6  and  C5_8 
REMARK    5  A    between atoms: C5_8  and  N2_9 
REMARK    6  A    between atoms: C5_8  and  C31_42 
REMARK       I    between atoms: N2_9  and  C6_11 
REMARK    7  A    between atoms: C6_11  and  C7_13 
REMARK    8  A    between atoms: C7_13  and  N3_14 
REMARK       I    between atoms: N3_14  and  C8_16 
REMARK    9  A    between atoms: C8_16  and  C9_18 
REMARK   10  A    between atoms: C9_18  and  C10_19 
REMARK   11  A    between atoms: C9_18  and  N4_26 
REMARK   12  A    between atoms: C10_19  and  C11_20 
REMARK   13  A    between atoms: C23_34  and  C24_35 
REMARK   14  A    between atoms: C24_35  and  C25_36 
REMARK   15  A    between atoms: C31_42  and  C33_44 
ROOT
HETATM    1  N3  UNL     1      21.563  33.842  14.190  1.00  0.00    -0.347 N 
ATOM      2  H3  UNL     1      20.668  33.803  14.677  1.00  0.00     0.163 HD
HETATM    3  C8  UNL     1      22.072  32.637  13.649  1.00  0.00     0.264 C 
HETATM    4  O3  UNL     1      23.208  32.715  13.034  1.00  0.00    -0.266 OA
ENDROOT
BRANCH   3   5
HETATM    5  C9  UNL     1      21.479  31.308  13.683  1.00  0.00     0.083 C 
BRANCH   5   6
HETATM    6  C10 UNL     1      22.248  30.091  13.962  1.00  0.00     0.067 C 
BRANCH   6   7
HETATM    7  C11 UNL     1      22.844  29.312  12.845  1.00  0.00    -0.009 C 
HETATM    8  C12 UNL     1      22.103  27.940  12.825  1.00  0.00     0.005 C 
HETATM    9  C13 UNL     1      22.183  27.341  11.459  1.00  0.00     0.000 C 
HETATM   10  C14 UNL     1      23.450  27.790  10.771  1.00  0.00     0.000 C 
HETATM   11  C15 UNL     1      24.538  27.912  11.800  1.00  0.00     0.000 C 
HETATM   12  C16 UNL     1      24.275  28.977  12.852  1.00  0.00     0.005 C 
ENDBRANCH   6   7
ENDBRANCH   5   6
BRANCH   5  13
HETATM   13  N4  UNL     1      20.076  31.298  14.128  1.00  0.00    -0.311 N 
HETATM   14  C17 UNL     1      19.600  32.050  15.233  1.00  0.00     0.229 C 
HETATM   15  O4  UNL     1      20.169  32.906  15.965  1.00  0.00    -0.273 OA
HETATM   16  C18 UNL     1      18.166  31.688  15.487  1.00  0.00     0.084 C 
HETATM   17  C19 UNL     1      17.335  32.885  15.806  1.00  0.00     0.014 C 
HETATM   18  C22 UNL     1      17.787  31.339  14.017  1.00  0.00     0.022 C 
HETATM   19  C20 UNL     1      17.040  33.579  14.488  1.00  0.00     0.001 C 
HETATM   20  C21 UNL     1      17.752  32.714  13.440  1.00  0.00     0.007 C 
HETATM   21  C23 UNL     1      18.953  30.518  13.565  1.00  0.00     0.098 C 
BRANCH  21  22
HETATM   22  C24 UNL     1      19.147  30.333  12.124  1.00  0.00     0.031 C 
BRANCH  22  23
HETATM   23  C25 UNL     1      18.507  29.223  11.400  1.00  0.00    -0.013 C 
HETATM   24  C26 UNL     1      18.515  28.031  12.403  1.00  0.00     0.005 C 
HETATM   25  C27 UNL     1      17.601  26.945  11.944  1.00  0.00     0.000 C 
HETATM   26  C28 UNL     1      18.078  26.481  10.577  1.00  0.00     0.000 C 
HETATM   27  C29 UNL     1      18.108  27.646   9.616  1.00  0.00     0.000 C 
HETATM   28  C30 UNL     1      19.107  28.689  10.167  1.00  0.00     0.005 C 
ENDBRANCH  22  23
ENDBRANCH  21  22
ENDBRANCH   5  13
ENDBRANCH   3   5
BRANCH   1  29
HETATM   29  C7  UNL     1      22.217  35.108  14.100  1.00  0.00     0.225 C 
BRANCH  29  30
HETATM   30  C6  UNL     1      22.033  36.030  15.208  1.00  0.00     0.236 C 
HETATM   31  N2  UNL     1      21.294  37.245  15.092  1.00  0.00    -0.346 N 
ATOM     32  H2  UNL     1      20.880  37.456  14.184  1.00  0.00     0.163 HD
HETATM   33  O2  UNL     1      22.525  35.798  16.334  1.00  0.00    -0.272 OA
BRANCH  31  34
HETATM   34  C5  UNL     1      21.087  38.188  16.142  1.00  0.00     0.180 C 
BRANCH  34  35
HETATM   35  C4  UNL     1      19.787  37.957  16.816  1.00  0.00     0.241 C 
HETATM   36  N1  UNL     1      18.583  38.309  16.192  1.00  0.00    -0.346 N 
ATOM     37  H1  UNL     1      18.593  38.731  15.263  1.00  0.00     0.163 HD
HETATM   38  O1  UNL     1      19.790  37.439  17.957  1.00  0.00    -0.271 OA
BRANCH  36  39
HETATM   39  C3  UNL     1      17.310  38.070  16.876  1.00  0.00     0.173 C 
BRANCH  39  40
HETATM   40  C2  UNL     1      16.736  36.772  16.312  1.00  0.00     0.030 C 
HETATM   41  C1  UNL     1      15.991  35.992  17.345  1.00  0.00     0.007 C 
ENDBRANCH  39  40
BRANCH  39  42
HETATM   42  C35 UNL     1      16.408  39.206  16.672  1.00  0.00     0.254 C 
HETATM   43  N5  UNL     1      15.251  39.467  17.437  1.00  0.00    -0.060 NA
HETATM   44  O5  UNL     1      16.679  40.028  15.739  1.00  0.00    -0.275 OA
ENDBRANCH  39  42
ENDBRANCH  36  39
ENDBRANCH  34  35
BRANCH  34  45
HETATM   45  C31 UNL     1      21.179  39.623  15.663  1.00  0.00     0.013 C 
HETATM   46  C32 UNL     1      22.359  40.301  16.313  1.00  0.00     0.012 C 
BRANCH  45  47
HETATM   47  C33 UNL     1      21.243  39.715  14.154  1.00  0.00     0.002 C 
HETATM   48  C34 UNL     1      22.456  40.516  13.710  1.00  0.00     0.005 C 
ENDBRANCH  45  47
ENDBRANCH  34  45
ENDBRANCH  31  34
ENDBRANCH  29  30
ENDBRANCH   1  29
TORSDOF 15
ENDMDL
MODEL 5
REMARK VINA RESULT: -8.745834717      5.106     12.371
REMARK  15 active torsions:
REMARK  status: ('A' for Active; 'I' for Inactive)
REMARK    1  A    between atoms: C2_2  and  C3_3 
REMARK    2  A    between atoms: C3_3  and  N1_4 
REMARK    3  A    between atoms: C3_3  and  C35_46 
REMARK       I    between atoms: N1_4  and  C4_6 
REMARK    4  A    between atoms: C4_6  and  C5_8 
REMARK    5  A    between atoms: C5_8  and  N2_9 
REMARK    6  A    between atoms: C5_8  and  C31_42 
REMARK       I    between atoms: N2_9  and  C6_11 
REMARK    7  A    between atoms: C6_11  and  C7_13 
REMARK    8  A    between atoms: C7_13  and  N3_14 
REMARK       I    between atoms: N3_14  and  C8_16 
REMARK    9  A    between atoms: C8_16  and  C9_18 
REMARK   10  A    between atoms: C9_18  and  C10_19 
REMARK   11  A    between atoms: C9_18  and  N4_26 
REMARK   12  A    between atoms: C10_19  and  C11_20 
REMARK   13  A    between atoms: C23_34  and  C24_35 
REMARK   14  A    between atoms: C24_35  and  C25_36 
REMARK   15  A    between atoms: C31_42  and  C33_44 
ROOT
HETATM    1  N3  UNL     1      17.371  33.284  13.487  1.00  0.00    -0.347 N 
ATOM      2  H3  UNL     1      17.845  33.892  12.819  1.00  0.00     0.163 HD
HETATM    3  C8  UNL     1      17.913  31.995  13.706  1.00  0.00     0.264 C 
HETATM    4  O3  UNL     1      17.294  31.246  14.561  1.00  0.00    -0.266 OA
ENDROOT
BRANCH   3   5
HETATM    5  C9  UNL     1      19.092  31.394  13.100  1.00  0.00     0.083 C 
BRANCH   5   6
HETATM    6  C10 UNL     1      19.090  30.790  11.763  1.00  0.00     0.067 C 
BRANCH   6   7
HETATM    7  C11 UNL     1      18.518  29.433  11.559  1.00  0.00    -0.009 C 
HETATM    8  C12 UNL     1      19.044  28.556  12.737  1.00  0.00     0.005 C 
HETATM    9  C13 UNL     1      18.117  27.408  12.968  1.00  0.00     0.000 C 
HETATM   10  C14 UNL     1      17.439  27.024  11.676  1.00  0.00     0.000 C 
HETATM   11  C15 UNL     1      18.409  27.224  10.545  1.00  0.00     0.000 C 
HETATM   12  C16 UNL     1      18.829  28.671  10.342  1.00  0.00     0.005 C 
ENDBRANCH   6   7
ENDBRANCH   5   6
BRANCH   5  13
HETATM   13  N4  UNL     1      20.357  32.020  13.520  1.00  0.00    -0.311 N 
HETATM   14  C17 UNL     1      20.434  33.059  14.483  1.00  0.00     0.229 C 
HETATM   15  O4  UNL     1      19.552  33.579  15.219  1.00  0.00    -0.273 OA
HETATM   16  C18 UNL     1      21.850  33.551  14.555  1.00  0.00     0.084 C 
HETATM   17  C19 UNL     1      22.283  33.804  15.959  1.00  0.00     0.014 C 
HETATM   18  C22 UNL     1      22.545  32.210  14.175  1.00  0.00     0.022 C 
HETATM   19  C20 UNL     1      22.607  32.452  16.569  1.00  0.00     0.001 C 
HETATM   20  C21 UNL     1      22.324  31.453  15.440  1.00  0.00     0.007 C 
HETATM   21  C23 UNL     1      21.719  31.729  13.024  1.00  0.00     0.098 C 
BRANCH  21  22
HETATM   22  C24 UNL     1      21.822  30.316  12.647  1.00  0.00     0.031 C 
BRANCH  22  23
HETATM   23  C25 UNL     1      23.106  29.721  12.244  1.00  0.00    -0.013 C 
HETATM   24  C26 UNL     1      22.772  28.851  10.995  1.00  0.00     0.005 C 
HETATM   25  C27 UNL     1      24.017  28.461  10.271  1.00  0.00     0.000 C 
HETATM   26  C28 UNL     1      24.890  27.676  11.237  1.00  0.00     0.000 C 
HETATM   27  C29 UNL     1      25.181  28.506  12.465  1.00  0.00     0.000 C 
HETATM   28  C30 UNL     1      23.833  28.821  13.153  1.00  0.00     0.005 C 
ENDBRANCH  22  23
ENDBRANCH  21  22
ENDBRANCH   5  13
ENDBRANCH   3   5
BRANCH   1  29
HETATM   29  C7  UNL     1      16.207  33.792  14.138  1.00  0.00     0.225 C 
BRANCH  29  30
HETATM   30  C6  UNL     1      16.349  34.211  15.523  1.00  0.00     0.236 C 
HETATM   31  N2  UNL     1      17.044  35.396  15.907  1.00  0.00    -0.346 N 
ATOM     32  H2  UNL     1      17.449  35.963  15.162  1.00  0.00     0.163 HD
HETATM   33  O2  UNL     1      15.861  33.539  16.457  1.00  0.00    -0.272 OA
BRANCH  31  34
HETATM   34  C5  UNL     1      17.219  35.852  17.248  1.00  0.00     0.180 C 
BRANCH  34  35
HETATM   35  C4  UNL     1      16.175  36.837  17.616  1.00  0.00     0.241 C 
HETATM   36  N1  UNL     1      16.468  38.206  17.670  1.00  0.00    -0.346 N 
ATOM     37  H1  UNL     1      17.409  38.536  17.456  1.00  0.00     0.163 HD
HETATM   38  O1  UNL     1      15.023  36.416  17.876  1.00  0.00    -0.271 OA
BRANCH  36  39
HETATM   39  C3  UNL     1      15.419  39.162  18.034  1.00  0.00     0.173 C 
BRANCH  39  40
HETATM   40  C2  UNL     1      15.484  40.305  17.023  1.00  0.00     0.030 C 
HETATM   41  C1  UNL     1      16.718  40.242  16.184  1.00  0.00     0.007 C 
ENDBRANCH  39  40
BRANCH  39  42
HETATM   42  C35 UNL     1      15.618  39.628  19.408  1.00  0.00     0.254 C 
HETATM   43  N5  UNL     1      16.713  40.401  19.848  1.00  0.00    -0.060 NA
HETATM   44  O5  UNL     1      14.744  39.318  20.280  1.00  0.00    -0.275 OA
ENDBRANCH  39  42
ENDBRANCH  36  39
ENDBRANCH  34  35
BRANCH  34  45
HETATM   45  C31 UNL     1      18.596  36.435  17.490  1.00  0.00     0.013 C 
HETATM   46  C32 UNL     1      19.523  35.360  17.997  1.00  0.00     0.012 C 
BRANCH  45  47
HETATM   47  C33 UNL     1      19.151  37.113  16.255  1.00  0.00     0.002 C 
HETATM   48  C34 UNL     1      20.670  37.143  16.288  1.00  0.00     0.005 C 
ENDBRANCH  45  47
ENDBRANCH  34  45
ENDBRANCH  31  34
ENDBRANCH  29  30
ENDBRANCH   1  29
TORSDOF 15
ENDMDL
