MODEL 1
REMARK VINA RESULT: -10.328094131      0.000      0.000
REMARK  10 active torsions:
REMARK  status: ('A' for Active; 'I' for Inactive)
REMARK       I    between atoms: N1_2  and  C2_4 
REMARK    1  A    between atoms: C2_4  and  C3_6 
REMARK    2  A    between atoms: C7_10  and  N2_11 
REMARK    3  A    between atoms: N2_11  and  C8_12 
REMARK    4  A    between atoms: C11_15  and  C12_16 
REMARK    5  A    between atoms: C12_16  and  N3_17 
REMARK       I    between atoms: N3_17  and  C13_18 
REMARK    6  A    between atoms: C13_18  and  C14_20 
REMARK    7  A    between atoms: C20_29  and  N6_30 
REMARK    8  A    between atoms: C21_32  and  C22_33 
REMARK    9  A    between atoms: C22_33  and  C23_34 
REMARK   10  A    between atoms: C23_34  and  O3_35 
ROOT
HETATM    1  C14 UNL     1     -13.101  55.594  10.297  1.00  0.00     0.049 A 
HETATM    2  C15 UNL     1     -14.043  56.077  11.227  1.00  0.00     0.041 A 
HETATM    3  C16 UNL     1     -14.460  57.393  11.077  1.00  0.00     0.058 A 
HETATM    4  C17 UNL     1     -15.448  57.989  11.897  1.00  0.00     0.100 C 
HETATM    5  N4  UNL     1     -16.271  58.449  12.578  1.00  0.00    -0.191 NA
HETATM    6  C18 UNL     1     -13.928  58.157  10.012  1.00  0.00     0.010 A 
HETATM    7  C19 UNL     1     -14.445  59.450   9.765  1.00  0.00     0.103 A 
HETATM    8  N5  UNL     1     -14.033  60.150   8.669  1.00  0.00    -0.351 N 
ATOM      9  H5  UNL     1     -14.428  61.077   8.514  1.00  0.00     0.166 HD
HETATM   10  C20 UNL     1     -13.153  59.696   7.798  1.00  0.00     0.105 A 
HETATM   11  C25 UNL     1     -12.611  58.411   8.033  1.00  0.00     0.060 A 
HETATM   12  C26 UNL     1     -13.019  57.681   9.134  1.00  0.00    -0.018 A 
HETATM   13  C27 UNL     1     -12.584  56.343   9.292  1.00  0.00     0.030 A 
ENDROOT
BRANCH   1  14
HETATM   14  C13 UNL     1     -12.987  54.116  10.410  1.00  0.00     0.325 C 
HETATM   15  N3  UNL     1     -12.808  53.303   9.371  1.00  0.00    -0.378 NA
HETATM   16  O2  UNL     1     -13.047  53.773  11.650  1.00  0.00    -0.251 OA
BRANCH  15  17
HETATM   17  C12 UNL     1     -12.621  52.438   8.313  1.00  0.00     0.198 C 
BRANCH  17  18
HETATM   18  C11 UNL     1     -12.652  53.099   6.977  1.00  0.00    -0.007 A 
HETATM   19  C10 UNL     1     -13.518  52.487   6.061  1.00  0.00     0.017 A 
HETATM   20  C9  UNL     1     -13.586  52.944   4.773  1.00  0.00     0.045 A 
HETATM   21  C8  UNL     1     -12.816  54.023   4.313  1.00  0.00     0.107 A 
HETATM   22  C29 UNL     1     -11.997  54.587   5.254  1.00  0.00     0.045 A 
HETATM   23  C28 UNL     1     -11.904  54.149   6.560  1.00  0.00     0.017 A 
BRANCH  21  24
HETATM   24  N2  UNL     1     -12.787  54.333   3.018  1.00  0.00    -0.405 NA
BRANCH  24  25
HETATM   25  C7  UNL     1     -12.780  54.585   1.874  1.00  0.00     0.121 A 
HETATM   26  C6  UNL     1     -12.875  53.451   0.988  1.00  0.00     0.031 A 
HETATM   27  C5  UNL     1     -13.002  52.197   1.475  1.00  0.00     0.018 A 
HETATM   28  C32 UNL     1     -12.888  53.628  -0.384  1.00  0.00     0.046 A 
HETATM   29  C4  UNL     1     -13.156  51.102   0.657  1.00  0.00     0.018 A 
HETATM   30  C3  UNL     1     -13.168  51.275  -0.729  1.00  0.00     0.034 A 
HETATM   31  C33 UNL     1     -13.039  52.519  -1.242  1.00  0.00     0.047 A 
HETATM   32  N7  UNL     1     -12.811  54.852  -0.887  1.00  0.00    -0.365 N 
HETATM   33  C31 UNL     1     -12.719  55.946  -0.115  1.00  0.00     0.091 A 
ATOM     34  H7  UNL     1     -12.822  54.967  -1.900  1.00  0.00     0.165 HD
HETATM   35  C30 UNL     1     -12.708  55.792   1.287  1.00  0.00     0.062 A 
BRANCH  30  36
HETATM   36  C2  UNL     1     -13.404  50.056  -1.527  1.00  0.00     0.251 C 
HETATM   37  N1  UNL     1     -14.274  50.175  -2.613  1.00  0.00    -0.361 N 
HETATM   38  C1  UNL     1     -14.527  49.086  -3.512  1.00  0.00     0.149 C 
ATOM     39  H1  UNL     1     -14.744  51.066  -2.772  1.00  0.00     0.162 HD
HETATM   40  O1  UNL     1     -12.865  48.962  -1.269  1.00  0.00    -0.268 OA
ENDBRANCH  30  36
ENDBRANCH  24  25
ENDBRANCH  21  24
ENDBRANCH  17  18
ENDBRANCH  15  17
ENDBRANCH   1  14
BRANCH  10  41
HETATM   41  N6  UNL     1     -12.871  60.266   6.720  1.00  0.00    -0.356 N 
HETATM   42  C21 UNL     1     -12.377  60.160   5.478  1.00  0.00     0.064 C 
ATOM     43  H6  UNL     1     -13.133  61.244   6.838  1.00  0.00     0.166 HD
BRANCH  42  44
HETATM   44  C22 UNL     1     -11.993  58.774   4.961  1.00  0.00     0.071 C 
BRANCH  44  45
HETATM   45  C23 UNL     1     -13.329  58.203   4.390  1.00  0.00     0.172 C 
BRANCH  45  46
HETATM   46  O3  UNL     1     -14.302  59.134   4.517  1.00  0.00    -0.396 OA
HETATM   47  C24 UNL     1     -15.313  59.038   3.633  1.00  0.00     0.201 C 
ENDBRANCH  45  46
ENDBRANCH  44  45
ENDBRANCH  42  44
ENDBRANCH  10  41
TORSDOF 10
ENDMDL
MODEL 2
REMARK VINA RESULT: -10.310526873      2.381     11.545
REMARK  10 active torsions:
REMARK  status: ('A' for Active; 'I' for Inactive)
REMARK       I    between atoms: N1_2  and  C2_4 
REMARK    1  A    between atoms: C2_4  and  C3_6 
REMARK    2  A    between atoms: C7_10  and  N2_11 
REMARK    3  A    between atoms: N2_11  and  C8_12 
REMARK    4  A    between atoms: C11_15  and  C12_16 
REMARK    5  A    between atoms: C12_16  and  N3_17 
REMARK       I    between atoms: N3_17  and  C13_18 
REMARK    6  A    between atoms: C13_18  and  C14_20 
REMARK    7  A    between atoms: C20_29  and  N6_30 
REMARK    8  A    between atoms: C21_32  and  C22_33 
REMARK    9  A    between atoms: C22_33  and  C23_34 
REMARK   10  A    between atoms: C23_34  and  O3_35 
ROOT
HETATM    1  C14 UNL     1     -12.959  52.881  -2.080  1.00  0.00     0.049 A 
HETATM    2  C15 UNL     1     -13.879  52.398  -3.033  1.00  0.00     0.041 A 
HETATM    3  C16 UNL     1     -14.262  51.068  -2.922  1.00  0.00     0.058 A 
HETATM    4  C17 UNL     1     -15.225  50.467  -3.766  1.00  0.00     0.100 C 
HETATM    5  N4  UNL     1     -16.028  50.004  -4.468  1.00  0.00    -0.191 NA
HETATM    6  C18 UNL     1     -13.720  50.291  -1.871  1.00  0.00     0.010 A 
HETATM    7  C19 UNL     1     -14.204  48.978  -1.663  1.00  0.00     0.103 A 
HETATM    8  N5  UNL     1     -13.784  48.261  -0.581  1.00  0.00    -0.351 N 
ATOM      9  H5  UNL     1     -14.155  47.320  -0.454  1.00  0.00     0.166 HD
HETATM   10  C20 UNL     1     -12.926  48.715   0.310  1.00  0.00     0.105 A 
HETATM   11  C25 UNL     1     -12.416  50.020   0.114  1.00  0.00     0.060 A 
HETATM   12  C26 UNL     1     -12.833  50.768  -0.971  1.00  0.00    -0.018 A 
HETATM   13  C27 UNL     1     -12.433  52.120  -1.090  1.00  0.00     0.030 A 
ENDROOT
BRANCH   1  14
HETATM   14  C13 UNL     1     -12.884  54.365  -2.154  1.00  0.00     0.325 C 
HETATM   15  N3  UNL     1     -12.735  55.154  -1.092  1.00  0.00    -0.378 NA
HETATM   16  O2  UNL     1     -12.943  54.738  -3.385  1.00  0.00    -0.251 OA
BRANCH  15  17
HETATM   17  C12 UNL     1     -12.580  55.996  -0.011  1.00  0.00     0.198 C 
BRANCH  17  18
HETATM   18  C11 UNL     1     -12.660  55.307   1.309  1.00  0.00    -0.007 A 
HETATM   19  C10 UNL     1     -13.435  55.987   2.259  1.00  0.00     0.017 A 
HETATM   20  C9  UNL     1     -13.530  55.506   3.536  1.00  0.00     0.045 A 
HETATM   21  C8  UNL     1     -12.876  54.337   3.953  1.00  0.00     0.107 A 
HETATM   22  C29 UNL     1     -12.143  53.710   2.981  1.00  0.00     0.045 A 
HETATM   23  C28 UNL     1     -12.026  54.170   1.684  1.00  0.00     0.017 A 
BRANCH  21  24
HETATM   24  N2  UNL     1     -12.858  53.991   5.239  1.00  0.00    -0.405 NA
BRANCH  24  25
HETATM   25  C7  UNL     1     -12.815  53.676   6.367  1.00  0.00     0.121 A 
HETATM   26  C6  UNL     1     -12.900  54.758   7.316  1.00  0.00     0.031 A 
HETATM   27  C5  UNL     1     -13.058  56.035   6.904  1.00  0.00     0.018 A 
HETATM   28  C32 UNL     1     -12.871  54.506   8.676  1.00  0.00     0.046 A 
HETATM   29  C4  UNL     1     -13.204  57.080   7.785  1.00  0.00     0.018 A 
HETATM   30  C3  UNL     1     -13.174  56.832   9.159  1.00  0.00     0.034 A 
HETATM   31  C33 UNL     1     -13.013  55.563   9.599  1.00  0.00     0.047 A 
HETATM   32  N7  UNL     1     -12.763  53.257   9.108  1.00  0.00    -0.365 N 
HETATM   33  C31 UNL     1     -12.678  52.209   8.274  1.00  0.00     0.091 A 
ATOM     34  H7  UNL     1     -12.743  53.086  10.113  1.00  0.00     0.165 HD
HETATM   35  C30 UNL     1     -12.709  52.440   6.883  1.00  0.00     0.062 A 
BRANCH  30  36
HETATM   36  C2  UNL     1     -13.404  58.001  10.030  1.00  0.00     0.251 C 
HETATM   37  N1  UNL     1     -13.819  57.738  11.337  1.00  0.00    -0.361 N 
HETATM   38  C1  UNL     1     -14.003  58.782  12.305  1.00  0.00     0.149 C 
ATOM     39  H1  UNL     1     -13.998  56.772  11.613  1.00  0.00     0.162 HD
HETATM   40  O1  UNL     1     -13.241  59.175   9.645  1.00  0.00    -0.268 OA
ENDBRANCH  30  36
ENDBRANCH  24  25
ENDBRANCH  21  24
ENDBRANCH  17  18
ENDBRANCH  15  17
ENDBRANCH   1  14
BRANCH  10  41
HETATM   41  N6  UNL     1     -12.639  48.125   1.377  1.00  0.00    -0.356 N 
HETATM   42  C21 UNL     1     -12.664  48.132   2.717  1.00  0.00     0.064 C 
ATOM     43  H6  UNL     1     -12.185  47.254   1.106  1.00  0.00     0.166 HD
BRANCH  42  44
HETATM   44  C22 UNL     1     -13.388  49.274   3.428  1.00  0.00     0.071 C 
BRANCH  44  45
HETATM   45  C23 UNL     1     -14.894  48.866   3.357  1.00  0.00     0.172 C 
BRANCH  45  46
HETATM   46  O3  UNL     1     -15.406  49.259   2.169  1.00  0.00    -0.396 OA
HETATM   47  C24 UNL     1     -16.416  48.504   1.697  1.00  0.00     0.201 C 
ENDBRANCH  45  46
ENDBRANCH  44  45
ENDBRANCH  42  44
ENDBRANCH  10  41
TORSDOF 10
ENDMDL
MODEL 3
REMARK VINA RESULT: -10.120443100      2.457      3.360
REMARK  10 active torsions:
REMARK  status: ('A' for Active; 'I' for Inactive)
REMARK       I    between atoms: N1_2  and  C2_4 
REMARK    1  A    between atoms: C2_4  and  C3_6 
REMARK    2  A    between atoms: C7_10  and  N2_11 
REMARK    3  A    between atoms: N2_11  and  C8_12 
REMARK    4  A    between atoms: C11_15  and  C12_16 
REMARK    5  A    between atoms: C12_16  and  N3_17 
REMARK       I    between atoms: N3_17  and  C13_18 
REMARK    6  A    between atoms: C13_18  and  C14_20 
REMARK    7  A    between atoms: C20_29  and  N6_30 
REMARK    8  A    between atoms: C21_32  and  C22_33 
REMARK    9  A    between atoms: C22_33  and  C23_34 
REMARK   10  A    between atoms: C23_34  and  O3_35 
ROOT
HETATM    1  C14 UNL     1     -14.452  58.247  10.720  1.00  0.00     0.049 A 
HETATM    2  C15 UNL     1     -15.247  59.364  11.049  1.00  0.00     0.041 A 
HETATM    3  C16 UNL     1     -15.241  60.427  10.157  1.00  0.00     0.058 A 
HETATM    4  C17 UNL     1     -16.039  61.583  10.325  1.00  0.00     0.100 C 
HETATM    5  N4  UNL     1     -16.717  62.516  10.484  1.00  0.00    -0.191 NA
HETATM    6  C18 UNL     1     -14.453  60.327   8.986  1.00  0.00     0.010 A 
HETATM    7  C19 UNL     1     -14.543  61.342   8.005  1.00  0.00     0.103 A 
HETATM    8  N5  UNL     1     -13.887  61.200   6.816  1.00  0.00    -0.351 N 
ATOM      9  H5  UNL     1     -13.976  61.945   6.126  1.00  0.00     0.166 HD
HETATM   10  C20 UNL     1     -13.146  60.154   6.509  1.00  0.00     0.105 A 
HETATM   11  C25 UNL     1     -13.028  59.134   7.482  1.00  0.00     0.060 A 
HETATM   12  C26 UNL     1     -13.690  59.253   8.690  1.00  0.00    -0.018 A 
HETATM   13  C27 UNL     1     -13.687  58.172   9.604  1.00  0.00     0.030 A 
ENDROOT
BRANCH   1  14
HETATM   14  C13 UNL     1     -14.795  57.102  11.604  1.00  0.00     0.325 C 
HETATM   15  N3  UNL     1     -14.429  55.844  11.364  1.00  0.00    -0.378 NA
HETATM   16  O2  UNL     1     -15.449  57.529  12.628  1.00  0.00    -0.251 OA
BRANCH  15  17
HETATM   17  C12 UNL     1     -14.064  54.533  11.143  1.00  0.00     0.198 C 
BRANCH  17  18
HETATM   18  C11 UNL     1     -13.976  54.165   9.700  1.00  0.00    -0.007 A 
HETATM   19  C10 UNL     1     -12.874  53.357   9.386  1.00  0.00     0.017 A 
HETATM   20  C9  UNL     1     -12.629  53.010   8.086  1.00  0.00     0.045 A 
HETATM   21  C8  UNL     1     -13.447  53.427   7.026  1.00  0.00     0.107 A 
HETATM   22  C29 UNL     1     -14.513  54.204   7.393  1.00  0.00     0.045 A 
HETATM   23  C28 UNL     1     -14.787  54.574   8.695  1.00  0.00     0.017 A 
BRANCH  21  24
HETATM   24  N2  UNL     1     -13.087  53.208   5.762  1.00  0.00    -0.405 NA
BRANCH  24  25
HETATM   25  C7  UNL     1     -12.756  53.039   4.651  1.00  0.00     0.121 A 
HETATM   26  C6  UNL     1     -13.308  51.872   4.009  1.00  0.00     0.031 A 
HETATM   27  C5  UNL     1     -14.177  51.066   4.659  1.00  0.00     0.018 A 
HETATM   28  C32 UNL     1     -12.997  51.578   2.694  1.00  0.00     0.046 A 
HETATM   29  C4  UNL     1     -14.767  49.981   4.054  1.00  0.00     0.018 A 
HETATM   30  C3  UNL     1     -14.455  49.679   2.727  1.00  0.00     0.034 A 
HETATM   31  C33 UNL     1     -13.585  50.467   2.055  1.00  0.00     0.047 A 
HETATM   32  N7  UNL     1     -12.183  52.378   2.018  1.00  0.00    -0.365 N 
HETATM   33  C31 UNL     1     -11.637  53.478   2.561  1.00  0.00     0.091 A 
ATOM     34  H7  UNL     1     -11.963  52.149   1.050  1.00  0.00     0.165 HD
HETATM   35  C30 UNL     1     -11.942  53.800   3.900  1.00  0.00     0.062 A 
BRANCH  30  36
HETATM   36  C2  UNL     1     -15.184  48.538   2.138  1.00  0.00     0.251 C 
HETATM   37  N1  UNL     1     -16.421  48.818   1.553  1.00  0.00    -0.361 N 
HETATM   38  C1  UNL     1     -17.192  47.813   0.879  1.00  0.00     0.149 C 
ATOM     39  H1  UNL     1     -16.787  49.769   1.606  1.00  0.00     0.162 HD
HETATM   40  O1  UNL     1     -14.740  47.374   2.147  1.00  0.00    -0.268 OA
ENDBRANCH  30  36
ENDBRANCH  24  25
ENDBRANCH  21  24
ENDBRANCH  17  18
ENDBRANCH  15  17
ENDBRANCH   1  14
BRANCH  10  41
HETATM   41  N6  UNL     1     -12.655  59.947   5.377  1.00  0.00    -0.356 N 
HETATM   42  C21 UNL     1     -12.868  59.741   4.069  1.00  0.00     0.064 C 
ATOM     43  H6  UNL     1     -11.643  59.924   5.506  1.00  0.00     0.166 HD
BRANCH  42  44
HETATM   44  C22 UNL     1     -14.299  59.827   3.541  1.00  0.00     0.071 C 
BRANCH  44  45
HETATM   45  C23 UNL     1     -14.714  58.335   3.338  1.00  0.00     0.172 C 
BRANCH  45  46
HETATM   46  O3  UNL     1     -14.790  57.726   4.543  1.00  0.00    -0.396 OA
HETATM   47  C24 UNL     1     -14.246  56.496   4.604  1.00  0.00     0.201 C 
ENDBRANCH  45  46
ENDBRANCH  44  45
ENDBRANCH  42  44
ENDBRANCH  10  41
TORSDOF 10
ENDMDL
MODEL 4
REMARK VINA RESULT: -10.072491716      2.501     11.355
REMARK  10 active torsions:
REMARK  status: ('A' for Active; 'I' for Inactive)
REMARK       I    between atoms: N1_2  and  C2_4 
REMARK    1  A    between atoms: C2_4  and  C3_6 
REMARK    2  A    between atoms: C7_10  and  N2_11 
REMARK    3  A    between atoms: N2_11  and  C8_12 
REMARK    4  A    between atoms: C11_15  and  C12_16 
REMARK    5  A    between atoms: C12_16  and  N3_17 
REMARK       I    between atoms: N3_17  and  C13_18 
REMARK    6  A    between atoms: C13_18  and  C14_20 
REMARK    7  A    between atoms: C20_29  and  N6_30 
REMARK    8  A    between atoms: C21_32  and  C22_33 
REMARK    9  A    between atoms: C22_33  and  C23_34 
REMARK   10  A    between atoms: C23_34  and  O3_35 
ROOT
HETATM    1  C14 UNL     1     -12.799  51.330  -1.630  1.00  0.00     0.049 A 
HETATM    2  C15 UNL     1     -13.508  50.533  -2.551  1.00  0.00     0.041 A 
HETATM    3  C16 UNL     1     -14.001  49.321  -2.087  1.00  0.00     0.058 A 
HETATM    4  C17 UNL     1     -14.786  48.450  -2.880  1.00  0.00     0.100 C 
HETATM    5  N4  UNL     1     -15.438  47.761  -3.552  1.00  0.00    -0.191 NA
HETATM    6  C18 UNL     1     -13.771  48.966  -0.737  1.00  0.00     0.010 A 
HETATM    7  C19 UNL     1     -14.382  47.802  -0.216  1.00  0.00     0.103 A 
HETATM    8  N5  UNL     1     -14.274  47.513   1.114  1.00  0.00    -0.351 N 
ATOM      9  H5  UNL     1     -14.731  46.671   1.461  1.00  0.00     0.166 HD
HETATM   10  C20 UNL     1     -13.612  48.261   1.973  1.00  0.00     0.105 A 
HETATM   11  C25 UNL     1     -12.978  49.422   1.472  1.00  0.00     0.060 A 
HETATM   12  C26 UNL     1     -13.081  49.738   0.130  1.00  0.00    -0.018 A 
HETATM   13  C27 UNL     1     -12.569  50.969  -0.344  1.00  0.00     0.030 A 
ENDROOT
BRANCH   1  14
HETATM   14  C13 UNL     1     -12.602  52.696  -2.186  1.00  0.00     0.325 C 
HETATM   15  N3  UNL     1     -13.138  53.795  -1.660  1.00  0.00    -0.378 NA
HETATM   16  O2  UNL     1     -11.816  52.637  -3.205  1.00  0.00    -0.251 OA
BRANCH  15  17
HETATM   17  C12 UNL     1     -13.679  54.951  -1.137  1.00  0.00     0.198 C 
BRANCH  17  18
HETATM   18  C11 UNL     1     -13.763  54.960   0.352  1.00  0.00    -0.007 A 
HETATM   19  C10 UNL     1     -12.947  55.924   0.960  1.00  0.00     0.017 A 
HETATM   20  C9  UNL     1     -12.868  55.990   2.325  1.00  0.00     0.045 A 
HETATM   21  C8  UNL     1     -13.581  55.123   3.165  1.00  0.00     0.107 A 
HETATM   22  C29 UNL     1     -14.368  54.210   2.516  1.00  0.00     0.045 A 
HETATM   23  C28 UNL     1     -14.469  54.116   1.142  1.00  0.00     0.017 A 
BRANCH  21  24
HETATM   24  N2  UNL     1     -13.354  55.110   4.478  1.00  0.00    -0.405 NA
BRANCH  24  25
HETATM   25  C7  UNL     1     -13.175  55.117   5.636  1.00  0.00     0.121 A 
HETATM   26  C6  UNL     1     -13.358  56.392   6.284  1.00  0.00     0.031 A 
HETATM   27  C5  UNL     1     -13.747  57.480   5.583  1.00  0.00     0.018 A 
HETATM   28  C32 UNL     1     -13.185  56.519   7.651  1.00  0.00     0.046 A 
HETATM   29  C4  UNL     1     -13.989  58.694   6.182  1.00  0.00     0.018 A 
HETATM   30  C3  UNL     1     -13.814  58.827   7.561  1.00  0.00     0.034 A 
HETATM   31  C33 UNL     1     -13.421  57.755   8.286  1.00  0.00     0.047 A 
HETATM   32  N7  UNL     1     -12.848  55.457   8.370  1.00  0.00    -0.365 N 
HETATM   33  C31 UNL     1     -12.662  54.245   7.824  1.00  0.00     0.091 A 
ATOM     34  H7  UNL     1     -12.724  55.565   9.376  1.00  0.00     0.165 HD
HETATM   35  C30 UNL     1     -12.835  54.090   6.432  1.00  0.00     0.062 A 
BRANCH  30  36
HETATM   36  C2  UNL     1     -14.160  60.146   8.128  1.00  0.00     0.251 C 
HETATM   37  N1  UNL     1     -15.194  60.174   9.066  1.00  0.00    -0.361 N 
HETATM   38  C1  UNL     1     -15.574  61.378   9.748  1.00  0.00     0.149 C 
ATOM     39  H1  UNL     1     -15.695  59.310   9.273  1.00  0.00     0.162 HD
HETATM   40  O1  UNL     1     -13.572  61.197   7.807  1.00  0.00    -0.268 OA
ENDBRANCH  30  36
ENDBRANCH  24  25
ENDBRANCH  21  24
ENDBRANCH  17  18
ENDBRANCH  15  17
ENDBRANCH   1  14
BRANCH  10  41
HETATM   41  N6  UNL     1     -13.620  48.084   3.213  1.00  0.00    -0.356 N 
HETATM   42  C21 UNL     1     -14.104  48.453   4.407  1.00  0.00     0.064 C 
ATOM     43  H6  UNL     1     -12.969  47.320   3.395  1.00  0.00     0.166 HD
BRANCH  42  44
HETATM   44  C22 UNL     1     -15.198  49.519   4.453  1.00  0.00     0.071 C 
BRANCH  44  45
HETATM   45  C23 UNL     1     -14.412  50.856   4.634  1.00  0.00     0.172 C 
BRANCH  45  46
HETATM   46  O3  UNL     1     -13.084  50.599   4.611  1.00  0.00    -0.396 OA
HETATM   47  C24 UNL     1     -12.321  51.549   4.041  1.00  0.00     0.201 C 
ENDBRANCH  45  46
ENDBRANCH  44  45
ENDBRANCH  42  44
ENDBRANCH  10  41
TORSDOF 10
ENDMDL
MODEL 5
REMARK VINA RESULT: -10.067612144      3.238     11.188
REMARK  10 active torsions:
REMARK  status: ('A' for Active; 'I' for Inactive)
REMARK       I    between atoms: N1_2  and  C2_4 
REMARK    1  A    between atoms: C2_4  and  C3_6 
REMARK    2  A    between atoms: C7_10  and  N2_11 
REMARK    3  A    between atoms: N2_11  and  C8_12 
REMARK    4  A    between atoms: C11_15  and  C12_16 
REMARK    5  A    between atoms: C12_16  and  N3_17 
REMARK       I    between atoms: N3_17  and  C13_18 
REMARK    6  A    between atoms: C13_18  and  C14_20 
REMARK    7  A    between atoms: C20_29  and  N6_30 
REMARK    8  A    between atoms: C21_32  and  C22_33 
REMARK    9  A    between atoms: C22_33  and  C23_34 
REMARK   10  A    between atoms: C23_34  and  O3_35 
ROOT
HETATM    1  C14 UNL     1     -14.241  50.055  -2.502  1.00  0.00     0.049 A 
HETATM    2  C15 UNL     1     -14.963  48.888  -2.824  1.00  0.00     0.041 A 
HETATM    3  C16 UNL     1     -15.018  47.893  -1.858  1.00  0.00     0.058 A 
HETATM    4  C17 UNL     1     -15.759  46.699  -2.018  1.00  0.00     0.100 C 
HETATM    5  N4  UNL     1     -16.388  45.732  -2.174  1.00  0.00    -0.191 NA
HETATM    6  C18 UNL     1     -14.362  48.109  -0.623  1.00  0.00     0.010 A 
HETATM    7  C19 UNL     1     -14.523  47.166   0.418  1.00  0.00     0.103 A 
HETATM    8  N5  UNL     1     -14.001  47.419   1.654  1.00  0.00    -0.351 N 
ATOM      9  H5  UNL     1     -14.140  46.724   2.386  1.00  0.00     0.166 HD
HETATM   10  C20 UNL     1     -13.328  48.512   1.954  1.00  0.00     0.105 A 
HETATM   11  C25 UNL     1     -13.140  49.462   0.924  1.00  0.00     0.060 A 
HETATM   12  C26 UNL     1     -13.667  49.230  -0.334  1.00  0.00    -0.018 A 
HETATM   13  C27 UNL     1     -13.600  50.241  -1.322  1.00  0.00     0.030 A 
ENDROOT
BRANCH   1  14
HETATM   14  C13 UNL     1     -14.524  51.120  -3.502  1.00  0.00     0.325 C 
HETATM   15  N3  UNL     1     -14.355  52.420  -3.269  1.00  0.00    -0.378 NA
HETATM   16  O2  UNL     1     -14.907  50.581  -4.607  1.00  0.00    -0.251 OA
BRANCH  15  17
HETATM   17  C12 UNL     1     -14.189  53.772  -3.057  1.00  0.00     0.198 C 
BRANCH  17  18
HETATM   18  C11 UNL     1     -14.062  54.149  -1.620  1.00  0.00    -0.007 A 
HETATM   19  C10 UNL     1     -12.952  54.958  -1.341  1.00  0.00     0.017 A 
HETATM   20  C9  UNL     1     -12.672  55.313  -0.050  1.00  0.00     0.045 A 
HETATM   21  C8  UNL     1     -13.461  54.901   1.035  1.00  0.00     0.107 A 
HETATM   22  C29 UNL     1     -14.536  54.122   0.701  1.00  0.00     0.045 A 
HETATM   23  C28 UNL     1     -14.845  53.744  -0.591  1.00  0.00     0.017 A 
BRANCH  21  24
HETATM   24  N2  UNL     1     -13.066  55.129   2.287  1.00  0.00    -0.405 NA
BRANCH  24  25
HETATM   25  C7  UNL     1     -12.696  55.312   3.383  1.00  0.00     0.121 A 
HETATM   26  C6  UNL     1     -13.276  56.452   4.051  1.00  0.00     0.031 A 
HETATM   27  C5  UNL     1     -14.209  57.215   3.441  1.00  0.00     0.018 A 
HETATM   28  C32 UNL     1     -12.922  56.759   5.352  1.00  0.00     0.046 A 
HETATM   29  C4  UNL     1     -14.823  58.271   4.073  1.00  0.00     0.018 A 
HETATM   30  C3  UNL     1     -14.469  58.587   5.387  1.00  0.00     0.034 A 
HETATM   31  C33 UNL     1     -13.535  57.841   6.019  1.00  0.00     0.047 A 
HETATM   32  N7  UNL     1     -12.043  55.999   5.990  1.00  0.00    -0.365 N 
HETATM   33  C31 UNL     1     -11.469  54.927   5.422  1.00  0.00     0.091 A 
ATOM     34  H7  UNL     1     -11.793  56.238   6.949  1.00  0.00     0.165 HD
HETATM   35  C30 UNL     1     -11.815  54.591   4.096  1.00  0.00     0.062 A 
BRANCH  30  36
HETATM   36  C2  UNL     1     -15.226  59.692   6.008  1.00  0.00     0.251 C 
HETATM   37  N1  UNL     1     -16.550  59.424   6.363  1.00  0.00    -0.361 N 
HETATM   38  C1  UNL     1     -17.368  60.387   7.043  1.00  0.00     0.149 C 
ATOM     39  H1  UNL     1     -16.949  58.514   6.130  1.00  0.00     0.162 HD
HETATM   40  O1  UNL     1     -14.732  60.816   6.222  1.00  0.00    -0.268 OA
ENDBRANCH  30  36
ENDBRANCH  24  25
ENDBRANCH  21  24
ENDBRANCH  17  18
ENDBRANCH  15  17
ENDBRANCH   1  14
BRANCH  10  41
HETATM   41  N6  UNL     1     -12.965  48.820   3.112  1.00  0.00    -0.356 N 
HETATM   42  C21 UNL     1     -13.209  49.524   4.226  1.00  0.00     0.064 C 
ATOM     43  H6  UNL     1     -12.100  48.309   3.284  1.00  0.00     0.166 HD
BRANCH  42  44
HETATM   44  C22 UNL     1     -14.511  50.319   4.316  1.00  0.00     0.071 C 
BRANCH  44  45
HETATM   45  C23 UNL     1     -14.135  51.722   3.743  1.00  0.00     0.172 C 
BRANCH  45  46
HETATM   46  O3  UNL     1     -14.839  52.674   4.396  1.00  0.00    -0.396 OA
HETATM   47  C24 UNL     1     -14.479  52.883   5.676  1.00  0.00     0.201 C 
ENDBRANCH  45  46
ENDBRANCH  44  45
ENDBRANCH  42  44
ENDBRANCH  10  41
TORSDOF 10
ENDMDL
