MODEL 1
REMARK VINA RESULT: -9.613662501      0.000      0.000
REMARK  10 active torsions:
REMARK  status: ('A' for Active; 'I' for Inactive)
REMARK    1  A    between atoms: N1_1  and  S1_4 
REMARK    2  A    between atoms: S1_4  and  N2_7 
REMARK    3  A    between atoms: N2_7  and  C1_9 
REMARK    4  A    between atoms: C1_9  and  C2_10 
REMARK    5  A    between atoms: C5_13  and  C6_14 
REMARK    6  A    between atoms: C6_14  and  N3_15 
REMARK       I    between atoms: N3_15  and  C7_17 
REMARK    7  A    between atoms: C7_17  and  C8_19 
REMARK    8  A    between atoms: C12_25  and  C13_26 
REMARK    9  A    between atoms: C17_30  and  C18_31 
REMARK   10  A    between atoms: C18_31  and  N5_32 
ROOT
HETATM    1  C8  UNL     1     -13.789  49.558   1.069  1.00  0.00     0.033 A 
HETATM    2  C9  UNL     1     -13.239  50.741   0.630  1.00  0.00     0.019 A 
HETATM    3  C10 UNL     1     -12.973  51.803   1.505  1.00  0.00     0.031 A 
HETATM    4  C11 UNL     1     -13.255  51.702   2.848  1.00  0.00     0.043 A 
HETATM    5  N4  UNL     1     -13.103  52.547   3.884  1.00  0.00    -0.354 N 
ATOM      6  H4  UNL     1     -12.716  53.488   3.813  1.00  0.00     0.166 HD
HETATM    7  C12 UNL     1     -13.533  51.980   5.022  1.00  0.00     0.060 A 
HETATM    8  C26 UNL     1     -13.971  50.725   4.667  1.00  0.00     0.045 A 
HETATM    9  C27 UNL     1     -13.804  50.531   3.307  1.00  0.00    -0.006 A 
HETATM   10  C28 UNL     1     -14.061  49.494   2.442  1.00  0.00     0.030 A 
ENDROOT
BRANCH   1  11
HETATM   11  C7  UNL     1     -14.082  48.433   0.202  1.00  0.00     0.251 C 
HETATM   12  N3  UNL     1     -15.163  48.473  -0.708  1.00  0.00    -0.353 N 
ATOM     13  H3  UNL     1     -15.741  49.312  -0.748  1.00  0.00     0.163 HD
HETATM   14  O3  UNL     1     -13.372  47.402   0.251  1.00  0.00    -0.268 OA
BRANCH  12  15
HETATM   15  C6  UNL     1     -15.477  47.361  -1.588  1.00  0.00     0.161 C 
BRANCH  15  16
HETATM   16  C5  UNL     1     -15.665  47.843  -2.959  1.00  0.00    -0.041 A 
HETATM   17  C4  UNL     1     -15.425  49.196  -3.191  1.00  0.00     0.009 A 
HETATM   18  C3  UNL     1     -15.590  49.671  -4.477  1.00  0.00     0.009 A 
HETATM   19  C2  UNL     1     -15.979  48.863  -5.520  1.00  0.00    -0.040 A 
HETATM   20  C30 UNL     1     -16.205  47.544  -5.259  1.00  0.00     0.009 A 
HETATM   21  C29 UNL     1     -16.051  47.021  -3.982  1.00  0.00     0.009 A 
BRANCH  19  22
HETATM   22  C1  UNL     1     -16.138  49.448  -6.895  1.00  0.00     0.172 C 
BRANCH  22  23
HETATM   23  N2  UNL     1     -14.936  50.224  -7.143  1.00  0.00    -0.299 N 
ATOM     24  H2  UNL     1     -14.861  51.222  -6.943  1.00  0.00     0.174 HD
BRANCH  23  25
HETATM   25  S1  UNL     1     -13.661  49.298  -7.801  1.00  0.00     0.313 S 
HETATM   26  O1  UNL     1     -14.132  47.948  -8.282  1.00  0.00    -0.183 OA
HETATM   27  O2  UNL     1     -13.025  50.081  -8.916  1.00  0.00    -0.183 OA
BRANCH  25  28
HETATM   28  N1  UNL     1     -12.495  49.032  -6.535  1.00  0.00    -0.312 N 
ATOM     29  H12 UNL     1     -11.555  48.660  -6.668  1.00  0.00     0.170 HD
ATOM     30  H11 UNL     1     -12.924  49.316  -5.654  1.00  0.00     0.170 HD
ENDBRANCH  25  28
ENDBRANCH  23  25
ENDBRANCH  22  23
ENDBRANCH  19  22
ENDBRANCH  15  16
ENDBRANCH  12  15
ENDBRANCH   1  11
BRANCH   7  31
HETATM   31  C13 UNL     1     -13.523  52.595   6.343  1.00  0.00     0.060 A 
HETATM   32  C14 UNL     1     -14.341  53.643   6.748  1.00  0.00     0.045 A 
HETATM   33  C15 UNL     1     -14.058  53.964   8.056  1.00  0.00    -0.007 A 
HETATM   34  C16 UNL     1     -14.551  54.899   8.936  1.00  0.00     0.022 A 
HETATM   35  C25 UNL     1     -13.057  53.099   8.446  1.00  0.00     0.043 A 
HETATM   36  C17 UNL     1     -14.076  55.014  10.231  1.00  0.00    -0.029 A 
HETATM   37  C23 UNL     1     -13.078  54.145  10.604  1.00  0.00     0.011 A 
HETATM   38  C24 UNL     1     -12.564  53.191   9.735  1.00  0.00     0.031 A 
HETATM   39  N6  UNL     1     -12.753  52.286   7.400  1.00  0.00    -0.354 N 
ATOM     40  H6  UNL     1     -12.046  51.552   7.415  1.00  0.00     0.166 HD
BRANCH  36  41
HETATM   41  C18 UNL     1     -14.600  56.014  11.162  1.00  0.00     0.311 C 
BRANCH  41  42
HETATM   42  N5  UNL     1     -13.848  57.220  11.278  1.00  0.00     0.096 N 
HETATM   43  C19 UNL     1     -12.978  57.533  10.196  1.00  0.00     0.299 C 
HETATM   44  C20 UNL     1     -13.574  58.531   9.225  1.00  0.00     0.198 C 
HETATM   45  O4  UNL     1     -13.847  59.749   9.839  1.00  0.00    -0.388 OA
HETATM   46  C21 UNL     1     -14.207  59.629  11.160  1.00  0.00     0.198 C 
HETATM   47  C22 UNL     1     -14.818  58.302  11.507  1.00  0.00     0.299 C 
ENDBRANCH  41  42
ENDBRANCH  36  41
ENDBRANCH   7  31
TORSDOF 10
ENDMDL
MODEL 2
REMARK VINA RESULT: -9.372560170      3.348      4.728
REMARK  10 active torsions:
REMARK  status: ('A' for Active; 'I' for Inactive)
REMARK    1  A    between atoms: N1_1  and  S1_4 
REMARK    2  A    between atoms: S1_4  and  N2_7 
REMARK    3  A    between atoms: N2_7  and  C1_9 
REMARK    4  A    between atoms: C1_9  and  C2_10 
REMARK    5  A    between atoms: C5_13  and  C6_14 
REMARK    6  A    between atoms: C6_14  and  N3_15 
REMARK       I    between atoms: N3_15  and  C7_17 
REMARK    7  A    between atoms: C7_17  and  C8_19 
REMARK    8  A    between atoms: C12_25  and  C13_26 
REMARK    9  A    between atoms: C17_30  and  C18_31 
REMARK   10  A    between atoms: C18_31  and  N5_32 
ROOT
HETATM    1  C8  UNL     1     -12.643  53.830  -0.798  1.00  0.00     0.033 A 
HETATM    2  C9  UNL     1     -12.639  55.202  -0.895  1.00  0.00     0.019 A 
HETATM    3  C10 UNL     1     -12.670  56.025   0.239  1.00  0.00     0.031 A 
HETATM    4  C11 UNL     1     -12.707  55.485   1.505  1.00  0.00     0.043 A 
HETATM    5  N4  UNL     1     -12.740  56.031   2.734  1.00  0.00    -0.354 N 
ATOM      6  H4  UNL     1     -12.744  57.033   2.925  1.00  0.00     0.166 HD
HETATM    7  C12 UNL     1     -12.768  55.073   3.674  1.00  0.00     0.060 A 
HETATM    8  C26 UNL     1     -12.751  53.881   2.988  1.00  0.00     0.045 A 
HETATM    9  C27 UNL     1     -12.711  54.118   1.625  1.00  0.00    -0.006 A 
HETATM   10  C28 UNL     1     -12.681  53.319   0.507  1.00  0.00     0.030 A 
ENDROOT
BRANCH   1  11
HETATM   11  C7  UNL     1     -12.612  52.939  -1.942  1.00  0.00     0.251 C 
HETATM   12  N3  UNL     1     -13.392  51.760  -1.971  1.00  0.00    -0.353 N 
ATOM     13  H3  UNL     1     -13.983  51.541  -1.169  1.00  0.00     0.163 HD
HETATM   14  O3  UNL     1     -11.887  53.207  -2.926  1.00  0.00    -0.268 OA
BRANCH  12  15
HETATM   15  C6  UNL     1     -13.382  50.851  -3.105  1.00  0.00     0.161 C 
BRANCH  15  16
HETATM   16  C5  UNL     1     -14.375  49.793  -2.909  1.00  0.00    -0.041 A 
HETATM   17  C4  UNL     1     -14.171  48.924  -1.837  1.00  0.00     0.009 A 
HETATM   18  C3  UNL     1     -15.098  47.922  -1.631  1.00  0.00     0.009 A 
HETATM   19  C2  UNL     1     -16.200  47.756  -2.437  1.00  0.00    -0.040 A 
HETATM   20  C30 UNL     1     -16.370  48.622  -3.476  1.00  0.00     0.009 A 
HETATM   21  C29 UNL     1     -15.465  49.645  -3.722  1.00  0.00     0.009 A 
BRANCH  19  22
HETATM   22  C1  UNL     1     -17.169  46.644  -2.152  1.00  0.00     0.172 C 
BRANCH  22  23
HETATM   23  N2  UNL     1     -18.292  47.256  -1.462  1.00  0.00    -0.299 N 
ATOM     24  H2  UNL     1     -18.997  47.824  -1.932  1.00  0.00     0.174 HD
BRANCH  23  25
HETATM   25  S1  UNL     1     -18.309  46.928   0.213  1.00  0.00     0.313 S 
HETATM   26  O1  UNL     1     -19.709  46.708   0.733  1.00  0.00    -0.183 OA
HETATM   27  O2  UNL     1     -17.438  45.731   0.477  1.00  0.00    -0.183 OA
BRANCH  25  28
HETATM   28  N1  UNL     1     -17.653  48.319   1.029  1.00  0.00    -0.312 N 
ATOM     29  H12 UNL     1     -18.077  49.246   1.049  1.00  0.00     0.170 HD
ATOM     30  H11 UNL     1     -16.781  48.034   1.475  1.00  0.00     0.170 HD
ENDBRANCH  25  28
ENDBRANCH  23  25
ENDBRANCH  22  23
ENDBRANCH  19  22
ENDBRANCH  15  16
ENDBRANCH  12  15
ENDBRANCH   1  11
BRANCH   7  31
HETATM   31  C13 UNL     1     -12.806  55.286   5.115  1.00  0.00     0.060 A 
HETATM   32  C14 UNL     1     -12.980  56.514   5.741  1.00  0.00     0.045 A 
HETATM   33  C15 UNL     1     -12.963  56.338   7.106  1.00  0.00    -0.007 A 
HETATM   34  C16 UNL     1     -13.087  57.189   8.179  1.00  0.00     0.022 A 
HETATM   35  C25 UNL     1     -12.777  54.986   7.307  1.00  0.00     0.043 A 
HETATM   36  C17 UNL     1     -13.031  56.740   9.487  1.00  0.00    -0.029 A 
HETATM   37  C23 UNL     1     -12.845  55.390   9.670  1.00  0.00     0.011 A 
HETATM   38  C24 UNL     1     -12.718  54.509   8.603  1.00  0.00     0.031 A 
HETATM   39  N6  UNL     1     -12.685  54.376   6.096  1.00  0.00    -0.354 N 
ATOM     40  H6  UNL     1     -12.546  53.376   5.953  1.00  0.00     0.166 HD
BRANCH  36  41
HETATM   41  C18 UNL     1     -13.158  57.651  10.625  1.00  0.00     0.311 C 
BRANCH  41  42
HETATM   42  N5  UNL     1     -14.453  58.206  10.845  1.00  0.00     0.096 N 
HETATM   43  C19 UNL     1     -15.195  57.674  11.936  1.00  0.00     0.299 C 
HETATM   44  C20 UNL     1     -15.113  58.528  13.184  1.00  0.00     0.198 C 
HETATM   45  O4  UNL     1     -15.634  59.801  12.974  1.00  0.00    -0.388 OA
HETATM   46  C21 UNL     1     -15.452  60.263  11.691  1.00  0.00     0.198 C 
HETATM   47  C22 UNL     1     -14.271  59.659  10.988  1.00  0.00     0.299 C 
ENDBRANCH  41  42
ENDBRANCH  36  41
ENDBRANCH   7  31
TORSDOF 10
ENDMDL
MODEL 3
REMARK VINA RESULT: -9.369869008      4.146     14.282
REMARK  10 active torsions:
REMARK  status: ('A' for Active; 'I' for Inactive)
REMARK    1  A    between atoms: N1_1  and  S1_4 
REMARK    2  A    between atoms: S1_4  and  N2_7 
REMARK    3  A    between atoms: N2_7  and  C1_9 
REMARK    4  A    between atoms: C1_9  and  C2_10 
REMARK    5  A    between atoms: C5_13  and  C6_14 
REMARK    6  A    between atoms: C6_14  and  N3_15 
REMARK       I    between atoms: N3_15  and  C7_17 
REMARK    7  A    between atoms: C7_17  and  C8_19 
REMARK    8  A    between atoms: C12_25  and  C13_26 
REMARK    9  A    between atoms: C17_30  and  C18_31 
REMARK   10  A    between atoms: C18_31  and  N5_32 
ROOT
HETATM    1  C8  UNL     1     -12.647  54.455   8.859  1.00  0.00     0.033 A 
HETATM    2  C9  UNL     1     -12.613  53.082   8.950  1.00  0.00     0.019 A 
HETATM    3  C10 UNL     1     -12.629  52.264   7.812  1.00  0.00     0.031 A 
HETATM    4  C11 UNL     1     -12.680  52.808   6.549  1.00  0.00     0.043 A 
HETATM    5  N4  UNL     1     -12.704  52.268   5.317  1.00  0.00    -0.354 N 
ATOM      6  H4  UNL     1     -12.688  51.266   5.122  1.00  0.00     0.166 HD
HETATM    7  C12 UNL     1     -12.753  53.229   4.381  1.00  0.00     0.060 A 
HETATM    8  C26 UNL     1     -12.760  54.418   5.073  1.00  0.00     0.045 A 
HETATM    9  C27 UNL     1     -12.713  54.176   6.435  1.00  0.00    -0.006 A 
HETATM   10  C28 UNL     1     -12.698  54.970   7.556  1.00  0.00     0.030 A 
ENDROOT
BRANCH   1  11
HETATM   11  C7  UNL     1     -12.632  55.342  10.006  1.00  0.00     0.251 C 
HETATM   12  N3  UNL     1     -13.424  56.512  10.035  1.00  0.00    -0.353 N 
ATOM     13  H3  UNL     1     -14.011  56.729   9.230  1.00  0.00     0.163 HD
HETATM   14  O3  UNL     1     -11.911  55.076  10.995  1.00  0.00    -0.268 OA
BRANCH  12  15
HETATM   15  C6  UNL     1     -13.430  57.417  11.172  1.00  0.00     0.161 C 
BRANCH  15  16
HETATM   16  C5  UNL     1     -14.428  58.469  10.972  1.00  0.00    -0.041 A 
HETATM   17  C4  UNL     1     -14.215  59.350   9.912  1.00  0.00     0.009 A 
HETATM   18  C3  UNL     1     -15.147  60.346   9.701  1.00  0.00     0.009 A 
HETATM   19  C2  UNL     1     -16.263  60.496  10.492  1.00  0.00    -0.040 A 
HETATM   20  C30 UNL     1     -16.441  59.619  11.520  1.00  0.00     0.009 A 
HETATM   21  C29 UNL     1     -15.531  58.600  11.770  1.00  0.00     0.009 A 
BRANCH  19  22
HETATM   22  C1  UNL     1     -17.236  61.604  10.204  1.00  0.00     0.172 C 
BRANCH  22  23
HETATM   23  N2  UNL     1     -18.303  61.006   9.419  1.00  0.00    -0.299 N 
ATOM     24  H2  UNL     1     -19.049  60.440   9.824  1.00  0.00     0.174 HD
BRANCH  23  25
HETATM   25  S1  UNL     1     -18.181  61.347   7.751  1.00  0.00     0.313 S 
HETATM   26  O1  UNL     1     -19.514  61.721   7.149  1.00  0.00    -0.183 OA
HETATM   27  O2  UNL     1     -17.171  62.445   7.558  1.00  0.00    -0.183 OA
BRANCH  25  28
HETATM   28  N1  UNL     1     -17.629  59.900   6.956  1.00  0.00    -0.312 N 
ATOM     29  H12 UNL     1     -18.230  59.179   6.558  1.00  0.00     0.170 HD
ATOM     30  H11 UNL     1     -16.608  59.911   6.965  1.00  0.00     0.170 HD
ENDBRANCH  25  28
ENDBRANCH  23  25
ENDBRANCH  22  23
ENDBRANCH  19  22
ENDBRANCH  15  16
ENDBRANCH  12  15
ENDBRANCH   1  11
BRANCH   7  31
HETATM   31  C13 UNL     1     -12.790  53.021   2.940  1.00  0.00     0.060 A 
HETATM   32  C14 UNL     1     -12.982  51.799   2.309  1.00  0.00     0.045 A 
HETATM   33  C15 UNL     1     -12.958  51.979   0.944  1.00  0.00    -0.007 A 
HETATM   34  C16 UNL     1     -13.092  51.134  -0.132  1.00  0.00     0.022 A 
HETATM   35  C25 UNL     1     -12.748  53.328   0.749  1.00  0.00     0.043 A 
HETATM   36  C17 UNL     1     -13.024  51.587  -1.438  1.00  0.00    -0.029 A 
HETATM   37  C23 UNL     1     -12.813  52.934  -1.616  1.00  0.00     0.011 A 
HETATM   38  C24 UNL     1     -12.675  53.809  -0.545  1.00  0.00     0.031 A 
HETATM   39  N6  UNL     1     -12.649  53.933   1.962  1.00  0.00    -0.354 N 
ATOM     40  H6  UNL     1     -12.493  54.929   2.109  1.00  0.00     0.166 HD
BRANCH  36  41
HETATM   41  C18 UNL     1     -13.162  50.682  -2.579  1.00  0.00     0.311 C 
BRANCH  41  42
HETATM   42  N5  UNL     1     -14.461  50.136  -2.796  1.00  0.00     0.096 N 
HETATM   43  C19 UNL     1     -15.181  50.636  -3.918  1.00  0.00     0.299 C 
HETATM   44  C20 UNL     1     -15.094  49.732  -5.130  1.00  0.00     0.198 C 
HETATM   45  O4  UNL     1     -15.637  48.475  -4.877  1.00  0.00    -0.388 OA
HETATM   46  C21 UNL     1     -15.478  48.062  -3.576  1.00  0.00     0.198 C 
HETATM   47  C22 UNL     1     -14.299  48.677  -2.880  1.00  0.00     0.299 C 
ENDBRANCH  41  42
ENDBRANCH  36  41
ENDBRANCH   7  31
TORSDOF 10
ENDMDL
MODEL 4
REMARK VINA RESULT: -9.322235177      2.271      2.777
REMARK  10 active torsions:
REMARK  status: ('A' for Active; 'I' for Inactive)
REMARK    1  A    between atoms: N1_1  and  S1_4 
REMARK    2  A    between atoms: S1_4  and  N2_7 
REMARK    3  A    between atoms: N2_7  and  C1_9 
REMARK    4  A    between atoms: C1_9  and  C2_10 
REMARK    5  A    between atoms: C5_13  and  C6_14 
REMARK    6  A    between atoms: C6_14  and  N3_15 
REMARK       I    between atoms: N3_15  and  C7_17 
REMARK    7  A    between atoms: C7_17  and  C8_19 
REMARK    8  A    between atoms: C12_25  and  C13_26 
REMARK    9  A    between atoms: C17_30  and  C18_31 
REMARK   10  A    between atoms: C18_31  and  N5_32 
ROOT
HETATM    1  C8  UNL     1     -12.967  50.504   0.128  1.00  0.00     0.033 A 
HETATM    2  C9  UNL     1     -12.621  49.338   0.772  1.00  0.00     0.019 A 
HETATM    3  C10 UNL     1     -12.532  49.261   2.167  1.00  0.00     0.031 A 
HETATM    4  C11 UNL     1     -12.789  50.359   2.956  1.00  0.00     0.043 A 
HETATM    5  N4  UNL     1     -12.779  50.556   4.287  1.00  0.00    -0.354 N 
ATOM      6  H4  UNL     1     -12.552  49.841   4.978  1.00  0.00     0.166 HD
HETATM    7  C12 UNL     1     -13.108  51.825   4.578  1.00  0.00     0.060 A 
HETATM    8  C26 UNL     1     -13.331  52.436   3.366  1.00  0.00     0.045 A 
HETATM    9  C27 UNL     1     -13.138  51.532   2.335  1.00  0.00    -0.006 A 
HETATM   10  C28 UNL     1     -13.222  51.599   0.965  1.00  0.00     0.030 A 
ENDROOT
BRANCH   1  11
HETATM   11  C7  UNL     1     -13.072  50.632  -1.313  1.00  0.00     0.251 C 
HETATM   12  N3  UNL     1     -14.164  50.077  -2.018  1.00  0.00    -0.353 N 
ATOM     13  H3  UNL     1     -14.884  49.578  -1.496  1.00  0.00     0.163 HD
HETATM   14  O3  UNL     1     -12.187  51.244  -1.953  1.00  0.00    -0.268 OA
BRANCH  12  15
HETATM   15  C6  UNL     1     -14.294  50.192  -3.461  1.00  0.00     0.161 C 
BRANCH  15  16
HETATM   16  C5  UNL     1     -15.502  49.497  -3.912  1.00  0.00    -0.041 A 
HETATM   17  C4  UNL     1     -16.010  49.858  -5.159  1.00  0.00     0.009 A 
HETATM   18  C3  UNL     1     -17.145  49.213  -5.608  1.00  0.00     0.009 A 
HETATM   19  C2  UNL     1     -17.781  48.239  -4.873  1.00  0.00    -0.040 A 
HETATM   20  C30 UNL     1     -17.259  47.909  -3.658  1.00  0.00     0.009 A 
HETATM   21  C29 UNL     1     -16.119  48.531  -3.166  1.00  0.00     0.009 A 
BRANCH  19  22
HETATM   22  C1  UNL     1     -19.013  47.577  -5.423  1.00  0.00     0.172 C 
BRANCH  22  23
HETATM   23  N2  UNL     1     -19.525  48.471  -6.447  1.00  0.00    -0.299 N 
ATOM     24  H2  UNL     1     -19.897  49.399  -6.246  1.00  0.00     0.174 HD
BRANCH  23  25
HETATM   25  S1  UNL     1     -19.442  47.810  -8.019  1.00  0.00     0.313 S 
HETATM   26  O1  UNL     1     -18.605  46.556  -8.063  1.00  0.00    -0.183 OA
HETATM   27  O2  UNL     1     -20.841  47.547  -8.504  1.00  0.00    -0.183 OA
BRANCH  25  28
HETATM   28  N1  UNL     1     -18.681  48.991  -9.047  1.00  0.00    -0.312 N 
ATOM     29  H12 UNL     1     -19.152  49.538  -9.767  1.00  0.00     0.170 HD
ATOM     30  H11 UNL     1     -17.693  49.031  -8.795  1.00  0.00     0.170 HD
ENDBRANCH  25  28
ENDBRANCH  23  25
ENDBRANCH  22  23
ENDBRANCH  19  22
ENDBRANCH  15  16
ENDBRANCH  12  15
ENDBRANCH   1  11
BRANCH   7  31
HETATM   31  C13 UNL     1     -13.201  52.402   5.912  1.00  0.00     0.060 A 
HETATM   32  C14 UNL     1     -14.103  53.385   6.301  1.00  0.00     0.045 A 
HETATM   33  C15 UNL     1     -13.904  53.688   7.629  1.00  0.00    -0.007 A 
HETATM   34  C16 UNL     1     -14.498  54.565   8.506  1.00  0.00     0.022 A 
HETATM   35  C25 UNL     1     -12.869  52.877   8.048  1.00  0.00     0.043 A 
HETATM   36  C17 UNL     1     -14.095  54.675   9.825  1.00  0.00    -0.029 A 
HETATM   37  C23 UNL     1     -13.062  53.861  10.227  1.00  0.00     0.011 A 
HETATM   38  C24 UNL     1     -12.446  52.966   9.361  1.00  0.00     0.031 A 
HETATM   39  N6  UNL     1     -12.464  52.115   6.999  1.00  0.00    -0.354 N 
ATOM     40  H6  UNL     1     -11.712  51.427   7.031  1.00  0.00     0.166 HD
BRANCH  36  41
HETATM   41  C18 UNL     1     -14.727  55.614  10.753  1.00  0.00     0.311 C 
BRANCH  41  42
HETATM   42  N5  UNL     1     -13.943  56.742  11.138  1.00  0.00     0.096 N 
HETATM   43  C19 UNL     1     -13.019  57.232  10.172  1.00  0.00     0.299 C 
HETATM   44  C20 UNL     1     -13.541  58.428   9.403  1.00  0.00     0.198 C 
HETATM   45  O4  UNL     1     -13.802  59.507  10.242  1.00  0.00    -0.388 OA
HETATM   46  C21 UNL     1     -14.220  59.137  11.498  1.00  0.00     0.198 C 
HETATM   47  C22 UNL     1     -14.887  57.793  11.547  1.00  0.00     0.299 C 
ENDBRANCH  41  42
ENDBRANCH  36  41
ENDBRANCH   7  31
TORSDOF 10
ENDMDL
MODEL 5
REMARK VINA RESULT: -9.270074748      3.482      4.667
REMARK  10 active torsions:
REMARK  status: ('A' for Active; 'I' for Inactive)
REMARK    1  A    between atoms: N1_1  and  S1_4 
REMARK    2  A    between atoms: S1_4  and  N2_7 
REMARK    3  A    between atoms: N2_7  and  C1_9 
REMARK    4  A    between atoms: C1_9  and  C2_10 
REMARK    5  A    between atoms: C5_13  and  C6_14 
REMARK    6  A    between atoms: C6_14  and  N3_15 
REMARK       I    between atoms: N3_15  and  C7_17 
REMARK    7  A    between atoms: C7_17  and  C8_19 
REMARK    8  A    between atoms: C12_25  and  C13_26 
REMARK    9  A    between atoms: C17_30  and  C18_31 
REMARK   10  A    between atoms: C18_31  and  N5_32 
ROOT
HETATM    1  C8  UNL     1     -14.010  54.464  -0.323  1.00  0.00     0.033 A 
HETATM    2  C9  UNL     1     -13.000  55.395  -0.408  1.00  0.00     0.019 A 
HETATM    3  C10 UNL     1     -12.459  56.005   0.731  1.00  0.00     0.031 A 
HETATM    4  C11 UNL     1     -12.921  55.693   1.989  1.00  0.00     0.043 A 
HETATM    5  N4  UNL     1     -12.586  56.117   3.221  1.00  0.00    -0.354 N 
ATOM      6  H4  UNL     1     -11.862  56.809   3.421  1.00  0.00     0.166 HD
HETATM    7  C12 UNL     1     -13.336  55.506   4.151  1.00  0.00     0.060 A 
HETATM    8  C26 UNL     1     -14.173  54.664   3.455  1.00  0.00     0.045 A 
HETATM    9  C27 UNL     1     -13.927  54.766   2.097  1.00  0.00    -0.006 A 
HETATM   10  C28 UNL     1     -14.453  54.173   0.975  1.00  0.00     0.030 A 
ENDROOT
BRANCH   1  11
HETATM   11  C7  UNL     1     -14.602  53.806  -1.473  1.00  0.00     0.251 C 
HETATM   12  N3  UNL     1     -13.812  53.056  -2.373  1.00  0.00    -0.353 N 
ATOM     13  H3  UNL     1     -12.809  52.982  -2.203  1.00  0.00     0.163 HD
HETATM   14  O3  UNL     1     -15.834  53.898  -1.682  1.00  0.00    -0.268 OA
BRANCH  12  15
HETATM   15  C6  UNL     1     -14.379  52.386  -3.531  1.00  0.00     0.161 C 
BRANCH  15  16
HETATM   16  C5  UNL     1     -14.532  50.956  -3.258  1.00  0.00    -0.041 A 
HETATM   17  C4  UNL     1     -15.512  50.276  -3.981  1.00  0.00     0.009 A 
HETATM   18  C3  UNL     1     -15.670  48.925  -3.744  1.00  0.00     0.009 A 
HETATM   19  C2  UNL     1     -14.904  48.239  -2.830  1.00  0.00    -0.040 A 
HETATM   20  C30 UNL     1     -13.955  48.933  -2.140  1.00  0.00     0.009 A 
HETATM   21  C29 UNL     1     -13.759  50.292  -2.345  1.00  0.00     0.009 A 
BRANCH  19  22
HETATM   22  C1  UNL     1     -15.130  46.768  -2.624  1.00  0.00     0.172 C 
BRANCH  22  23
HETATM   23  N2  UNL     1     -15.636  46.625  -1.270  1.00  0.00    -0.299 N 
ATOM     24  H2  UNL     1     -16.492  47.073  -0.941  1.00  0.00     0.174 HD
BRANCH  23  25
HETATM   25  S1  UNL     1     -14.654  45.634  -0.287  1.00  0.00     0.313 S 
HETATM   26  O1  UNL     1     -13.909  44.597  -1.091  1.00  0.00    -0.183 OA
HETATM   27  O2  UNL     1     -13.704  46.511   0.481  1.00  0.00    -0.183 OA
BRANCH  25  28
HETATM   28  N1  UNL     1     -15.699  44.793   0.823  1.00  0.00    -0.312 N 
ATOM     29  H12 UNL     1     -15.812  45.016   1.812  1.00  0.00     0.170 HD
ATOM     30  H11 UNL     1     -16.168  44.049   0.305  1.00  0.00     0.170 HD
ENDBRANCH  25  28
ENDBRANCH  23  25
ENDBRANCH  22  23
ENDBRANCH  19  22
ENDBRANCH  15  16
ENDBRANCH  12  15
ENDBRANCH   1  11
BRANCH   7  31
HETATM   31  C13 UNL     1     -13.255  55.712   5.591  1.00  0.00     0.060 A 
HETATM   32  C14 UNL     1     -13.519  56.907   6.248  1.00  0.00     0.045 A 
HETATM   33  C15 UNL     1     -13.342  56.734   7.602  1.00  0.00    -0.007 A 
HETATM   34  C16 UNL     1     -13.464  57.563   8.692  1.00  0.00     0.022 A 
HETATM   35  C25 UNL     1     -12.966  55.417   7.765  1.00  0.00     0.043 A 
HETATM   36  C17 UNL     1     -13.219  57.124   9.982  1.00  0.00    -0.029 A 
HETATM   37  C23 UNL     1     -12.844  55.809  10.128  1.00  0.00     0.011 A 
HETATM   38  C24 UNL     1     -12.715  54.952   9.042  1.00  0.00     0.031 A 
HETATM   39  N6  UNL     1     -12.920  54.824   6.543  1.00  0.00    -0.354 N 
ATOM     40  H6  UNL     1     -12.669  53.851   6.374  1.00  0.00     0.166 HD
BRANCH  36  41
HETATM   41  C18 UNL     1     -13.345  58.011  11.139  1.00  0.00     0.311 C 
BRANCH  41  42
HETATM   42  N5  UNL     1     -14.637  58.569  11.366  1.00  0.00     0.096 N 
HETATM   43  C19 UNL     1     -15.426  57.954  12.379  1.00  0.00     0.299 C 
HETATM   44  C20 UNL     1     -15.373  58.689  13.702  1.00  0.00     0.198 C 
HETATM   45  O4  UNL     1     -15.866  59.986  13.592  1.00  0.00    -0.388 OA
HETATM   46  C21 UNL     1     -15.632  60.559  12.364  1.00  0.00     0.198 C 
HETATM   47  C22 UNL     1     -14.437  59.999  11.648  1.00  0.00     0.299 C 
ENDBRANCH  41  42
ENDBRANCH  36  41
ENDBRANCH   7  31
TORSDOF 10
ENDMDL
