MODEL 1
REMARK VINA RESULT: -9.987414396      0.000      0.000
REMARK  11 active torsions:
REMARK  status: ('A' for Active; 'I' for Inactive)
REMARK    1  A    between atoms: C12_14  and  N2_15 
REMARK    2  A    between atoms: N2_15  and  C13_16 
REMARK    3  A    between atoms: C13_16  and  C14_17 
REMARK    4  A    between atoms: C14_17  and  C15_18 
REMARK    5  A    between atoms: C15_18  and  N3_19 
REMARK    6  A    between atoms: N3_19  and  C16_21 
REMARK    7  A    between atoms: N5_25  and  C18_27 
REMARK    8  A    between atoms: C18_27  and  C19_28 
REMARK    9  A    between atoms: C19_28  and  N6_29 
REMARK   10  A    between atoms: N9_37  and  C23_39 
REMARK   11  A    between atoms: C23_39  and  C24_40 
ROOT
HETATM    1  C16 UNL     1     -13.906  50.926   2.972  1.00  0.00     0.162 A 
HETATM    2  N4  UNL     1     -14.189  49.700   2.556  1.00  0.00    -0.172 N 
ATOM      3  H4  UNL     1     -14.892  49.180   3.084  1.00  0.00     0.186 HD
HETATM    4  C17 UNL     1     -13.639  49.085   1.510  1.00  0.00     0.694 A 
HETATM    5  N5  UNL     1     -13.922  47.904   1.112  1.00  0.00    -0.223 N 
ATOM      6  H5  UNL     1     -13.414  47.569   0.293  1.00  0.00     0.177 HD
HETATM    7  N7  UNL     1     -12.708  49.772   0.811  1.00  0.00    -0.131 N 
ATOM      8  H7  UNL     1     -12.258  49.345   0.002  1.00  0.00     0.205 HD
HETATM    9  N8  UNL     1     -12.378  51.013   1.182  1.00  0.00    -0.268 N 
ATOM     10  H8  UNL     1     -11.673  51.514   0.641  1.00  0.00     0.189 HD
HETATM   11  C22 UNL     1     -12.937  51.627   2.234  1.00  0.00     0.162 A 
HETATM   12  N9  UNL     1     -12.615  52.836   2.583  1.00  0.00    -0.368 N 
ATOM     13  H9  UNL     1     -13.064  53.270   3.390  1.00  0.00     0.161 HD
ENDROOT
BRANCH   1  14
HETATM   14  N3  UNL     1     -14.429  51.549   3.965  1.00  0.00    -0.372 N 
ATOM     15  H3  UNL     1     -15.146  52.255   3.793  1.00  0.00     0.161 HD
BRANCH  14  16
HETATM   16  C15 UNL     1     -14.022  51.269   5.309  1.00  0.00     0.127 C 
BRANCH  16  17
HETATM   17  C14 UNL     1     -13.550  52.495   6.054  1.00  0.00     0.079 C 
BRANCH  17  18
HETATM   18  C13 UNL     1     -14.380  53.689   5.554  1.00  0.00     0.157 C 
BRANCH  18  19
HETATM   19  N2  UNL     1     -14.039  54.888   5.983  1.00  0.00    -0.420 NA
BRANCH  19  20
HETATM   20  C12 UNL     1     -13.744  55.957   6.373  1.00  0.00     0.131 A 
HETATM   21  C11 UNL     1     -13.822  57.087   5.537  1.00  0.00     0.032 A 
HETATM   22  C6  UNL     1     -13.466  58.301   6.039  1.00  0.00     0.046 A 
HETATM   23  C10 UNL     1     -14.266  56.928   4.219  1.00  0.00     0.017 A 
HETATM   24  N1  UNL     1     -13.041  58.453   7.307  1.00  0.00    -0.355 N 
HETATM   25  C7  UNL     1     -13.556  59.404   5.182  1.00  0.00     0.030 A 
HETATM   26  C5  UNL     1     -12.960  57.380   8.119  1.00  0.00     0.046 A 
ATOM     27  H1  UNL     1     -12.782  59.377   7.652  1.00  0.00     0.166 HD
HETATM   28  C4  UNL     1     -12.519  57.532   9.441  1.00  0.00     0.031 A 
HETATM   29  C32 UNL     1     -13.296  56.120   7.705  1.00  0.00     0.033 A 
HETATM   30  C3  UNL     1     -12.417  56.473  10.319  1.00  0.00     0.009 A 
HETATM   31  C2  UNL     1     -12.759  55.207   9.892  1.00  0.00    -0.061 A 
HETATM   32  C1  UNL     1     -12.658  54.034  10.814  1.00  0.00     0.048 C 
HETATM   33  C33 UNL     1     -13.198  55.052   8.574  1.00  0.00     0.024 A 
HETATM   34  C8  UNL     1     -13.988  59.268   3.886  1.00  0.00     0.002 A 
HETATM   35  C9  UNL     1     -14.349  58.021   3.389  1.00  0.00     0.001 A 
ENDBRANCH  19  20
ENDBRANCH  18  19
ENDBRANCH  17  18
ENDBRANCH  16  17
ENDBRANCH  14  16
ENDBRANCH   1  14
BRANCH  12  36
HETATM   36  C23 UNL     1     -11.619  53.568   1.830  1.00  0.00     0.162 C 
BRANCH  36  37
HETATM   37  C24 UNL     1     -12.274  54.473   0.858  1.00  0.00    -0.013 A 
HETATM   38  C25 UNL     1     -12.624  55.795   1.012  1.00  0.00     0.098 A 
HETATM   39  N10 UNL     1     -13.206  56.225  -0.143  1.00  0.00    -0.365 N 
HETATM   40  C26 UNL     1     -13.244  55.232  -1.032  1.00  0.00     0.043 A 
ATOM     41  H10 UNL     1     -13.560  57.167  -0.305  1.00  0.00     0.165 HD
HETATM   42  C27 UNL     1     -13.714  55.140  -2.318  1.00  0.00     0.030 A 
HETATM   43  C31 UNL     1     -12.666  54.130  -0.423  1.00  0.00    -0.000 A 
HETATM   44  C28 UNL     1     -13.619  53.961  -3.021  1.00  0.00     0.002 A 
HETATM   45  C29 UNL     1     -13.049  52.848  -2.443  1.00  0.00     0.001 A 
HETATM   46  C30 UNL     1     -12.586  52.966  -1.151  1.00  0.00     0.014 A 
ENDBRANCH  36  37
ENDBRANCH  12  36
BRANCH   5  47
HETATM   47  C18 UNL     1     -14.869  46.998   1.683  1.00  0.00     0.168 C 
BRANCH  47  48
HETATM   48  C19 UNL     1     -15.757  46.486   0.545  1.00  0.00     0.291 C 
BRANCH  48  49
HETATM   49  N6  UNL     1     -16.549  47.589   0.080  1.00  0.00     0.081 N 
HETATM   50  C20 UNL     1     -16.954  47.480  -1.284  1.00  0.00     0.309 C 
HETATM   51  C21 UNL     1     -17.630  47.931   0.971  1.00  0.00     0.309 C 
ENDBRANCH  48  49
ENDBRANCH  47  48
ENDBRANCH   5  47
TORSDOF 11
ENDMDL
MODEL 2
REMARK VINA RESULT: -9.966587106      2.999      9.961
REMARK  11 active torsions:
REMARK  status: ('A' for Active; 'I' for Inactive)
REMARK    1  A    between atoms: C12_14  and  N2_15 
REMARK    2  A    between atoms: N2_15  and  C13_16 
REMARK    3  A    between atoms: C13_16  and  C14_17 
REMARK    4  A    between atoms: C14_17  and  C15_18 
REMARK    5  A    between atoms: C15_18  and  N3_19 
REMARK    6  A    between atoms: N3_19  and  C16_21 
REMARK    7  A    between atoms: N5_25  and  C18_27 
REMARK    8  A    between atoms: C18_27  and  C19_28 
REMARK    9  A    between atoms: C19_28  and  N6_29 
REMARK   10  A    between atoms: N9_37  and  C23_39 
REMARK   11  A    between atoms: C23_39  and  C24_40 
ROOT
HETATM    1  C16 UNL     1     -14.541  59.042   6.480  1.00  0.00     0.162 A 
HETATM    2  N4  UNL     1     -15.694  59.686   6.590  1.00  0.00    -0.172 N 
ATOM      3  H4  UNL     1     -16.217  59.855   5.730  1.00  0.00     0.186 HD
HETATM    4  C17 UNL     1     -16.232  60.133   7.724  1.00  0.00     0.694 A 
HETATM    5  N5  UNL     1     -17.348  60.749   7.822  1.00  0.00    -0.223 N 
ATOM      6  H5  UNL     1     -17.628  61.029   8.762  1.00  0.00     0.177 HD
HETATM    7  N7  UNL     1     -15.541  59.910   8.864  1.00  0.00    -0.131 N 
ATOM      8  H7  UNL     1     -15.911  60.233   9.758  1.00  0.00     0.205 HD
HETATM    9  N8  UNL     1     -14.370  59.266   8.818  1.00  0.00    -0.268 N 
ATOM     10  H8  UNL     1     -13.864  59.109   9.690  1.00  0.00     0.189 HD
HETATM   11  C22 UNL     1     -13.836  58.817   7.674  1.00  0.00     0.162 A 
HETATM   12  N9  UNL     1     -12.700  58.187   7.640  1.00  0.00    -0.368 N 
ATOM     13  H9  UNL     1     -12.326  57.859   6.750  1.00  0.00     0.161 HD
ENDROOT
BRANCH   1  14
HETATM   14  N3  UNL     1     -14.006  58.587   5.406  1.00  0.00    -0.372 N 
ATOM     15  H3  UNL     1     -13.261  59.117   4.953  1.00  0.00     0.161 HD
BRANCH  14  16
HETATM   16  C15 UNL     1     -14.437  57.346   4.835  1.00  0.00     0.127 C 
BRANCH  16  17
HETATM   17  C14 UNL     1     -13.790  57.048   3.504  1.00  0.00     0.079 C 
BRANCH  17  18
HETATM   18  C13 UNL     1     -12.970  55.756   3.667  1.00  0.00     0.157 C 
BRANCH  18  19
HETATM   19  N2  UNL     1     -13.076  54.846   2.720  1.00  0.00    -0.420 NA
BRANCH  19  20
HETATM   20  C12 UNL     1     -13.174  54.041   1.867  1.00  0.00     0.131 A 
HETATM   21  C11 UNL     1     -13.002  54.387   0.514  1.00  0.00     0.032 A 
HETATM   22  C6  UNL     1     -13.129  53.418  -0.433  1.00  0.00     0.046 A 
HETATM   23  C10 UNL     1     -12.704  55.715   0.184  1.00  0.00     0.017 A 
HETATM   24  N1  UNL     1     -13.415  52.142  -0.114  1.00  0.00    -0.355 N 
HETATM   25  C7  UNL     1     -12.951  53.794  -1.769  1.00  0.00     0.030 A 
HETATM   26  C5  UNL     1     -13.584  51.795   1.177  1.00  0.00     0.046 A 
ATOM     27  H1  UNL     1     -13.503  51.439  -0.848  1.00  0.00     0.166 HD
HETATM   28  C4  UNL     1     -13.880  50.468   1.516  1.00  0.00     0.031 A 
HETATM   29  C32 UNL     1     -13.475  52.700   2.199  1.00  0.00     0.033 A 
HETATM   30  C3  UNL     1     -14.062  50.053   2.819  1.00  0.00     0.009 A 
HETATM   31  C2  UNL     1     -13.950  50.973   3.840  1.00  0.00    -0.061 A 
HETATM   32  C1  UNL     1     -14.143  50.561   5.265  1.00  0.00     0.048 C 
HETATM   33  C33 UNL     1     -13.655  52.297   3.507  1.00  0.00     0.024 A 
HETATM   34  C8  UNL     1     -12.659  55.091  -2.112  1.00  0.00     0.002 A 
HETATM   35  C9  UNL     1     -12.532  56.069  -1.133  1.00  0.00     0.001 A 
ENDBRANCH  19  20
ENDBRANCH  18  19
ENDBRANCH  17  18
ENDBRANCH  16  17
ENDBRANCH  14  16
ENDBRANCH   1  14
BRANCH  12  36
HETATM   36  C23 UNL     1     -11.964  57.950   8.864  1.00  0.00     0.162 C 
BRANCH  36  37
HETATM   37  C24 UNL     1     -12.390  56.671   9.478  1.00  0.00    -0.013 A 
HETATM   38  C25 UNL     1     -12.696  56.407  10.794  1.00  0.00     0.098 A 
HETATM   39  N10 UNL     1     -13.034  55.091  10.903  1.00  0.00    -0.365 N 
HETATM   40  C26 UNL     1     -12.957  54.500   9.712  1.00  0.00     0.043 A 
ATOM     41  H10 UNL     1     -13.306  54.627  11.770  1.00  0.00     0.165 HD
HETATM   42  C27 UNL     1     -13.189  53.217   9.283  1.00  0.00     0.030 A 
HETATM   43  C31 UNL     1     -12.556  55.472   8.810  1.00  0.00    -0.000 A 
HETATM   44  C28 UNL     1     -13.030  52.877   7.959  1.00  0.00     0.002 A 
HETATM   45  C29 UNL     1     -12.633  53.821   7.038  1.00  0.00     0.001 A 
HETATM   46  C30 UNL     1     -12.405  55.101   7.494  1.00  0.00     0.014 A 
ENDBRANCH  36  37
ENDBRANCH  12  36
BRANCH   5  47
HETATM   47  C18 UNL     1     -18.249  61.088   6.765  1.00  0.00     0.168 C 
BRANCH  47  48
HETATM   48  C19 UNL     1     -19.610  60.477   7.110  1.00  0.00     0.291 C 
BRANCH  48  49
HETATM   49  N6  UNL     1     -20.610  61.199   6.375  1.00  0.00     0.081 N 
HETATM   50  C20 UNL     1     -20.572  62.611   6.576  1.00  0.00     0.309 C 
HETATM   51  C21 UNL     1     -20.682  60.821   4.986  1.00  0.00     0.309 C 
ENDBRANCH  48  49
ENDBRANCH  47  48
ENDBRANCH   5  47
TORSDOF 11
ENDMDL
MODEL 3
REMARK VINA RESULT: -9.924186930      2.131     10.333
REMARK  11 active torsions:
REMARK  status: ('A' for Active; 'I' for Inactive)
REMARK    1  A    between atoms: C12_14  and  N2_15 
REMARK    2  A    between atoms: N2_15  and  C13_16 
REMARK    3  A    between atoms: C13_16  and  C14_17 
REMARK    4  A    between atoms: C14_17  and  C15_18 
REMARK    5  A    between atoms: C15_18  and  N3_19 
REMARK    6  A    between atoms: N3_19  and  C16_21 
REMARK    7  A    between atoms: N5_25  and  C18_27 
REMARK    8  A    between atoms: C18_27  and  C19_28 
REMARK    9  A    between atoms: C19_28  and  N6_29 
REMARK   10  A    between atoms: N9_37  and  C23_39 
REMARK   11  A    between atoms: C23_39  and  C24_40 
ROOT
HETATM    1  C16 UNL     1     -13.946  57.400   5.125  1.00  0.00     0.162 A 
HETATM    2  N4  UNL     1     -14.213  58.628   5.545  1.00  0.00    -0.172 N 
ATOM      3  H4  UNL     1     -14.925  59.150   5.033  1.00  0.00     0.186 HD
HETATM    4  C17 UNL     1     -13.635  59.242   6.577  1.00  0.00     0.694 A 
HETATM    5  N5  UNL     1     -13.903  60.425   6.980  1.00  0.00    -0.223 N 
ATOM      6  H5  UNL     1     -13.375  60.758   7.786  1.00  0.00     0.177 HD
HETATM    7  N7  UNL     1     -12.692  58.551   7.256  1.00  0.00    -0.131 N 
ATOM      8  H7  UNL     1     -12.221  58.978   8.054  1.00  0.00     0.205 HD
HETATM    9  N8  UNL     1     -12.377  57.308   6.880  1.00  0.00    -0.268 N 
ATOM     10  H8  UNL     1     -11.662  56.804   7.405  1.00  0.00     0.189 HD
HETATM   11  C22 UNL     1     -12.963  56.695   5.842  1.00  0.00     0.162 A 
HETATM   12  N9  UNL     1     -12.654  55.484   5.487  1.00  0.00    -0.368 N 
ATOM     13  H9  UNL     1     -13.124  55.051   4.692  1.00  0.00     0.161 HD
ENDROOT
BRANCH   1  14
HETATM   14  N3  UNL     1     -14.494  56.777   4.146  1.00  0.00    -0.372 N 
ATOM     15  H3  UNL     1     -15.214  56.080   4.335  1.00  0.00     0.161 HD
BRANCH  14  16
HETATM   16  C15 UNL     1     -14.111  57.047   2.793  1.00  0.00     0.127 C 
BRANCH  16  17
HETATM   17  C14 UNL     1     -13.605  55.825   2.064  1.00  0.00     0.079 C 
BRANCH  17  18
HETATM   18  C13 UNL     1     -14.424  54.620   2.559  1.00  0.00     0.157 C 
BRANCH  18  19
HETATM   19  N2  UNL     1     -14.075  53.427   2.119  1.00  0.00    -0.420 NA
BRANCH  19  20
HETATM   20  C12 UNL     1     -13.753  52.366   1.726  1.00  0.00     0.131 A 
HETATM   21  C11 UNL     1     -13.805  51.233   2.558  1.00  0.00     0.032 A 
HETATM   22  C6  UNL     1     -13.418  50.029   2.053  1.00  0.00     0.046 A 
HETATM   23  C10 UNL     1     -14.254  51.377   3.876  1.00  0.00     0.017 A 
HETATM   24  N1  UNL     1     -12.989  49.892   0.786  1.00  0.00    -0.355 N 
HETATM   25  C7  UNL     1     -13.482  48.921   2.906  1.00  0.00     0.030 A 
HETATM   26  C5  UNL     1     -12.932  50.968  -0.024  1.00  0.00     0.046 A 
ATOM     27  H1  UNL     1     -12.706  48.975   0.438  1.00  0.00     0.166 HD
HETATM   28  C4  UNL     1     -12.486  50.831  -1.346  1.00  0.00     0.031 A 
HETATM   29  C32 UNL     1     -13.300  52.219   0.394  1.00  0.00     0.033 A 
HETATM   30  C3  UNL     1     -12.409  51.895  -2.220  1.00  0.00     0.009 A 
HETATM   31  C2  UNL     1     -12.783  53.151  -1.789  1.00  0.00    -0.061 A 
HETATM   32  C1  UNL     1     -12.710  54.329  -2.708  1.00  0.00     0.048 C 
HETATM   33  C33 UNL     1     -13.227  53.291  -0.472  1.00  0.00     0.024 A 
HETATM   34  C8  UNL     1     -13.919  49.043   4.202  1.00  0.00     0.002 A 
HETATM   35  C9  UNL     1     -14.311  50.279   4.703  1.00  0.00     0.001 A 
ENDBRANCH  19  20
ENDBRANCH  18  19
ENDBRANCH  17  18
ENDBRANCH  16  17
ENDBRANCH  14  16
ENDBRANCH   1  14
BRANCH  12  36
HETATM   36  C23 UNL     1     -11.645  54.749   6.218  1.00  0.00     0.162 C 
BRANCH  36  37
HETATM   37  C24 UNL     1     -12.282  53.836   7.195  1.00  0.00    -0.013 A 
HETATM   38  C25 UNL     1     -12.592  52.502   7.053  1.00  0.00     0.098 A 
HETATM   39  N10 UNL     1     -13.172  52.068   8.208  1.00  0.00    -0.365 N 
HETATM   40  C26 UNL     1     -13.248  53.069   9.084  1.00  0.00     0.043 A 
ATOM     41  H10 UNL     1     -13.500  51.117   8.376  1.00  0.00     0.165 HD
HETATM   42  C27 UNL     1     -13.732  53.161  10.366  1.00  0.00     0.030 A 
HETATM   43  C31 UNL     1     -12.696  54.181   8.469  1.00  0.00    -0.000 A 
HETATM   44  C28 UNL     1     -13.678  54.350  11.056  1.00  0.00     0.002 A 
HETATM   45  C29 UNL     1     -13.136  55.473  10.470  1.00  0.00     0.001 A 
HETATM   46  C30 UNL     1     -12.657  55.354   9.184  1.00  0.00     0.014 A 
ENDBRANCH  36  37
ENDBRANCH  12  36
BRANCH   5  47
HETATM   47  C18 UNL     1     -14.859  61.334   6.429  1.00  0.00     0.168 C 
BRANCH  47  48
HETATM   48  C19 UNL     1     -15.764  61.798   7.575  1.00  0.00     0.291 C 
BRANCH  48  49
HETATM   49  N6  UNL     1     -16.546  60.670   7.996  1.00  0.00     0.081 N 
HETATM   50  C20 UNL     1     -17.039  60.771   9.331  1.00  0.00     0.309 C 
HETATM   51  C21 UNL     1     -17.556  60.287   7.041  1.00  0.00     0.309 C 
ENDBRANCH  48  49
ENDBRANCH  47  48
ENDBRANCH   5  47
TORSDOF 11
ENDMDL
MODEL 4
REMARK VINA RESULT: -9.903989804      1.773      6.504
REMARK  11 active torsions:
REMARK  status: ('A' for Active; 'I' for Inactive)
REMARK    1  A    between atoms: C12_14  and  N2_15 
REMARK    2  A    between atoms: N2_15  and  C13_16 
REMARK    3  A    between atoms: C13_16  and  C14_17 
REMARK    4  A    between atoms: C14_17  and  C15_18 
REMARK    5  A    between atoms: C15_18  and  N3_19 
REMARK    6  A    between atoms: N3_19  and  C16_21 
REMARK    7  A    between atoms: N5_25  and  C18_27 
REMARK    8  A    between atoms: C18_27  and  C19_28 
REMARK    9  A    between atoms: C19_28  and  N6_29 
REMARK   10  A    between atoms: N9_37  and  C23_39 
REMARK   11  A    between atoms: C23_39  and  C24_40 
ROOT
HETATM    1  C16 UNL     1     -13.006  50.513   0.353  1.00  0.00     0.162 A 
HETATM    2  N4  UNL     1     -12.813  51.405  -0.608  1.00  0.00    -0.172 N 
ATOM      3  H4  UNL     1     -12.308  52.256  -0.358  1.00  0.00     0.186 HD
HETATM    4  C17 UNL     1     -13.219  51.289  -1.872  1.00  0.00     0.694 A 
HETATM    5  N5  UNL     1     -13.024  52.151  -2.795  1.00  0.00    -0.223 N 
ATOM      6  H5  UNL     1     -13.396  51.919  -3.715  1.00  0.00     0.177 HD
HETATM    7  N7  UNL     1     -13.888  50.161  -2.204  1.00  0.00    -0.131 N 
ATOM      8  H7  UNL     1     -14.219  50.026  -3.158  1.00  0.00     0.205 HD
HETATM    9  N8  UNL     1     -14.114  49.224  -1.278  1.00  0.00    -0.268 N 
ATOM     10  H8  UNL     1     -14.622  48.381  -1.548  1.00  0.00     0.189 HD
HETATM   11  C22 UNL     1     -13.702  49.346  -0.008  1.00  0.00     0.162 A 
HETATM   12  N9  UNL     1     -13.922  48.427   0.884  1.00  0.00    -0.368 N 
ATOM     13  H9  UNL     1     -13.590  48.556   1.840  1.00  0.00     0.161 HD
ENDROOT
BRANCH   1  14
HETATM   14  N3  UNL     1     -12.615  50.589   1.573  1.00  0.00    -0.372 N 
ATOM     15  H3  UNL     1     -11.860  49.984   1.898  1.00  0.00     0.161 HD
BRANCH  14  16
HETATM   16  C15 UNL     1     -13.222  51.510   2.486  1.00  0.00     0.127 C 
BRANCH  16  17
HETATM   17  C14 UNL     1     -12.229  52.442   3.139  1.00  0.00     0.079 C 
BRANCH  17  18
HETATM   18  C13 UNL     1     -12.829  53.859   3.099  1.00  0.00     0.157 C 
BRANCH  18  19
HETATM   19  N2  UNL     1     -13.088  54.441   4.253  1.00  0.00    -0.420 NA
BRANCH  19  20
HETATM   20  C12 UNL     1     -13.321  54.970   5.277  1.00  0.00     0.131 A 
HETATM   21  C11 UNL     1     -13.194  54.284   6.498  1.00  0.00     0.032 A 
HETATM   22  C6  UNL     1     -13.478  54.944   7.655  1.00  0.00     0.046 A 
HETATM   23  C10 UNL     1     -12.777  52.947   6.487  1.00  0.00     0.017 A 
HETATM   24  N1  UNL     1     -13.877  56.228   7.664  1.00  0.00    -0.355 N 
HETATM   25  C7  UNL     1     -13.341  54.233   8.853  1.00  0.00     0.030 A 
HETATM   26  C5  UNL     1     -14.005  56.899   6.502  1.00  0.00     0.046 A 
ATOM     27  H1  UNL     1     -14.082  56.694   8.548  1.00  0.00     0.166 HD
HETATM   28  C4  UNL     1     -14.419  58.238   6.505  1.00  0.00     0.031 A 
HETATM   29  C32 UNL     1     -13.741  56.321   5.289  1.00  0.00     0.033 A 
HETATM   30  C3  UNL     1     -14.566  58.976   5.349  1.00  0.00     0.009 A 
HETATM   31  C2  UNL     1     -14.297  58.383   4.132  1.00  0.00    -0.061 A 
HETATM   32  C1  UNL     1     -14.448  59.150   2.857  1.00  0.00     0.048 C 
HETATM   33  C33 UNL     1     -13.885  57.049   4.125  1.00  0.00     0.024 A 
HETATM   34  C8  UNL     1     -12.934  52.922   8.863  1.00  0.00     0.002 A 
HETATM   35  C9  UNL     1     -12.647  52.262   7.673  1.00  0.00     0.001 A 
ENDBRANCH  19  20
ENDBRANCH  18  19
ENDBRANCH  17  18
ENDBRANCH  16  17
ENDBRANCH  14  16
ENDBRANCH   1  14
BRANCH  12  36
HETATM   36  C23 UNL     1     -14.637  47.222   0.523  1.00  0.00     0.162 C 
BRANCH  36  37
HETATM   37  C24 UNL     1     -16.089  47.400   0.751  1.00  0.00    -0.013 A 
HETATM   38  C25 UNL     1     -16.738  48.400   1.440  1.00  0.00     0.098 A 
HETATM   39  N10 UNL     1     -18.078  48.156   1.395  1.00  0.00    -0.365 N 
HETATM   40  C26 UNL     1     -18.316  47.040   0.706  1.00  0.00     0.043 A 
ATOM     41  H10 UNL     1     -18.794  48.741   1.826  1.00  0.00     0.165 HD
HETATM   42  C27 UNL     1     -19.466  46.369   0.372  1.00  0.00     0.030 A 
HETATM   43  C31 UNL     1     -17.085  46.554   0.296  1.00  0.00    -0.000 A 
HETATM   44  C28 UNL     1     -19.417  45.212  -0.370  1.00  0.00     0.002 A 
HETATM   45  C29 UNL     1     -18.209  44.704  -0.792  1.00  0.00     0.001 A 
HETATM   46  C30 UNL     1     -17.069  45.396  -0.444  1.00  0.00     0.014 A 
ENDBRANCH  36  37
ENDBRANCH  12  36
BRANCH   5  47
HETATM   47  C18 UNL     1     -12.343  53.403  -2.683  1.00  0.00     0.168 C 
BRANCH  47  48
HETATM   48  C19 UNL     1     -13.388  54.461  -2.315  1.00  0.00     0.291 C 
BRANCH  48  49
HETATM   49  N6  UNL     1     -13.277  54.711  -0.906  1.00  0.00     0.081 N 
HETATM   50  C20 UNL     1     -12.714  55.982  -0.584  1.00  0.00     0.309 C 
HETATM   51  C21 UNL     1     -14.487  54.421  -0.178  1.00  0.00     0.309 C 
ENDBRANCH  48  49
ENDBRANCH  47  48
ENDBRANCH   5  47
TORSDOF 11
ENDMDL
MODEL 5
REMARK VINA RESULT: -9.898087400      1.784      4.197
REMARK  11 active torsions:
REMARK  status: ('A' for Active; 'I' for Inactive)
REMARK    1  A    between atoms: C12_14  and  N2_15 
REMARK    2  A    between atoms: N2_15  and  C13_16 
REMARK    3  A    between atoms: C13_16  and  C14_17 
REMARK    4  A    between atoms: C14_17  and  C15_18 
REMARK    5  A    between atoms: C15_18  and  N3_19 
REMARK    6  A    between atoms: N3_19  and  C16_21 
REMARK    7  A    between atoms: N5_25  and  C18_27 
REMARK    8  A    between atoms: C18_27  and  C19_28 
REMARK    9  A    between atoms: C19_28  and  N6_29 
REMARK   10  A    between atoms: N9_37  and  C23_39 
REMARK   11  A    between atoms: C23_39  and  C24_40 
ROOT
HETATM    1  C16 UNL     1     -14.531  49.212   1.579  1.00  0.00     0.162 A 
HETATM    2  N4  UNL     1     -15.689  48.575   1.472  1.00  0.00    -0.172 N 
ATOM      3  H4  UNL     1     -16.210  48.411   2.334  1.00  0.00     0.186 HD
HETATM    4  C17 UNL     1     -16.233  48.131   0.339  1.00  0.00     0.694 A 
HETATM    5  N5  UNL     1     -17.353  47.523   0.245  1.00  0.00    -0.223 N 
ATOM      6  H5  UNL     1     -17.637  47.244  -0.694  1.00  0.00     0.177 HD
HETATM    7  N7  UNL     1     -15.543  48.349  -0.803  1.00  0.00    -0.131 N 
ATOM      8  H7  UNL     1     -15.918  48.028  -1.695  1.00  0.00     0.205 HD
HETATM    9  N8  UNL     1     -14.368  48.985  -0.760  1.00  0.00    -0.268 N 
ATOM     10  H8  UNL     1     -13.862  49.138  -1.633  1.00  0.00     0.189 HD
HETATM   11  C22 UNL     1     -13.827  49.430   0.382  1.00  0.00     0.162 A 
HETATM   12  N9  UNL     1     -12.686  50.053   0.412  1.00  0.00    -0.368 N 
ATOM     13  H9  UNL     1     -12.308  50.379   1.302  1.00  0.00     0.161 HD
ENDROOT
BRANCH   1  14
HETATM   14  N3  UNL     1     -13.989  49.664   2.651  1.00  0.00    -0.372 N 
ATOM     15  H3  UNL     1     -13.227  49.143   3.086  1.00  0.00     0.161 HD
BRANCH  14  16
HETATM   16  C15 UNL     1     -14.437  50.888   3.244  1.00  0.00     0.127 C 
BRANCH  16  17
HETATM   17  C14 UNL     1     -13.762  51.192   4.560  1.00  0.00     0.079 C 
BRANCH  17  18
HETATM   18  C13 UNL     1     -12.975  52.502   4.384  1.00  0.00     0.157 C 
BRANCH  18  19
HETATM   19  N2  UNL     1     -13.083  53.408   5.335  1.00  0.00    -0.420 NA
BRANCH  19  20
HETATM   20  C12 UNL     1     -13.189  54.219   6.181  1.00  0.00     0.131 A 
HETATM   21  C11 UNL     1     -13.014  53.886   7.537  1.00  0.00     0.032 A 
HETATM   22  C6  UNL     1     -13.151  54.863   8.475  1.00  0.00     0.046 A 
HETATM   23  C10 UNL     1     -12.702  52.565   7.878  1.00  0.00     0.017 A 
HETATM   24  N1  UNL     1     -13.450  56.132   8.146  1.00  0.00    -0.355 N 
HETATM   25  C7  UNL     1     -12.970  54.500   9.815  1.00  0.00     0.030 A 
HETATM   26  C5  UNL     1     -13.622  56.466   6.851  1.00  0.00     0.046 A 
ATOM     27  H1  UNL     1     -13.546  56.841   8.874  1.00  0.00     0.166 HD
HETATM   28  C4  UNL     1     -13.932  57.788   6.501  1.00  0.00     0.031 A 
HETATM   29  C32 UNL     1     -13.504  55.554   5.837  1.00  0.00     0.033 A 
HETATM   30  C3  UNL     1     -14.117  58.189   5.195  1.00  0.00     0.009 A 
HETATM   31  C2  UNL     1     -13.996  57.262   4.181  1.00  0.00    -0.061 A 
HETATM   32  C1  UNL     1     -14.193  57.659   2.752  1.00  0.00     0.048 C 
HETATM   33  C33 UNL     1     -13.687  55.944   4.526  1.00  0.00     0.024 A 
HETATM   34  C8  UNL     1     -12.664  53.209  10.169  1.00  0.00     0.002 A 
HETATM   35  C9  UNL     1     -12.527  52.223   9.199  1.00  0.00     0.001 A 
ENDBRANCH  19  20
ENDBRANCH  18  19
ENDBRANCH  17  18
ENDBRANCH  16  17
ENDBRANCH  14  16
ENDBRANCH   1  14
BRANCH  12  36
HETATM   36  C23 UNL     1     -11.953  50.284  -0.813  1.00  0.00     0.162 C 
BRANCH  36  37
HETATM   37  C24 UNL     1     -12.383  51.557  -1.436  1.00  0.00    -0.013 A 
HETATM   38  C25 UNL     1     -12.683  51.813  -2.755  1.00  0.00     0.098 A 
HETATM   39  N10 UNL     1     -13.029  53.126  -2.872  1.00  0.00    -0.365 N 
HETATM   40  C26 UNL     1     -12.962  53.723  -1.683  1.00  0.00     0.043 A 
ATOM     41  H10 UNL     1     -13.299  53.585  -3.742  1.00  0.00     0.165 HD
HETATM   42  C27 UNL     1     -13.206  55.007  -1.261  1.00  0.00     0.030 A 
HETATM   43  C31 UNL     1     -12.561  52.758  -0.774  1.00  0.00    -0.000 A 
HETATM   44  C28 UNL     1     -13.057  55.355   0.062  1.00  0.00     0.002 A 
HETATM   45  C29 UNL     1     -12.658  54.417   0.989  1.00  0.00     0.001 A 
HETATM   46  C30 UNL     1     -12.420  53.136   0.541  1.00  0.00     0.014 A 
ENDBRANCH  36  37
ENDBRANCH  12  36
BRANCH   5  47
HETATM   47  C18 UNL     1     -18.253  47.191   1.304  1.00  0.00     0.168 C 
BRANCH  47  48
HETATM   48  C19 UNL     1     -19.610  47.814   0.964  1.00  0.00     0.291 C 
BRANCH  48  49
HETATM   49  N6  UNL     1     -20.611  47.121   1.726  1.00  0.00     0.081 N 
HETATM   50  C20 UNL     1     -20.643  45.712   1.497  1.00  0.00     0.309 C 
HETATM   51  C21 UNL     1     -20.610  47.472   3.124  1.00  0.00     0.309 C 
ENDBRANCH  48  49
ENDBRANCH  47  48
ENDBRANCH   5  47
TORSDOF 11
ENDMDL
