MODEL 1
REMARK VINA RESULT: -4.847560144      0.000      0.000
REMARK  12 active torsions:
REMARK  status: ('A' for Active; 'I' for Inactive)
REMARK    1  A    between atoms: C2_2  and  C3_3 
REMARK    2  A    between atoms: C3_3  and  C5_5 
REMARK    3  A    between atoms: C6_8  and  O1_9 
REMARK    4  A    between atoms: C7_11  and  C8_12 
REMARK    5  A    between atoms: C8_12  and  C9_13 
REMARK    6  A    between atoms: C13_20  and  C14_21 
REMARK    7  A    between atoms: C14_21  and  C15_22 
REMARK    8  A    between atoms: C19_28  and  C20_29 
REMARK    9  A    between atoms: C20_29  and  C21_30 
REMARK   10  A    between atoms: N5_39  and  C27_40 
REMARK   11  A    between atoms: C27_40  and  C28_41 
REMARK   12  A    between atoms: C31_44  and  O4_45 
ROOT
HETATM    1  C5  UNL     1       0.994  16.723  18.428  1.00  0.00     0.066 C 
HETATM    2  N1  UNL     1       1.571  15.992  19.506  1.00  0.00    -0.338 N 
ATOM      3  H1  UNL     1       2.587  16.081  19.500  1.00  0.00     0.167 HD
HETATM    4  C6  UNL     1       1.155  15.201  20.555  1.00  0.00     0.139 C 
HETATM    5  C7  UNL     1       0.561  15.476  21.882  1.00  0.00     0.159 C 
HETATM    6  N2  UNL     1       0.198  16.875  22.084  1.00  0.00    -0.347 N 
ATOM      7  H2  UNL     1       0.874  17.566  21.760  1.00  0.00     0.163 HD
HETATM    8  C12 UNL     1      -0.953  17.373  22.663  1.00  0.00     0.240 C 
HETATM    9  O2  UNL     1      -1.102  18.645  22.730  1.00  0.00    -0.271 OA
HETATM   10  C13 UNL     1      -2.085  16.591  23.241  1.00  0.00     0.170 C 
HETATM   11  N3  UNL     1      -2.844  15.992  22.250  1.00  0.00    -0.404 N 
ATOM     12  H3  UNL     1      -2.400  15.309  21.635  1.00  0.00     0.154 HD
HETATM   13  C18 UNL     1      -4.214  16.292  22.059  1.00  0.00     0.167 C 
HETATM   14  C19 UNL     1      -4.573  17.344  21.071  1.00  0.00     0.007 C 
HETATM   15  N4  UNL     1      -3.504  17.843  20.229  1.00  0.00    -0.331 N 
ATOM     16  H4  UNL     1      -3.060  18.696  20.571  1.00  0.00     0.168 HD
HETATM   17  C24 UNL     1      -2.972  17.356  19.025  1.00  0.00     0.244 C 
HETATM   18  O3  UNL     1      -3.104  18.207  18.054  1.00  0.00    -0.271 OA
HETATM   19  C25 UNL     1      -2.320  16.105  18.693  1.00  0.00     0.179 C 
HETATM   20  C26 UNL     1      -3.236  14.886  18.636  1.00  0.00     0.043 C 
HETATM   21  N5  UNL     1      -1.434  16.102  17.510  1.00  0.00    -0.326 N 
HETATM   22  C31 UNL     1      -0.017  16.066  17.589  1.00  0.00     0.166 C 
ENDROOT
BRANCH   1  23
HETATM   23  C3  UNL     1       0.763  18.196  18.708  1.00  0.00     0.036 C 
HETATM   24  C4  UNL     1       0.694  18.981  17.387  1.00  0.00     0.016 C 
BRANCH  23  25
HETATM   25  C2  UNL     1       2.030  18.710  19.411  1.00  0.00     0.006 C 
HETATM   26  C1  UNL     1       1.771  19.702  20.481  1.00  0.00     0.006 C 
ENDBRANCH  23  25
ENDBRANCH   1  23
BRANCH  22  27
HETATM   27  O4  UNL     1       0.514  15.258  16.708  1.00  0.00    -0.344 OA
ATOM     28  H4  UNL     1       0.115  15.344  15.850  1.00  0.00     0.219 HD
ENDBRANCH  22  27
BRANCH   4  29
HETATM   29  O1  UNL     1       1.299  13.919  20.380  1.00  0.00    -0.348 OA
ATOM     30  H1  UNL     1       0.565  13.383  20.660  1.00  0.00     0.219 HD
ENDBRANCH   4  29
BRANCH  21  31
HETATM   31  C27 UNL     1      -2.117  16.104  16.206  1.00  0.00     0.071 C 
BRANCH  31  32
HETATM   32  C28 UNL     1      -1.864  17.115  15.204  1.00  0.00     0.016 C 
HETATM   33  C29 UNL     1      -1.341  16.271  13.992  1.00  0.00     0.015 C 
HETATM   34  C30 UNL     1      -2.937  17.908  14.568  1.00  0.00     0.015 C 
ENDBRANCH  31  32
ENDBRANCH  21  31
BRANCH   5  35
HETATM   35  C8  UNL     1       1.599  15.211  22.947  1.00  0.00     0.037 C 
BRANCH  35  36
HETATM   36  C9  UNL     1       1.330  14.120  23.903  1.00  0.00    -0.020 C 
HETATM   37  C10 UNL     1       2.211  12.932  23.614  1.00  0.00     0.009 C 
HETATM   38  C11 UNL     1      -0.111  13.615  23.599  1.00  0.00     0.009 C 
ENDBRANCH  35  36
ENDBRANCH   5  35
BRANCH  10  39
HETATM   39  C14 UNL     1      -2.857  17.374  24.278  1.00  0.00     0.038 C 
BRANCH  39  40
HETATM   40  C15 UNL     1      -3.137  16.541  25.511  1.00  0.00    -0.020 C 
HETATM   41  C16 UNL     1      -3.085  17.493  26.718  1.00  0.00     0.009 C 
HETATM   42  C17 UNL     1      -4.541  15.977  25.497  1.00  0.00     0.009 C 
ENDBRANCH  39  40
ENDBRANCH  10  39
BRANCH  14  43
HETATM   43  C20 UNL     1      -5.872  17.107  20.332  1.00  0.00     0.058 C 
BRANCH  43  44
HETATM   44  C21 UNL     1      -6.773  16.071  20.867  1.00  0.00    -0.017 C 
HETATM   45  C22 UNL     1      -6.713  14.738  20.159  1.00  0.00     0.010 C 
HETATM   46  C23 UNL     1      -8.152  16.534  21.195  1.00  0.00     0.010 C 
ENDBRANCH  43  44
ENDBRANCH  14  43
TORSDOF 12
ENDMDL
MODEL 2
REMARK VINA RESULT: -4.837730356      1.924      4.798
REMARK  12 active torsions:
REMARK  status: ('A' for Active; 'I' for Inactive)
REMARK    1  A    between atoms: C2_2  and  C3_3 
REMARK    2  A    between atoms: C3_3  and  C5_5 
REMARK    3  A    between atoms: C6_8  and  O1_9 
REMARK    4  A    between atoms: C7_11  and  C8_12 
REMARK    5  A    between atoms: C8_12  and  C9_13 
REMARK    6  A    between atoms: C13_20  and  C14_21 
REMARK    7  A    between atoms: C14_21  and  C15_22 
REMARK    8  A    between atoms: C19_28  and  C20_29 
REMARK    9  A    between atoms: C20_29  and  C21_30 
REMARK   10  A    between atoms: N5_39  and  C27_40 
REMARK   11  A    between atoms: C27_40  and  C28_41 
REMARK   12  A    between atoms: C31_44  and  O4_45 
ROOT
HETATM    1  C5  UNL     1       0.289  16.829  22.611  1.00  0.00     0.066 C 
HETATM    2  N1  UNL     1      -0.512  16.333  23.681  1.00  0.00    -0.338 N 
ATOM      3  H1  UNL     1      -0.132  16.623  24.582  1.00  0.00     0.167 HD
HETATM    4  C6  UNL     1      -1.652  15.577  23.851  1.00  0.00     0.139 C 
HETATM    5  C7  UNL     1      -3.101  15.853  23.723  1.00  0.00     0.159 C 
HETATM    6  N2  UNL     1      -3.402  17.163  23.157  1.00  0.00    -0.347 N 
ATOM      7  H2  UNL     1      -2.841  17.942  23.503  1.00  0.00     0.163 HD
HETATM    8  C12 UNL     1      -4.356  17.474  22.208  1.00  0.00     0.240 C 
HETATM    9  O2  UNL     1      -4.454  18.690  21.816  1.00  0.00    -0.271 OA
HETATM   10  C13 UNL     1      -5.322  16.539  21.559  1.00  0.00     0.170 C 
HETATM   11  N3  UNL     1      -4.688  15.710  20.649  1.00  0.00    -0.404 N 
ATOM     12  H3  UNL     1      -3.964  15.075  20.984  1.00  0.00     0.154 HD
HETATM   13  C18 UNL     1      -5.011  15.711  19.270  1.00  0.00     0.167 C 
HETATM   14  C19 UNL     1      -4.209  16.571  18.360  1.00  0.00     0.007 C 
HETATM   15  N4  UNL     1      -3.025  17.192  18.922  1.00  0.00    -0.331 N 
ATOM     16  H4  UNL     1      -3.167  18.145  19.258  1.00  0.00     0.168 HD
HETATM   17  C24 UNL     1      -1.718  16.709  19.083  1.00  0.00     0.244 C 
HETATM   18  O3  UNL     1      -0.851  17.421  18.430  1.00  0.00    -0.271 OA
HETATM   19  C25 UNL     1      -1.187  15.589  19.833  1.00  0.00     0.179 C 
HETATM   20  C26 UNL     1      -1.490  14.211  19.250  1.00  0.00     0.043 C 
HETATM   21  N5  UNL     1       0.239  15.651  20.217  1.00  0.00    -0.326 N 
HETATM   22  C31 UNL     1       0.687  15.906  21.540  1.00  0.00     0.166 C 
ENDROOT
BRANCH   1  23
HETATM   23  C3  UNL     1      -0.035  18.246  22.177  1.00  0.00     0.036 C 
HETATM   24  C4  UNL     1       0.913  18.682  21.047  1.00  0.00     0.016 C 
BRANCH  23  25
HETATM   25  C2  UNL     1       0.313  19.157  23.364  1.00  0.00     0.006 C 
HETATM   26  C1  UNL     1       1.750  19.160  23.727  1.00  0.00     0.006 C 
ENDBRANCH  23  25
ENDBRANCH   1  23
BRANCH  22  27
HETATM   27  O4  UNL     1       1.689  15.141  21.886  1.00  0.00    -0.344 OA
ATOM     28  H4  UNL     1       2.502  15.625  21.974  1.00  0.00     0.219 HD
ENDBRANCH  22  27
BRANCH   4  29
HETATM   29  O1  UNL     1      -1.455  14.339  24.202  1.00  0.00    -0.348 OA
ATOM     30  H1  UNL     1      -2.123  13.724  23.923  1.00  0.00     0.219 HD
ENDBRANCH   4  29
BRANCH  21  31
HETATM   31  C27 UNL     1       1.200  15.393  19.132  1.00  0.00     0.071 C 
BRANCH  31  32
HETATM   32  C28 UNL     1       1.573  14.054  18.735  1.00  0.00     0.016 C 
HETATM   33  C29 UNL     1       1.601  14.157  17.171  1.00  0.00     0.015 C 
HETATM   34  C30 UNL     1       2.901  13.469  19.014  1.00  0.00     0.015 C 
ENDBRANCH  31  32
ENDBRANCH  21  31
BRANCH   5  35
HETATM   35  C8  UNL     1      -3.712  15.902  25.104  1.00  0.00     0.037 C 
BRANCH  35  36
HETATM   36  C9  UNL     1      -3.886  17.230  25.724  1.00  0.00    -0.020 C 
HETATM   37  C10 UNL     1      -3.362  17.230  27.137  1.00  0.00     0.009 C 
HETATM   38  C11 UNL     1      -5.420  17.444  25.880  1.00  0.00     0.009 C 
ENDBRANCH  35  36
ENDBRANCH   5  35
BRANCH  10  39
HETATM   39  C14 UNL     1      -6.558  17.246  21.054  1.00  0.00     0.038 C 
BRANCH  39  40
HETATM   40  C15 UNL     1      -7.813  16.713  21.711  1.00  0.00    -0.020 C 
HETATM   41  C16 UNL     1      -8.570  15.903  20.646  1.00  0.00     0.009 C 
HETATM   42  C17 UNL     1      -7.489  15.730  22.816  1.00  0.00     0.009 C 
ENDBRANCH  39  40
ENDBRANCH  10  39
BRANCH  14  43
HETATM   43  C20 UNL     1      -4.004  16.010  16.971  1.00  0.00     0.058 C 
BRANCH  43  44
HETATM   44  C21 UNL     1      -3.794  16.974  15.877  1.00  0.00    -0.017 C 
HETATM   45  C22 UNL     1      -2.392  17.016  15.316  1.00  0.00     0.010 C 
HETATM   46  C23 UNL     1      -4.418  18.313  16.078  1.00  0.00     0.010 C 
ENDBRANCH  43  44
ENDBRANCH  14  43
TORSDOF 12
ENDMDL
MODEL 3
REMARK VINA RESULT: -4.358692486      2.226      5.756
REMARK  12 active torsions:
REMARK  status: ('A' for Active; 'I' for Inactive)
REMARK    1  A    between atoms: C2_2  and  C3_3 
REMARK    2  A    between atoms: C3_3  and  C5_5 
REMARK    3  A    between atoms: C6_8  and  O1_9 
REMARK    4  A    between atoms: C7_11  and  C8_12 
REMARK    5  A    between atoms: C8_12  and  C9_13 
REMARK    6  A    between atoms: C13_20  and  C14_21 
REMARK    7  A    between atoms: C14_21  and  C15_22 
REMARK    8  A    between atoms: C19_28  and  C20_29 
REMARK    9  A    between atoms: C20_29  and  C21_30 
REMARK   10  A    between atoms: N5_39  and  C27_40 
REMARK   11  A    between atoms: C27_40  and  C28_41 
REMARK   12  A    between atoms: C31_44  and  O4_45 
ROOT
HETATM    1  C5  UNL     1      -1.550  15.907  17.243  1.00  0.00     0.066 C 
HETATM    2  N1  UNL     1      -2.896  16.032  17.692  1.00  0.00    -0.338 N 
ATOM      3  H1  UNL     1      -3.509  15.396  17.181  1.00  0.00     0.167 HD
HETATM    4  C6  UNL     1      -3.612  16.763  18.616  1.00  0.00     0.139 C 
HETATM    5  C7  UNL     1      -3.790  16.678  20.082  1.00  0.00     0.159 C 
HETATM    6  N2  UNL     1      -2.915  15.704  20.725  1.00  0.00    -0.347 N 
ATOM      7  H2  UNL     1      -2.811  14.809  20.249  1.00  0.00     0.163 HD
HETATM    8  C12 UNL     1      -2.209  15.852  21.903  1.00  0.00     0.240 C 
HETATM    9  O2  UNL     1      -1.467  14.883  22.297  1.00  0.00    -0.271 OA
HETATM   10  C13 UNL     1      -2.200  17.039  22.808  1.00  0.00     0.170 C 
HETATM   11  N3  UNL     1      -1.492  18.093  22.253  1.00  0.00    -0.404 N 
ATOM     12  H3  UNL     1      -1.816  18.493  21.372  1.00  0.00     0.154 HD
HETATM   13  C18 UNL     1      -0.335  18.634  22.863  1.00  0.00     0.167 C 
HETATM   14  C19 UNL     1       0.993  18.112  22.443  1.00  0.00     0.007 C 
HETATM   15  N4  UNL     1       1.014  17.229  21.294  1.00  0.00    -0.331 N 
ATOM     16  H4  UNL     1       0.998  16.235  21.524  1.00  0.00     0.168 HD
HETATM   17  C24 UNL     1       1.054  17.504  19.919  1.00  0.00     0.244 C 
HETATM   18  O3  UNL     1       2.116  17.018  19.354  1.00  0.00    -0.271 OA
HETATM   19  C25 UNL     1       0.139  18.215  19.049  1.00  0.00     0.179 C 
HETATM   20  C26 UNL     1       0.114  19.730  19.224  1.00  0.00     0.043 C 
HETATM   21  N5  UNL     1       0.194  17.894  17.607  1.00  0.00    -0.326 N 
HETATM   22  C31 UNL     1      -0.792  17.126  16.933  1.00  0.00     0.166 C 
ENDROOT
BRANCH   1  23
HETATM   23  C3  UNL     1      -0.763  14.787  17.898  1.00  0.00     0.036 C 
HETATM   24  C4  UNL     1       0.612  14.644  17.223  1.00  0.00     0.016 C 
BRANCH  23  25
HETATM   25  C2  UNL     1      -1.505  13.482  17.571  1.00  0.00     0.006 C 
HETATM   26  C1  UNL     1      -0.713  12.515  16.776  1.00  0.00     0.006 C 
ENDBRANCH  23  25
ENDBRANCH   1  23
BRANCH  22  27
HETATM   27  O4  UNL     1      -1.096  17.619  15.761  1.00  0.00    -0.344 OA
ATOM     28  H4  UNL     1      -1.921  18.092  15.769  1.00  0.00     0.219 HD
ENDBRANCH  22  27
BRANCH   4  29
HETATM   29  O1  UNL     1      -4.298  17.759  18.133  1.00  0.00    -0.348 OA
ATOM     30  H1  UNL     1      -4.841  18.223  18.759  1.00  0.00     0.219 HD
ENDBRANCH   4  29
BRANCH  21  31
HETATM   31  C27 UNL     1       1.342  18.457  16.876  1.00  0.00     0.071 C 
BRANCH  31  32
HETATM   32  C28 UNL     1       1.863  17.850  15.672  1.00  0.00     0.016 C 
HETATM   33  C29 UNL     1       2.406  19.085  14.874  1.00  0.00     0.015 C 
HETATM   34  C30 UNL     1       3.038  16.954  15.662  1.00  0.00     0.015 C 
ENDBRANCH  31  32
ENDBRANCH  21  31
BRANCH   5  35
HETATM   35  C8  UNL     1      -5.181  16.168  20.377  1.00  0.00     0.037 C 
BRANCH  35  36
HETATM   36  C9  UNL     1      -6.192  17.154  20.804  1.00  0.00    -0.020 C 
HETATM   37  C10 UNL     1      -5.707  17.928  22.003  1.00  0.00     0.009 C 
HETATM   38  C11 UNL     1      -7.406  16.337  21.336  1.00  0.00     0.009 C 
ENDBRANCH  35  36
ENDBRANCH   5  35
BRANCH  10  39
HETATM   39  C14 UNL     1      -1.834  16.679  24.229  1.00  0.00     0.038 C 
BRANCH  39  40
HETATM   40  C15 UNL     1      -2.978  16.947  25.184  1.00  0.00    -0.020 C 
HETATM   41  C16 UNL     1      -3.430  18.397  24.949  1.00  0.00     0.009 C 
HETATM   42  C17 UNL     1      -4.183  16.087  24.866  1.00  0.00     0.009 C 
ENDBRANCH  39  40
ENDBRANCH  10  39
BRANCH  14  43
HETATM   43  C20 UNL     1       2.109  19.132  22.451  1.00  0.00     0.058 C 
BRANCH  43  44
HETATM   44  C21 UNL     1       1.790  20.479  22.956  1.00  0.00    -0.017 C 
HETATM   45  C22 UNL     1       1.841  21.581  21.925  1.00  0.00     0.010 C 
HETATM   46  C23 UNL     1       2.407  20.831  24.267  1.00  0.00     0.010 C 
ENDBRANCH  43  44
ENDBRANCH  14  43
TORSDOF 12
ENDMDL
MODEL 4
REMARK VINA RESULT: -4.319072179     15.152     20.128
REMARK  12 active torsions:
REMARK  status: ('A' for Active; 'I' for Inactive)
REMARK    1  A    between atoms: C2_2  and  C3_3 
REMARK    2  A    between atoms: C3_3  and  C5_5 
REMARK    3  A    between atoms: C6_8  and  O1_9 
REMARK    4  A    between atoms: C7_11  and  C8_12 
REMARK    5  A    between atoms: C8_12  and  C9_13 
REMARK    6  A    between atoms: C13_20  and  C14_21 
REMARK    7  A    between atoms: C14_21  and  C15_22 
REMARK    8  A    between atoms: C19_28  and  C20_29 
REMARK    9  A    between atoms: C20_29  and  C21_30 
REMARK   10  A    between atoms: N5_39  and  C27_40 
REMARK   11  A    between atoms: C27_40  and  C28_41 
REMARK   12  A    between atoms: C31_44  and  O4_45 
ROOT
HETATM    1  C5  UNL     1     -14.504   7.847  35.736  1.00  0.00     0.066 C 
HETATM    2  N1  UNL     1     -14.191   6.950  34.674  1.00  0.00    -0.338 N 
ATOM      3  H1  UNL     1     -14.735   6.091  34.754  1.00  0.00     0.167 HD
HETATM    4  C6  UNL     1     -13.366   6.906  33.571  1.00  0.00     0.139 C 
HETATM    5  C7  UNL     1     -13.424   7.499  32.216  1.00  0.00     0.159 C 
HETATM    6  N2  UNL     1     -14.510   8.456  32.040  1.00  0.00    -0.347 N 
ATOM      7  H2  UNL     1     -15.412   8.192  32.436  1.00  0.00     0.163 HD
HETATM    8  C12 UNL     1     -14.462   9.680  31.401  1.00  0.00     0.240 C 
HETATM    9  O2  UNL     1     -15.525  10.395  31.370  1.00  0.00    -0.271 OA
HETATM   10  C13 UNL     1     -13.287  10.295  30.717  1.00  0.00     0.170 C 
HETATM   11  N3  UNL     1     -12.344  10.737  31.630  1.00  0.00    -0.404 N 
ATOM     12  H3  UNL     1     -11.903  10.056  32.249  1.00  0.00     0.154 HD
HETATM   13  C18 UNL     1     -11.969  12.098  31.736  1.00  0.00     0.167 C 
HETATM   14  C19 UNL     1     -12.673  12.946  32.734  1.00  0.00     0.007 C 
HETATM   15  N4  UNL     1     -13.551  12.267  33.666  1.00  0.00    -0.331 N 
ATOM     16  H4  UNL     1     -14.533  12.252  33.387  1.00  0.00     0.168 HD
HETATM   17  C24 UNL     1     -13.286  11.626  34.885  1.00  0.00     0.244 C 
HETATM   18  O3  UNL     1     -13.916  12.179  35.875  1.00  0.00    -0.271 OA
HETATM   19  C25 UNL     1     -12.454  10.486  35.217  1.00  0.00     0.179 C 
HETATM   20  C26 UNL     1     -10.950  10.737  35.164  1.00  0.00     0.043 C 
HETATM   21  N5  UNL     1     -12.781   9.753  36.458  1.00  0.00    -0.326 N 
HETATM   22  C31 UNL     1     -13.404   8.477  36.477  1.00  0.00     0.166 C 
ENDROOT
BRANCH   1  23
HETATM   23  C3  UNL     1     -15.722   8.719  35.494  1.00  0.00     0.036 C 
HETATM   24  C4  UNL     1     -16.298   9.205  36.834  1.00  0.00     0.016 C 
BRANCH  23  25
HETATM   25  C2  UNL     1     -16.805   7.801  34.904  1.00  0.00     0.006 C 
HETATM   26  C1  UNL     1     -17.632   8.435  33.850  1.00  0.00     0.006 C 
ENDBRANCH  23  25
ENDBRANCH   1  23
BRANCH  22  27
HETATM   27  O4  UNL     1     -12.874   7.674  37.363  1.00  0.00    -0.344 OA
ATOM     28  H4  UNL     1     -11.958   7.869  37.527  1.00  0.00     0.219 HD
ENDBRANCH  22  27
BRANCH   4  29
HETATM   29  O1  UNL     1     -12.284   6.194  33.709  1.00  0.00    -0.348 OA
ATOM     30  H1  UNL     1     -11.507   6.677  33.966  1.00  0.00     0.219 HD
ENDBRANCH   4  29
BRANCH  21  31
HETATM   31  C27 UNL     1     -12.385  10.419  37.710  1.00  0.00     0.071 C 
BRANCH  31  32
HETATM   32  C28 UNL     1     -13.340  10.749  38.743  1.00  0.00     0.016 C 
HETATM   33  C29 UNL     1     -12.840   9.895  39.958  1.00  0.00     0.015 C 
HETATM   34  C30 UNL     1     -13.441  12.093  39.351  1.00  0.00     0.015 C 
ENDBRANCH  31  32
ENDBRANCH  21  31
BRANCH   5  35
HETATM   35  C8  UNL     1     -13.734   6.408  31.218  1.00  0.00     0.037 C 
BRANCH  35  36
HETATM   36  C9  UNL     1     -12.690   6.073  30.230  1.00  0.00    -0.020 C 
HETATM   37  C10 UNL     1     -12.026   4.767  30.580  1.00  0.00     0.009 C 
HETATM   38  C11 UNL     1     -11.566   7.137  30.402  1.00  0.00     0.009 C 
ENDBRANCH  35  36
ENDBRANCH   5  35
BRANCH  10  39
HETATM   39  C14 UNL     1     -13.694  11.294  29.658  1.00  0.00     0.038 C 
BRANCH  39  40
HETATM   40  C15 UNL     1     -12.851  11.156  28.408  1.00  0.00    -0.020 C 
HETATM   41  C16 UNL     1     -13.776  11.424  27.209  1.00  0.00     0.009 C 
HETATM   42  C17 UNL     1     -11.776  12.219  28.339  1.00  0.00     0.009 C 
ENDBRANCH  39  40
ENDBRANCH  10  39
BRANCH  14  43
HETATM   43  C20 UNL     1     -11.820  14.020  33.370  1.00  0.00     0.058 C 
BRANCH  43  44
HETATM   44  C21 UNL     1     -10.399  14.073  32.983  1.00  0.00    -0.017 C 
HETATM   45  C22 UNL     1      -9.416  13.864  34.111  1.00  0.00     0.010 C 
HETATM   46  C23 UNL     1     -10.034  15.170  32.042  1.00  0.00     0.010 C 
ENDBRANCH  43  44
ENDBRANCH  14  43
TORSDOF 12
ENDMDL
MODEL 5
REMARK VINA RESULT: -4.201702092     15.146     19.769
REMARK  12 active torsions:
REMARK  status: ('A' for Active; 'I' for Inactive)
REMARK    1  A    between atoms: C2_2  and  C3_3 
REMARK    2  A    between atoms: C3_3  and  C5_5 
REMARK    3  A    between atoms: C6_8  and  O1_9 
REMARK    4  A    between atoms: C7_11  and  C8_12 
REMARK    5  A    between atoms: C8_12  and  C9_13 
REMARK    6  A    between atoms: C13_20  and  C14_21 
REMARK    7  A    between atoms: C14_21  and  C15_22 
REMARK    8  A    between atoms: C19_28  and  C20_29 
REMARK    9  A    between atoms: C20_29  and  C21_30 
REMARK   10  A    between atoms: N5_39  and  C27_40 
REMARK   11  A    between atoms: C27_40  and  C28_41 
REMARK   12  A    between atoms: C31_44  and  O4_45 
ROOT
HETATM    1  C5  UNL     1     -15.048   7.597  35.051  1.00  0.00     0.066 C 
HETATM    2  N1  UNL     1     -15.270   8.694  35.933  1.00  0.00    -0.338 N 
ATOM      3  H1  UNL     1     -15.365   8.371  36.896  1.00  0.00     0.167 HD
HETATM    4  C6  UNL     1     -15.392  10.065  35.863  1.00  0.00     0.139 C 
HETATM    5  C7  UNL     1     -14.429  11.180  35.724  1.00  0.00     0.159 C 
HETATM    6  N2  UNL     1     -13.062  10.746  35.459  1.00  0.00    -0.347 N 
ATOM      7  H2  UNL     1     -12.728   9.951  36.004  1.00  0.00     0.163 HD
HETATM    8  C12 UNL     1     -12.165  11.284  34.556  1.00  0.00     0.240 C 
HETATM    9  O2  UNL     1     -11.008  10.744  34.450  1.00  0.00    -0.271 OA
HETATM   10  C13 UNL     1     -12.382  12.457  33.659  1.00  0.00     0.170 C 
HETATM   11  N3  UNL     1     -13.240  12.145  32.617  1.00  0.00    -0.404 N 
ATOM     12  H3  UNL     1     -14.195  11.860  32.836  1.00  0.00     0.154 HD
HETATM   13  C18 UNL     1     -12.841  12.207  31.261  1.00  0.00     0.167 C 
HETATM   14  C19 UNL     1     -12.335  10.966  30.618  1.00  0.00     0.007 C 
HETATM   15  N4  UNL     1     -12.478   9.735  31.370  1.00  0.00    -0.331 N 
ATOM     16  H4  UNL     1     -11.652   9.471  31.907  1.00  0.00     0.168 HD
HETATM   17  C24 UNL     1     -13.555   8.844  31.487  1.00  0.00     0.244 C 
HETATM   18  O3  UNL     1     -13.254   7.655  31.063  1.00  0.00    -0.271 OA
HETATM   19  C25 UNL     1     -14.904   9.019  31.986  1.00  0.00     0.179 C 
HETATM   20  C26 UNL     1     -15.834   9.829  31.087  1.00  0.00     0.043 C 
HETATM   21  N5  UNL     1     -15.612   7.808  32.451  1.00  0.00    -0.326 N 
HETATM   22  C31 UNL     1     -15.844   7.508  33.820  1.00  0.00     0.166 C 
ENDROOT
BRANCH   1  23
HETATM   23  C3  UNL     1     -13.601   7.154  34.937  1.00  0.00     0.036 C 
HETATM   24  C4  UNL     1     -13.532   5.691  34.468  1.00  0.00     0.016 C 
BRANCH  23  25
HETATM   25  C2  UNL     1     -13.034   7.142  36.365  1.00  0.00     0.006 C 
HETATM   26  C1  UNL     1     -11.660   7.682  36.479  1.00  0.00     0.006 C 
ENDBRANCH  23  25
ENDBRANCH   1  23
BRANCH  22  27
HETATM   27  O4  UNL     1     -17.047   7.043  34.035  1.00  0.00    -0.344 OA
ATOM     28  H4  UNL     1     -17.341   6.464  33.342  1.00  0.00     0.219 HD
ENDBRANCH  22  27
BRANCH   4  29
HETATM   29  O1  UNL     1     -16.609  10.522  35.931  1.00  0.00    -0.348 OA
ATOM     30  H1  UNL     1     -16.697  11.465  35.844  1.00  0.00     0.219 HD
ENDBRANCH   4  29
BRANCH  21  31
HETATM   31  C27 UNL     1     -16.110   6.918  31.389  1.00  0.00     0.071 C 
BRANCH  31  32
HETATM   32  C28 UNL     1     -15.938   5.484  31.440  1.00  0.00     0.016 C 
HETATM   33  C29 UNL     1     -17.310   4.954  30.898  1.00  0.00     0.015 C 
HETATM   34  C30 UNL     1     -14.982   4.754  30.582  1.00  0.00     0.015 C 
ENDBRANCH  31  32
ENDBRANCH  21  31
BRANCH   5  35
HETATM   35  C8  UNL     1     -14.331  11.909  37.044  1.00  0.00     0.037 C 
BRANCH  35  36
HETATM   36  C9  UNL     1     -13.327  11.429  38.013  1.00  0.00    -0.020 C 
HETATM   37  C10 UNL     1     -13.948  10.456  38.983  1.00  0.00     0.009 C 
HETATM   38  C11 UNL     1     -12.942  12.656  38.890  1.00  0.00     0.009 C 
ENDBRANCH  35  36
ENDBRANCH   5  35
BRANCH  10  39
HETATM   39  C14 UNL     1     -11.086  13.128  33.263  1.00  0.00     0.038 C 
BRANCH  39  40
HETATM   40  C15 UNL     1     -11.270  14.616  33.056  1.00  0.00    -0.020 C 
HETATM   41  C16 UNL     1     -10.110  15.318  33.781  1.00  0.00     0.009 C 
HETATM   42  C17 UNL     1     -11.130  14.998  31.598  1.00  0.00     0.009 C 
ENDBRANCH  39  40
ENDBRANCH  10  39
BRANCH  14  43
HETATM   43  C20 UNL     1     -12.672  10.827  29.150  1.00  0.00     0.058 C 
BRANCH  43  44
HETATM   44  C21 UNL     1     -12.652  12.054  28.333  1.00  0.00    -0.017 C 
HETATM   45  C22 UNL     1     -14.010  12.617  27.986  1.00  0.00     0.010 C 
HETATM   46  C23 UNL     1     -11.677  12.053  27.205  1.00  0.00     0.010 C 
ENDBRANCH  43  44
ENDBRANCH  14  43
TORSDOF 12
ENDMDL
