MODEL 1
REMARK VINA RESULT: -8.026483877      0.000      0.000
REMARK  11 active torsions:
REMARK  status: ('A' for Active; 'I' for Inactive)
REMARK    1  A    between atoms: C7_7  and  C8_8 
REMARK    2  A    between atoms: C15_19  and  O1_20 
REMARK    3  A    between atoms: C16_22  and  O2_23 
REMARK    4  A    between atoms: C19_27  and  C20_28 
REMARK    5  A    between atoms: C20_28  and  C22_30 
REMARK    6  A    between atoms: C22_30  and  C23_31 
REMARK    7  A    between atoms: C23_31  and  C24_32 
REMARK       I    between atoms: C24_32  and  N3_34 
REMARK    8  A    between atoms: N3_34  and  C25_36 
REMARK    9  A    between atoms: C25_36  and  C26_37 
REMARK   10  A    between atoms: C26_37  and  C27_38 
REMARK   11  A    between atoms: C27_38  and  N4_39 
ROOT
HETATM    1  C1  UNL     1      -5.586  20.207  23.484  1.00  0.00     0.098 C 
HETATM    2  C2  UNL     1      -5.155  19.073  23.327  1.00  0.00    -0.177 C 
HETATM    3  C3  UNL     1      -4.604  17.697  23.144  1.00  0.00     0.019 C 
HETATM    4  C4  UNL     1      -4.627  17.583  21.641  1.00  0.00     0.022 C 
HETATM    5  C5  UNL     1      -3.961  16.350  21.125  1.00  0.00     0.002 C 
HETATM    6  C6  UNL     1      -2.503  16.558  21.372  1.00  0.00     0.012 C 
HETATM    7  C7  UNL     1      -2.168  16.934  22.762  1.00  0.00     0.055 C 
HETATM    8  C9  UNL     1      -3.181  17.591  23.591  1.00  0.00     0.016 C 
HETATM    9  C10 UNL     1      -3.037  17.070  25.007  1.00  0.00     0.007 C 
HETATM   10  C11 UNL     1      -4.262  17.474  25.794  1.00  0.00     0.006 C 
HETATM   11  C12 UNL     1      -5.375  16.557  25.261  1.00  0.00    -0.004 C 
HETATM   12  C13 UNL     1      -5.530  16.680  23.820  1.00  0.00     0.012 C 
HETATM   13  C14 UNL     1      -6.939  16.780  23.307  1.00  0.00     0.041 C 
HETATM   14  C15 UNL     1      -7.733  15.574  23.661  1.00  0.00     0.148 C 
HETATM   15  C16 UNL     1      -7.488  14.892  24.921  1.00  0.00     0.155 C 
HETATM   16  C17 UNL     1      -7.549  15.579  26.231  1.00  0.00    -0.008 C 
HETATM   17  C18 UNL     1      -7.104  14.489  27.223  1.00  0.00     0.019 C 
HETATM   18  C19 UNL     1      -8.792  16.233  26.628  1.00  0.00     0.001 C 
HETATM   19  C32 UNL     1      -8.476  17.648  27.072  1.00  0.00     0.006 C 
HETATM   20  C33 UNL     1      -7.111  17.966  26.494  1.00  0.00     0.006 C 
HETATM   21  C34 UNL     1      -6.452  16.667  26.230  1.00  0.00     0.001 C 
ENDROOT
BRANCH   7  22
HETATM   22  C8  UNL     1      -1.497  15.736  23.375  1.00  0.00     0.091 C 
HETATM   23  N1  UNL     1      -2.124  14.726  23.861  1.00  0.00    -0.391 N 
ATOM     24  H12 UNL     1      -3.139  14.794  23.790  1.00  0.00     0.157 HD
ATOM     25  H11 UNL     1      -1.669  13.913  24.277  1.00  0.00     0.157 HD
HETATM   26  N2  UNL     1      -0.070  15.640  23.475  1.00  0.00    -0.088 NA
ENDBRANCH   7  22
BRANCH  14  27
HETATM   27  O1  UNL     1      -9.099  15.797  23.354  1.00  0.00    -0.393 OA
ATOM     28  H1  UNL     1      -9.631  15.123  23.759  1.00  0.00     0.210 HD
ENDBRANCH  14  27
BRANCH  15  29
HETATM   29  O2  UNL     1      -8.273  13.710  24.866  1.00  0.00    -0.392 OA
ATOM     30  H2  UNL     1      -8.806  13.728  25.651  1.00  0.00     0.210 HD
ENDBRANCH  15  29
BRANCH  18  31
HETATM   31  C20 UNL     1      -9.750  15.697  27.623  1.00  0.00    -0.010 C 
HETATM   32  C21 UNL     1     -10.321  16.855  28.383  1.00  0.00     0.010 C 
BRANCH  31  33
HETATM   33  C22 UNL     1     -10.757  14.742  27.235  1.00  0.00     0.037 C 
BRANCH  33  34
HETATM   34  C23 UNL     1     -11.872  14.397  28.147  1.00  0.00     0.048 C 
BRANCH  34  35
HETATM   35  C24 UNL     1     -11.654  13.845  29.455  1.00  0.00     0.237 C 
HETATM   36  O3  UNL     1     -11.209  12.697  29.652  1.00  0.00    -0.269 OA
HETATM   37  N3  UNL     1     -11.946  14.611  30.616  1.00  0.00    -0.358 N 
ATOM     38  H3  UNL     1     -12.313  15.556  30.494  1.00  0.00     0.162 HD
BRANCH  37  39
HETATM   39  C25 UNL     1     -11.751  14.123  31.956  1.00  0.00     0.124 C 
BRANCH  39  40
HETATM   40  C26 UNL     1     -10.724  14.860  32.746  1.00  0.00     0.050 C 
BRANCH  40  41
HETATM   41  C27 UNL     1      -9.621  13.847  33.085  1.00  0.00     0.274 C 
BRANCH  41  42
HETATM   42  N4  UNL     1      -8.331  14.343  32.635  1.00  0.00     0.088 N 
HETATM   43  C28 UNL     1      -8.288  14.196  31.193  1.00  0.00     0.272 C 
HETATM   44  C29 UNL     1      -7.642  15.420  30.646  1.00  0.00     0.032 C 
HETATM   45  C30 UNL     1      -7.704  16.454  31.715  1.00  0.00     0.032 C 
HETATM   46  C31 UNL     1      -8.290  15.756  32.896  1.00  0.00     0.272 C 
ENDBRANCH  41  42
ENDBRANCH  40  41
ENDBRANCH  39  40
ENDBRANCH  37  39
ENDBRANCH  34  35
ENDBRANCH  33  34
ENDBRANCH  31  33
ENDBRANCH  18  31
TORSDOF 11
ENDMDL
MODEL 2
REMARK VINA RESULT: -7.947916844      1.968      3.323
REMARK  11 active torsions:
REMARK  status: ('A' for Active; 'I' for Inactive)
REMARK    1  A    between atoms: C7_7  and  C8_8 
REMARK    2  A    between atoms: C15_19  and  O1_20 
REMARK    3  A    between atoms: C16_22  and  O2_23 
REMARK    4  A    between atoms: C19_27  and  C20_28 
REMARK    5  A    between atoms: C20_28  and  C22_30 
REMARK    6  A    between atoms: C22_30  and  C23_31 
REMARK    7  A    between atoms: C23_31  and  C24_32 
REMARK       I    between atoms: C24_32  and  N3_34 
REMARK    8  A    between atoms: N3_34  and  C25_36 
REMARK    9  A    between atoms: C25_36  and  C26_37 
REMARK   10  A    between atoms: C26_37  and  C27_38 
REMARK   11  A    between atoms: C27_38  and  N4_39 
ROOT
HETATM    1  C1  UNL     1      -4.768  16.152  28.734  1.00  0.00     0.098 C 
HETATM    2  C2  UNL     1      -4.953  16.677  27.643  1.00  0.00    -0.177 C 
HETATM    3  C3  UNL     1      -5.154  17.306  26.304  1.00  0.00     0.019 C 
HETATM    4  C4  UNL     1      -4.888  18.753  26.630  1.00  0.00     0.022 C 
HETATM    5  C5  UNL     1      -4.846  19.638  25.427  1.00  0.00     0.002 C 
HETATM    6  C6  UNL     1      -3.587  19.270  24.713  1.00  0.00     0.012 C 
HETATM    7  C7  UNL     1      -3.435  17.823  24.450  1.00  0.00     0.055 C 
HETATM    8  C9  UNL     1      -4.131  16.862  25.308  1.00  0.00     0.016 C 
HETATM    9  C10 UNL     1      -4.601  15.712  24.440  1.00  0.00     0.007 C 
HETATM   10  C11 UNL     1      -5.592  14.888  25.228  1.00  0.00     0.006 C 
HETATM   11  C12 UNL     1      -6.860  15.756  25.270  1.00  0.00    -0.004 C 
HETATM   12  C13 UNL     1      -6.596  17.068  25.839  1.00  0.00     0.012 C 
HETATM   13  C14 UNL     1      -7.596  17.575  26.839  1.00  0.00     0.041 C 
HETATM   14  C15 UNL     1      -8.951  17.700  26.239  1.00  0.00     0.148 C 
HETATM   15  C16 UNL     1      -9.383  16.748  25.229  1.00  0.00     0.155 C 
HETATM   16  C17 UNL     1      -9.383  15.285  25.452  1.00  0.00    -0.008 C 
HETATM   17  C18 UNL     1      -9.797  14.719  24.081  1.00  0.00     0.019 C 
HETATM   18  C19 UNL     1     -10.172  14.739  26.552  1.00  0.00     0.001 C 
HETATM   19  C32 UNL     1      -9.291  13.815  27.370  1.00  0.00     0.006 C 
HETATM   20  C33 UNL     1      -7.864  14.186  27.014  1.00  0.00     0.006 C 
HETATM   21  C34 UNL     1      -7.919  14.857  25.697  1.00  0.00     0.001 C 
ENDROOT
BRANCH   7  22
HETATM   22  C8  UNL     1      -3.630  17.639  22.970  1.00  0.00     0.091 C 
HETATM   23  N1  UNL     1      -2.784  17.062  22.196  1.00  0.00    -0.391 N 
ATOM     24  H12 UNL     1      -1.951  16.718  22.674  1.00  0.00     0.157 HD
ATOM     25  H11 UNL     1      -2.916  16.937  21.192  1.00  0.00     0.157 HD
HETATM   26  N2  UNL     1      -4.801  18.123  22.298  1.00  0.00    -0.088 NA
ENDBRANCH   7  22
BRANCH  14  27
HETATM   27  O1  UNL     1      -9.899  17.969  27.256  1.00  0.00    -0.393 OA
ATOM     28  H1  UNL     1     -10.656  17.407  27.144  1.00  0.00     0.210 HD
ENDBRANCH  14  27
BRANCH  15  29
HETATM   29  O2  UNL     1     -10.624  17.248  24.751  1.00  0.00    -0.392 OA
ATOM     30  H2  UNL     1     -10.975  16.558  24.200  1.00  0.00     0.210 HD
ENDBRANCH  15  29
BRANCH  18  31
HETATM   31  C20 UNL     1     -11.467  14.037  26.398  1.00  0.00    -0.010 C 
HETATM   32  C21 UNL     1     -11.228  12.575  26.616  1.00  0.00     0.010 C 
BRANCH  31  33
HETATM   33  C22 UNL     1     -12.647  14.510  27.078  1.00  0.00     0.037 C 
BRANCH  33  34
HETATM   34  C23 UNL     1     -13.635  13.559  27.639  1.00  0.00     0.048 C 
BRANCH  34  35
HETATM   35  C24 UNL     1     -13.899  13.467  29.048  1.00  0.00     0.237 C 
HETATM   36  O3  UNL     1     -14.977  13.054  29.522  1.00  0.00    -0.269 OA
HETATM   37  N3  UNL     1     -12.909  13.855  29.992  1.00  0.00    -0.358 N 
ATOM     38  H3  UNL     1     -12.015  14.199  29.641  1.00  0.00     0.162 HD
BRANCH  37  39
HETATM   39  C25 UNL     1     -13.103  13.788  31.417  1.00  0.00     0.124 C 
BRANCH  39  40
HETATM   40  C26 UNL     1     -11.974  14.324  32.227  1.00  0.00     0.050 C 
BRANCH  40  41
HETATM   41  C27 UNL     1     -10.713  14.197  31.361  1.00  0.00     0.274 C 
BRANCH  41  42
HETATM   42  N4  UNL     1      -9.863  15.362  31.543  1.00  0.00     0.088 N 
HETATM   43  C28 UNL     1      -8.596  14.896  32.073  1.00  0.00     0.272 C 
HETATM   44  C29 UNL     1      -7.524  15.668  31.389  1.00  0.00     0.032 C 
HETATM   45  C30 UNL     1      -8.134  16.264  30.169  1.00  0.00     0.032 C 
HETATM   46  C31 UNL     1      -9.580  15.906  30.243  1.00  0.00     0.272 C 
ENDBRANCH  41  42
ENDBRANCH  40  41
ENDBRANCH  39  40
ENDBRANCH  37  39
ENDBRANCH  34  35
ENDBRANCH  33  34
ENDBRANCH  31  33
ENDBRANCH  18  31
TORSDOF 11
ENDMDL
MODEL 3
REMARK VINA RESULT: -7.801214899      1.464      2.016
REMARK  11 active torsions:
REMARK  status: ('A' for Active; 'I' for Inactive)
REMARK    1  A    between atoms: C7_7  and  C8_8 
REMARK    2  A    between atoms: C15_19  and  O1_20 
REMARK    3  A    between atoms: C16_22  and  O2_23 
REMARK    4  A    between atoms: C19_27  and  C20_28 
REMARK    5  A    between atoms: C20_28  and  C22_30 
REMARK    6  A    between atoms: C22_30  and  C23_31 
REMARK    7  A    between atoms: C23_31  and  C24_32 
REMARK       I    between atoms: C24_32  and  N3_34 
REMARK    8  A    between atoms: N3_34  and  C25_36 
REMARK    9  A    between atoms: C25_36  and  C26_37 
REMARK   10  A    between atoms: C26_37  and  C27_38 
REMARK   11  A    between atoms: C27_38  and  N4_39 
ROOT
HETATM    1  C1  UNL     1      -5.268  19.758  27.625  1.00  0.00     0.098 C 
HETATM    2  C2  UNL     1      -5.035  18.960  26.727  1.00  0.00    -0.177 C 
HETATM    3  C3  UNL     1      -4.724  17.985  25.640  1.00  0.00     0.019 C 
HETATM    4  C4  UNL     1      -4.767  18.886  24.433  1.00  0.00     0.022 C 
HETATM    5  C5  UNL     1      -4.319  18.219  23.174  1.00  0.00     0.002 C 
HETATM    6  C6  UNL     1      -2.846  18.027  23.333  1.00  0.00     0.012 C 
HETATM    7  C7  UNL     1      -2.452  17.356  24.590  1.00  0.00     0.055 C 
HETATM    8  C9  UNL     1      -3.339  17.432  25.752  1.00  0.00     0.016 C 
HETATM    9  C10 UNL     1      -3.285  16.099  26.472  1.00  0.00     0.007 C 
HETATM   10  C11 UNL     1      -4.423  16.041  27.463  1.00  0.00     0.006 C 
HETATM   11  C12 UNL     1      -5.676  15.848  26.592  1.00  0.00    -0.004 C 
HETATM   12  C13 UNL     1      -5.809  16.902  25.599  1.00  0.00     0.012 C 
HETATM   13  C14 UNL     1      -7.180  17.491  25.431  1.00  0.00     0.041 C 
HETATM   14  C15 UNL     1      -8.167  16.462  25.009  1.00  0.00     0.148 C 
HETATM   15  C16 UNL     1      -8.039  15.098  25.495  1.00  0.00     0.155 C 
HETATM   16  C17 UNL     1      -7.983  14.761  26.935  1.00  0.00    -0.008 C 
HETATM   17  C18 UNL     1      -7.728  13.242  26.933  1.00  0.00     0.019 C 
HETATM   18  C19 UNL     1      -9.098  15.147  27.795  1.00  0.00     0.001 C 
HETATM   19  C32 UNL     1      -8.548  15.871  29.009  1.00  0.00     0.006 C 
HETATM   20  C33 UNL     1      -7.148  16.313  28.624  1.00  0.00     0.006 C 
HETATM   21  C34 UNL     1      -6.718  15.433  27.515  1.00  0.00     0.001 C 
ENDROOT
BRANCH   7  22
HETATM   22  C8  UNL     1      -1.993  15.976  24.207  1.00  0.00     0.091 C 
HETATM   23  N1  UNL     1      -2.731  14.927  24.261  1.00  0.00    -0.391 N 
ATOM     24  H12 UNL     1      -3.682  15.105  24.582  1.00  0.00     0.157 HD
ATOM     25  H11 UNL     1      -2.420  13.991  24.001  1.00  0.00     0.157 HD
HETATM   26  N2  UNL     1      -0.655  15.726  23.754  1.00  0.00    -0.088 NA
ENDBRANCH   7  22
BRANCH  14  27
HETATM   27  O1  UNL     1      -9.475  17.003  25.071  1.00  0.00    -0.393 OA
ATOM     28  H1  UNL     1      -9.631  17.549  24.310  1.00  0.00     0.210 HD
ENDBRANCH  14  27
BRANCH  15  29
HETATM   29  O2  UNL     1      -9.012  14.353  24.778  1.00  0.00    -0.392 OA
ATOM     30  H2  UNL     1      -9.797  14.388  25.312  1.00  0.00     0.210 HD
ENDBRANCH  15  29
BRANCH  18  31
HETATM   31  C20 UNL     1     -10.131  14.218  28.308  1.00  0.00    -0.010 C 
HETATM   32  C21 UNL     1      -9.713  13.773  29.675  1.00  0.00     0.010 C 
BRANCH  31  33
HETATM   33  C22 UNL     1     -11.529  14.566  28.245  1.00  0.00     0.037 C 
BRANCH  33  34
HETATM   34  C23 UNL     1     -12.572  13.609  28.684  1.00  0.00     0.048 C 
BRANCH  34  35
HETATM   35  C24 UNL     1     -13.053  13.563  30.037  1.00  0.00     0.237 C 
HETATM   36  O3  UNL     1     -14.137  13.040  30.365  1.00  0.00    -0.269 OA
HETATM   37  N3  UNL     1     -12.286  14.129  31.092  1.00  0.00    -0.358 N 
ATOM     38  H3  UNL     1     -11.394  14.567  30.861  1.00  0.00     0.162 HD
BRANCH  37  39
HETATM   39  C25 UNL     1     -12.704  14.117  32.469  1.00  0.00     0.124 C 
BRANCH  39  40
HETATM   40  C26 UNL     1     -11.704  14.660  33.430  1.00  0.00     0.050 C 
BRANCH  40  41
HETATM   41  C27 UNL     1     -10.612  13.591  33.578  1.00  0.00     0.274 C 
BRANCH  41  42
HETATM   42  N4  UNL     1      -9.330  14.220  33.849  1.00  0.00     0.088 N 
HETATM   43  C28 UNL     1      -8.355  13.620  32.960  1.00  0.00     0.272 C 
HETATM   44  C29 UNL     1      -7.473  14.716  32.473  1.00  0.00     0.032 C 
HETATM   45  C30 UNL     1      -8.192  15.993  32.731  1.00  0.00     0.032 C 
HETATM   46  C31 UNL     1      -9.429  15.602  33.466  1.00  0.00     0.272 C 
ENDBRANCH  41  42
ENDBRANCH  40  41
ENDBRANCH  39  40
ENDBRANCH  37  39
ENDBRANCH  34  35
ENDBRANCH  33  34
ENDBRANCH  31  33
ENDBRANCH  18  31
TORSDOF 11
ENDMDL
MODEL 4
REMARK VINA RESULT: -7.718406433      2.075      3.538
REMARK  11 active torsions:
REMARK  status: ('A' for Active; 'I' for Inactive)
REMARK    1  A    between atoms: C7_7  and  C8_8 
REMARK    2  A    between atoms: C15_19  and  O1_20 
REMARK    3  A    between atoms: C16_22  and  O2_23 
REMARK    4  A    between atoms: C19_27  and  C20_28 
REMARK    5  A    between atoms: C20_28  and  C22_30 
REMARK    6  A    between atoms: C22_30  and  C23_31 
REMARK    7  A    between atoms: C23_31  and  C24_32 
REMARK       I    between atoms: C24_32  and  N3_34 
REMARK    8  A    between atoms: N3_34  and  C25_36 
REMARK    9  A    between atoms: C25_36  and  C26_37 
REMARK   10  A    between atoms: C26_37  and  C27_38 
REMARK   11  A    between atoms: C27_38  and  N4_39 
ROOT
HETATM    1  C1  UNL     1      -4.052  15.342  27.903  1.00  0.00     0.098 C 
HETATM    2  C2  UNL     1      -4.548  16.169  27.150  1.00  0.00    -0.177 C 
HETATM    3  C3  UNL     1      -5.135  17.170  26.210  1.00  0.00     0.019 C 
HETATM    4  C4  UNL     1      -4.634  18.455  26.818  1.00  0.00     0.022 C 
HETATM    5  C5  UNL     1      -4.922  19.661  25.986  1.00  0.00     0.002 C 
HETATM    6  C6  UNL     1      -4.027  19.541  24.796  1.00  0.00     0.012 C 
HETATM    7  C7  UNL     1      -4.117  18.242  24.095  1.00  0.00     0.055 C 
HETATM    8  C9  UNL     1      -4.565  17.059  24.832  1.00  0.00     0.016 C 
HETATM    9  C10 UNL     1      -5.414  16.219  23.900  1.00  0.00     0.007 C 
HETATM   10  C11 UNL     1      -6.149  15.184  24.719  1.00  0.00     0.006 C 
HETATM   11  C12 UNL     1      -7.235  15.984  25.457  1.00  0.00    -0.004 C 
HETATM   12  C13 UNL     1      -6.665  17.067  26.243  1.00  0.00     0.012 C 
HETATM   13  C14 UNL     1      -7.206  17.236  27.635  1.00  0.00     0.041 C 
HETATM   14  C15 UNL     1      -8.666  17.521  27.620  1.00  0.00     0.148 C 
HETATM   15  C16 UNL     1      -9.509  16.913  26.604  1.00  0.00     0.155 C 
HETATM   16  C17 UNL     1      -9.574  15.451  26.385  1.00  0.00    -0.008 C 
HETATM   17  C18 UNL     1     -10.487  15.319  25.152  1.00  0.00     0.019 C 
HETATM   18  C19 UNL     1      -9.987  14.589  27.489  1.00  0.00     0.001 C 
HETATM   19  C32 UNL     1      -8.973  13.472  27.638  1.00  0.00     0.006 C 
HETATM   20  C33 UNL     1      -7.726  13.949  26.918  1.00  0.00     0.006 C 
HETATM   21  C34 UNL     1      -8.164  14.986  25.958  1.00  0.00     0.001 C 
ENDROOT
BRANCH   7  22
HETATM   22  C8  UNL     1      -4.825  18.511  22.796  1.00  0.00     0.091 C 
HETATM   23  N1  UNL     1      -5.852  19.273  22.676  1.00  0.00    -0.391 N 
ATOM     24  H12 UNL     1      -6.154  19.703  23.550  1.00  0.00     0.157 HD
ATOM     25  H11 UNL     1      -6.332  19.455  21.795  1.00  0.00     0.157 HD
HETATM   26  N2  UNL     1      -4.400  17.906  21.567  1.00  0.00    -0.088 NA
ENDBRANCH   7  22
BRANCH  14  27
HETATM   27  O1  UNL     1      -9.176  17.460  28.940  1.00  0.00    -0.393 OA
ATOM     28  H1  UNL     1      -9.206  18.333  29.312  1.00  0.00     0.210 HD
ENDBRANCH  14  27
BRANCH  15  29
HETATM   29  O2  UNL     1     -10.783  17.519  26.765  1.00  0.00    -0.392 OA
ATOM     30  H2  UNL     1     -10.642  18.444  26.605  1.00  0.00     0.210 HD
ENDBRANCH  15  29
BRANCH  18  31
HETATM   31  C20 UNL     1     -11.318  13.951  27.613  1.00  0.00    -0.010 C 
HETATM   32  C21 UNL     1     -11.126  12.467  27.544  1.00  0.00     0.010 C 
BRANCH  31  33
HETATM   33  C22 UNL     1     -12.225  14.340  28.663  1.00  0.00     0.037 C 
BRANCH  33  34
HETATM   34  C23 UNL     1     -12.837  13.329  29.556  1.00  0.00     0.048 C 
BRANCH  34  35
HETATM   35  C24 UNL     1     -12.763  13.421  30.987  1.00  0.00     0.237 C 
HETATM   36  O3  UNL     1     -13.379  12.659  31.760  1.00  0.00    -0.269 OA
HETATM   37  N3  UNL     1     -11.956  14.417  31.602  1.00  0.00    -0.358 N 
ATOM     38  H3  UNL     1     -11.438  15.059  31.002  1.00  0.00     0.162 HD
BRANCH  37  39
HETATM   39  C25 UNL     1     -11.833  14.567  33.028  1.00  0.00     0.124 C 
BRANCH  39  40
HETATM   40  C26 UNL     1     -10.505  15.057  33.493  1.00  0.00     0.050 C 
BRANCH  40  41
HETATM   41  C27 UNL     1      -9.564  13.844  33.491  1.00  0.00     0.274 C 
BRANCH  41  42
HETATM   42  N4  UNL     1      -8.289  14.202  32.891  1.00  0.00     0.088 N 
HETATM   43  C28 UNL     1      -8.363  13.867  31.481  1.00  0.00     0.272 C 
HETATM   44  C29 UNL     1      -7.701  14.970  30.734  1.00  0.00     0.032 C 
HETATM   45  C30 UNL     1      -7.630  16.135  31.658  1.00  0.00     0.032 C 
HETATM   46  C31 UNL     1      -8.157  15.632  32.959  1.00  0.00     0.272 C 
ENDBRANCH  41  42
ENDBRANCH  40  41
ENDBRANCH  39  40
ENDBRANCH  37  39
ENDBRANCH  34  35
ENDBRANCH  33  34
ENDBRANCH  31  33
ENDBRANCH  18  31
TORSDOF 11
ENDMDL
MODEL 5
REMARK VINA RESULT: -7.713769582      2.726      9.594
REMARK  11 active torsions:
REMARK  status: ('A' for Active; 'I' for Inactive)
REMARK    1  A    between atoms: C7_7  and  C8_8 
REMARK    2  A    between atoms: C15_19  and  O1_20 
REMARK    3  A    between atoms: C16_22  and  O2_23 
REMARK    4  A    between atoms: C19_27  and  C20_28 
REMARK    5  A    between atoms: C20_28  and  C22_30 
REMARK    6  A    between atoms: C22_30  and  C23_31 
REMARK    7  A    between atoms: C23_31  and  C24_32 
REMARK       I    between atoms: C24_32  and  N3_34 
REMARK    8  A    between atoms: N3_34  and  C25_36 
REMARK    9  A    between atoms: C25_36  and  C26_37 
REMARK   10  A    between atoms: C26_37  and  C27_38 
REMARK   11  A    between atoms: C27_38  and  N4_39 
ROOT
HETATM    1  C1  UNL     1     -11.351  11.171  26.492  1.00  0.00     0.098 C 
HETATM    2  C2  UNL     1     -11.790  12.067  27.201  1.00  0.00    -0.177 C 
HETATM    3  C3  UNL     1     -12.330  13.141  28.086  1.00  0.00     0.019 C 
HETATM    4  C4  UNL     1     -13.670  13.390  27.441  1.00  0.00     0.022 C 
HETATM    5  C5  UNL     1     -14.543  14.320  28.218  1.00  0.00     0.002 C 
HETATM    6  C6  UNL     1     -14.950  13.554  29.434  1.00  0.00     0.012 C 
HETATM    7  C7  UNL     1     -13.824  12.955  30.182  1.00  0.00     0.055 C 
HETATM    8  C9  UNL     1     -12.573  12.660  29.481  1.00  0.00     0.016 C 
HETATM    9  C10 UNL     1     -11.424  12.958  30.424  1.00  0.00     0.007 C 
HETATM   10  C11 UNL     1     -10.141  12.980  29.627  1.00  0.00     0.006 C 
HETATM   11  C12 UNL     1     -10.210  14.294  28.831  1.00  0.00    -0.004 C 
HETATM   12  C13 UNL     1     -11.413  14.369  28.018  1.00  0.00     0.012 C 
HETATM   13  C14 UNL     1     -11.236  14.856  26.608  1.00  0.00     0.041 C 
HETATM   14  C15 UNL     1     -10.684  16.237  26.575  1.00  0.00     0.148 C 
HETATM   15  C16 UNL     1      -9.735  16.658  27.592  1.00  0.00     0.155 C 
HETATM   16  C17 UNL     1      -8.475  15.931  27.866  1.00  0.00    -0.008 C 
HETATM   17  C18 UNL     1      -7.893  16.678  29.080  1.00  0.00     0.019 C 
HETATM   18  C19 UNL     1      -7.507  15.764  26.786  1.00  0.00     0.001 C 
HETATM   19  C32 UNL     1      -7.116  14.301  26.706  1.00  0.00     0.006 C 
HETATM   20  C33 UNL     1      -8.207  13.543  27.438  1.00  0.00     0.006 C 
HETATM   21  C34 UNL     1      -8.858  14.513  28.346  1.00  0.00     0.001 C 
ENDROOT
BRANCH   7  22
HETATM   22  C8  UNL     1     -13.690  13.750  31.452  1.00  0.00     0.091 C 
HETATM   23  N1  UNL     1     -14.113  14.953  31.600  1.00  0.00    -0.391 N 
ATOM     24  H12 UNL     1     -14.570  15.337  30.773  1.00  0.00     0.157 HD
ATOM     25  H11 UNL     1     -14.022  15.492  32.461  1.00  0.00     0.157 HD
HETATM   26  N2  UNL     1     -13.048  13.210  32.615  1.00  0.00    -0.088 NA
ENDBRANCH   7  22
BRANCH  14  27
HETATM   27  O1  UNL     1     -10.331  16.576  25.245  1.00  0.00    -0.393 OA
ATOM     28  H1  UNL     1      -9.767  17.341  25.250  1.00  0.00     0.210 HD
ENDBRANCH  14  27
BRANCH  15  29
HETATM   29  O2  UNL     1      -9.550  18.049  27.376  1.00  0.00    -0.392 OA
ATOM     30  H2  UNL     1      -9.554  18.439  28.242  1.00  0.00     0.210 HD
ENDBRANCH  15  29
BRANCH  18  31
HETATM   31  C20 UNL     1      -6.247  16.531  26.653  1.00  0.00    -0.010 C 
HETATM   32  C21 UNL     1      -5.291  15.711  25.843  1.00  0.00     0.010 C 
BRANCH  31  33
HETATM   33  C22 UNL     1      -6.267  17.914  26.248  1.00  0.00     0.037 C 
BRANCH  33  34
HETATM   34  C23 UNL     1      -5.092  18.532  25.589  1.00  0.00     0.048 C 
BRANCH  34  35
HETATM   35  C24 UNL     1      -4.892  18.480  24.167  1.00  0.00     0.237 C 
HETATM   36  O3  UNL     1      -3.783  18.644  23.621  1.00  0.00    -0.269 OA
HETATM   37  N3  UNL     1      -5.988  18.230  23.296  1.00  0.00    -0.358 N 
ATOM     38  H3  UNL     1      -6.911  18.092  23.707  1.00  0.00     0.162 HD
BRANCH  37  39
HETATM   39  C25 UNL     1      -5.861  18.163  21.864  1.00  0.00     0.124 C 
BRANCH  39  40
HETATM   40  C26 UNL     1      -6.083  16.810  21.280  1.00  0.00     0.050 C 
BRANCH  40  41
HETATM   41  C27 UNL     1      -7.596  16.670  21.062  1.00  0.00     0.274 C 
BRANCH  41  42
HETATM   42  N4  UNL     1      -8.021  15.314  21.365  1.00  0.00     0.088 N 
HETATM   43  C28 UNL     1      -7.712  15.063  22.760  1.00  0.00     0.272 C 
HETATM   44  C29 UNL     1      -8.858  14.306  23.333  1.00  0.00     0.032 C 
HETATM   45  C30 UNL     1     -10.006  14.493  22.403  1.00  0.00     0.032 C 
HETATM   46  C31 UNL     1      -9.454  15.267  21.254  1.00  0.00     0.272 C 
ENDBRANCH  41  42
ENDBRANCH  40  41
ENDBRANCH  39  40
ENDBRANCH  37  39
ENDBRANCH  34  35
ENDBRANCH  33  34
ENDBRANCH  31  33
ENDBRANCH  18  31
TORSDOF 11
ENDMDL
