MODEL 1
REMARK VINA RESULT: -6.774959388      0.000      0.000
REMARK  10 active torsions:
REMARK  status: ('A' for Active; 'I' for Inactive)
REMARK    1  A    between atoms: C2_2  and  C3_3 
REMARK    2  A    between atoms: C3_3  and  C5_5 
REMARK    3  A    between atoms: C8_11  and  C9_12 
REMARK    4  A    between atoms: C9_12  and  C10_13 
REMARK    5  A    between atoms: C16_22  and  C17_23 
REMARK    6  A    between atoms: C17_23  and  C18_24 
REMARK    7  A    between atoms: C21_29  and  C22_30 
REMARK    8  A    between atoms: C26_37  and  C27_38 
REMARK    9  A    between atoms: C27_38  and  C28_39 
REMARK   10  A    between atoms: C31_42  and  O4_43 
ROOT
HETATM    1  C5  UNL     1     -11.686  14.817  27.523  1.00  0.00     0.095 C 
HETATM    2  C6  UNL     1     -10.427  14.879  28.320  1.00  0.00     0.128 C 
HETATM    3  C7  UNL     1     -10.190  16.208  28.927  1.00  0.00     0.220 C 
HETATM    4  O1  UNL     1     -10.685  17.241  28.336  1.00  0.00    -0.274 OA
HETATM    5  N1  UNL     1      -9.468  16.494  30.105  1.00  0.00    -0.348 N 
ATOM      6  H1  UNL     1      -9.997  16.947  30.850  1.00  0.00     0.163 HD
HETATM    7  C8  UNL     1      -8.077  16.229  30.392  1.00  0.00     0.177 C 
HETATM    8  C13 UNL     1      -7.489  15.191  29.520  1.00  0.00     0.240 C 
HETATM    9  O2  UNL     1      -7.704  13.959  29.787  1.00  0.00    -0.271 OA
HETATM   10  N2  UNL     1      -6.701  15.507  28.407  1.00  0.00    -0.359 N 
ATOM     11  H2  UNL     1      -6.892  14.969  27.562  1.00  0.00     0.162 HD
HETATM   12  C14 UNL     1      -5.669  16.480  28.301  1.00  0.00     0.128 C 
HETATM   13  C15 UNL     1      -5.480  16.988  26.871  1.00  0.00     0.072 C 
HETATM   14  C16 UNL     1      -5.313  15.892  25.856  1.00  0.00    -0.011 C 
HETATM   15  N3  UNL     1      -6.380  15.527  25.074  1.00  0.00    -0.362 N 
ATOM     16  H3  UNL     1      -6.616  14.536  25.134  1.00  0.00     0.165 HD
HETATM   17  C21 UNL     1      -7.184  16.233  24.235  1.00  0.00     0.081 C 
HETATM   18  C25 UNL     1      -8.476  16.781  24.698  1.00  0.00     0.265 C 
HETATM   19  O3  UNL     1      -8.566  18.023  24.862  1.00  0.00    -0.266 OA
HETATM   20  N4  UNL     1      -9.647  16.016  24.978  1.00  0.00    -0.344 N 
ATOM     21  H4  UNL     1     -10.358  16.436  25.577  1.00  0.00     0.163 HD
HETATM   22  C26 UNL     1      -9.892  14.699  24.475  1.00  0.00     0.159 C 
HETATM   23  C31 UNL     1     -10.648  13.789  25.369  1.00  0.00     0.135 C 
HETATM   24  N5  UNL     1     -11.646  14.068  26.308  1.00  0.00    -0.367 N 
ATOM     25  H5  UNL     1     -12.543  13.644  26.073  1.00  0.00     0.161 HD
ENDROOT
BRANCH   1  26
HETATM   26  C3  UNL     1     -12.875  14.339  28.383  1.00  0.00     0.004 C 
HETATM   27  C4  UNL     1     -13.972  13.747  27.579  1.00  0.00     0.012 C 
BRANCH  26  28
HETATM   28  C2  UNL     1     -12.455  13.560  29.572  1.00  0.00     0.002 C 
HETATM   29  C1  UNL     1     -12.609  12.048  29.349  1.00  0.00     0.005 C 
ENDBRANCH  26  28
ENDBRANCH   1  26
BRANCH  23  30
HETATM   30  O4  UNL     1     -10.267  12.552  25.193  1.00  0.00    -0.348 OA
ATOM     31  H4  UNL     1     -10.629  11.992  25.869  1.00  0.00     0.219 HD
ENDBRANCH  23  30
BRANCH  22  32
HETATM   32  C27 UNL     1     -10.384  14.651  23.071  1.00  0.00     0.037 C 
BRANCH  32  33
HETATM   33  C28 UNL     1      -9.495  14.242  21.985  1.00  0.00    -0.020 C 
HETATM   34  C29 UNL     1      -8.112  13.773  22.391  1.00  0.00     0.009 C 
HETATM   35  C30 UNL     1      -9.330  15.143  20.815  1.00  0.00     0.009 C 
ENDBRANCH  32  33
ENDBRANCH  22  32
BRANCH   7  36
HETATM   36  C9  UNL     1      -7.809  15.962  31.839  1.00  0.00     0.038 C 
BRANCH  36  37
HETATM   37  C10 UNL     1      -8.848  15.329  32.668  1.00  0.00    -0.020 C 
HETATM   38  C11 UNL     1      -9.136  15.968  34.003  1.00  0.00     0.009 C 
HETATM   39  C12 UNL     1      -8.413  13.881  33.040  1.00  0.00     0.009 C 
ENDBRANCH  36  37
ENDBRANCH   7  36
BRANCH  17  40
HETATM   40  C22 UNL     1      -6.506  17.225  23.274  1.00  0.00     0.033 C 
HETATM   41  C23 UNL     1      -7.476  17.617  22.169  1.00  0.00     0.016 C 
HETATM   42  C24 UNL     1      -5.377  16.480  22.542  1.00  0.00     0.016 C 
ENDBRANCH  17  40
BRANCH  14  43
HETATM   43  C17 UNL     1      -3.945  15.991  25.165  1.00  0.00     0.056 C 
BRANCH  43  44
HETATM   44  C18 UNL     1      -3.327  17.363  25.364  1.00  0.00    -0.018 C 
HETATM   45  C19 UNL     1      -2.264  17.466  24.256  1.00  0.00     0.010 C 
HETATM   46  C20 UNL     1      -2.566  17.468  26.660  1.00  0.00     0.010 C 
ENDBRANCH  43  44
ENDBRANCH  14  43
TORSDOF 10
ENDMDL
MODEL 2
REMARK VINA RESULT: -6.773164768      5.108      8.209
REMARK  10 active torsions:
REMARK  status: ('A' for Active; 'I' for Inactive)
REMARK    1  A    between atoms: C2_2  and  C3_3 
REMARK    2  A    between atoms: C3_3  and  C5_5 
REMARK    3  A    between atoms: C8_11  and  C9_12 
REMARK    4  A    between atoms: C9_12  and  C10_13 
REMARK    5  A    between atoms: C16_22  and  C17_23 
REMARK    6  A    between atoms: C17_23  and  C18_24 
REMARK    7  A    between atoms: C21_29  and  C22_30 
REMARK    8  A    between atoms: C26_37  and  C27_38 
REMARK    9  A    between atoms: C27_38  and  C28_39 
REMARK   10  A    between atoms: C31_42  and  O4_43 
ROOT
HETATM    1  C5  UNL     1     -13.846   8.304  32.297  1.00  0.00     0.095 C 
HETATM    2  C6  UNL     1     -13.157   9.115  33.342  1.00  0.00     0.128 C 
HETATM    3  C7  UNL     1     -14.074  10.018  34.073  1.00  0.00     0.220 C 
HETATM    4  O1  UNL     1     -15.132  10.431  33.463  1.00  0.00    -0.274 OA
HETATM    5  N1  UNL     1     -13.931  10.496  35.393  1.00  0.00    -0.348 N 
ATOM      6  H1  UNL     1     -14.677  10.242  36.040  1.00  0.00     0.163 HD
HETATM    7  C8  UNL     1     -12.864  11.300  35.946  1.00  0.00     0.177 C 
HETATM    8  C13 UNL     1     -11.622  11.249  35.148  1.00  0.00     0.240 C 
HETATM    9  O2  UNL     1     -10.838  10.247  35.279  1.00  0.00    -0.271 OA
HETATM   10  N2  UNL     1     -11.269  12.261  34.248  1.00  0.00    -0.359 N 
ATOM     11  H2  UNL     1     -10.909  11.948  33.347  1.00  0.00     0.162 HD
HETATM   12  C14 UNL     1     -11.347  13.671  34.426  1.00  0.00     0.128 C 
HETATM   13  C15 UNL     1     -11.497  14.426  33.105  1.00  0.00     0.072 C 
HETATM   14  C16 UNL     1     -10.466  14.056  32.075  1.00  0.00    -0.011 C 
HETATM   15  N3  UNL     1     -10.802  13.190  31.064  1.00  0.00    -0.362 N 
ATOM     16  H3  UNL     1     -10.199  12.370  31.007  1.00  0.00     0.165 HD
HETATM   17  C21 UNL     1     -11.785  13.216  30.126  1.00  0.00     0.081 C 
HETATM   18  C25 UNL     1     -13.067  12.514  30.344  1.00  0.00     0.265 C 
HETATM   19  O3  UNL     1     -14.089  13.209  30.571  1.00  0.00    -0.266 OA
HETATM   20  N4  UNL     1     -13.252  11.100  30.321  1.00  0.00    -0.344 N 
ATOM     21  H4  UNL     1     -14.076  10.720  30.786  1.00  0.00     0.163 HD
HETATM   22  C26 UNL     1     -12.358  10.179  29.690  1.00  0.00     0.159 C 
HETATM   23  C31 UNL     1     -12.218   8.855  30.343  1.00  0.00     0.135 C 
HETATM   24  N5  UNL     1     -13.146   8.102  31.069  1.00  0.00    -0.367 N 
ATOM     25  H5  UNL     1     -13.373   7.214  30.623  1.00  0.00     0.161 HD
ENDROOT
BRANCH   1  26
HETATM   26  C3  UNL     1     -14.310   6.943  32.854  1.00  0.00     0.004 C 
HETATM   27  C4  UNL     1     -13.422   6.419  33.921  1.00  0.00     0.012 C 
BRANCH  26  28
HETATM   28  C2  UNL     1     -15.763   6.900  33.147  1.00  0.00     0.002 C 
HETATM   29  C1  UNL     1     -16.594   7.521  32.014  1.00  0.00     0.005 C 
ENDBRANCH  26  28
ENDBRANCH   1  26
BRANCH  23  30
HETATM   30  O4  UNL     1     -11.012   8.382  30.166  1.00  0.00    -0.348 OA
ATOM     31  H4  UNL     1     -10.972   7.467  30.419  1.00  0.00     0.219 HD
ENDBRANCH  23  30
BRANCH  22  32
HETATM   32  C27 UNL     1     -12.518  10.069  28.214  1.00  0.00     0.037 C 
BRANCH  32  33
HETATM   33  C28 UNL     1     -12.694  11.266  27.394  1.00  0.00    -0.020 C 
HETATM   34  C29 UNL     1     -13.936  11.308  26.527  1.00  0.00     0.009 C 
HETATM   35  C30 UNL     1     -11.557  11.740  26.563  1.00  0.00     0.009 C 
ENDBRANCH  32  33
ENDBRANCH  22  32
BRANCH   7  36
HETATM   36  C9  UNL     1     -12.610  11.034  37.395  1.00  0.00     0.038 C 
BRANCH  36  37
HETATM   37  C10 UNL     1     -12.817  12.108  38.381  1.00  0.00    -0.020 C 
HETATM   38  C11 UNL     1     -13.432  11.713  39.699  1.00  0.00     0.009 C 
HETATM   39  C12 UNL     1     -13.812  13.160  37.811  1.00  0.00     0.009 C 
ENDBRANCH  36  37
ENDBRANCH   7  36
BRANCH  17  40
HETATM   40  C22 UNL     1     -12.032  14.548  29.397  1.00  0.00     0.033 C 
HETATM   41  C23 UNL     1     -13.167  14.387  28.398  1.00  0.00     0.016 C 
HETATM   42  C24 UNL     1     -10.801  14.850  28.528  1.00  0.00     0.016 C 
ENDBRANCH  17  40
BRANCH  14  43
HETATM   43  C17 UNL     1      -9.612  15.274  31.694  1.00  0.00     0.056 C 
BRANCH  43  44
HETATM   44  C18 UNL     1      -8.238  14.850  31.207  1.00  0.00    -0.018 C 
HETATM   45  C19 UNL     1      -7.429  14.623  32.496  1.00  0.00     0.010 C 
HETATM   46  C20 UNL     1      -7.522  15.954  30.474  1.00  0.00     0.010 C 
ENDBRANCH  43  44
ENDBRANCH  14  43
TORSDOF 10
ENDMDL
MODEL 3
REMARK VINA RESULT: -6.684853583      4.639     10.995
REMARK  10 active torsions:
REMARK  status: ('A' for Active; 'I' for Inactive)
REMARK    1  A    between atoms: C2_2  and  C3_3 
REMARK    2  A    between atoms: C3_3  and  C5_5 
REMARK    3  A    between atoms: C8_11  and  C9_12 
REMARK    4  A    between atoms: C9_12  and  C10_13 
REMARK    5  A    between atoms: C16_22  and  C17_23 
REMARK    6  A    between atoms: C17_23  and  C18_24 
REMARK    7  A    between atoms: C21_29  and  C22_30 
REMARK    8  A    between atoms: C26_37  and  C27_38 
REMARK    9  A    between atoms: C27_38  and  C28_39 
REMARK   10  A    between atoms: C31_42  and  O4_43 
ROOT
HETATM    1  C5  UNL     1      -0.345  16.251  21.712  1.00  0.00     0.095 C 
HETATM    2  C6  UNL     1      -1.433  16.028  20.716  1.00  0.00     0.128 C 
HETATM    3  C7  UNL     1      -1.792  17.253  19.966  1.00  0.00     0.220 C 
HETATM    4  O1  UNL     1      -1.601  18.392  20.539  1.00  0.00    -0.274 OA
HETATM    5  N1  UNL     1      -2.332  17.332  18.666  1.00  0.00    -0.348 N 
ATOM      6  H1  UNL     1      -1.768  17.837  17.981  1.00  0.00     0.163 HD
HETATM    7  C8  UNL     1      -3.579  16.792  18.177  1.00  0.00     0.177 C 
HETATM    8  C13 UNL     1      -4.119  15.710  19.026  1.00  0.00     0.240 C 
HETATM    9  O2  UNL     1      -3.644  14.529  18.906  1.00  0.00    -0.271 OA
HETATM   10  N2  UNL     1      -5.135  15.930  19.963  1.00  0.00    -0.359 N 
ATOM     11  H2  UNL     1      -5.005  15.485  20.871  1.00  0.00     0.162 HD
HETATM   12  C14 UNL     1      -6.327  16.693  19.814  1.00  0.00     0.128 C 
HETATM   13  C15 UNL     1      -6.854  17.233  21.143  1.00  0.00     0.072 C 
HETATM   14  C16 UNL     1      -7.002  16.183  22.208  1.00  0.00    -0.011 C 
HETATM   15  N3  UNL     1      -6.043  16.070  23.183  1.00  0.00    -0.362 N 
ATOM     16  H3  UNL     1      -5.628  15.140  23.248  1.00  0.00     0.165 HD
HETATM   17  C21 UNL     1      -5.540  16.960  24.079  1.00  0.00     0.081 C 
HETATM   18  C25 UNL     1      -4.304  17.718  23.790  1.00  0.00     0.265 C 
HETATM   19  O3  UNL     1      -4.410  18.944  23.536  1.00  0.00    -0.266 OA
HETATM   20  N4  UNL     1      -2.985  17.176  23.774  1.00  0.00    -0.344 N 
ATOM     21  H4  UNL     1      -2.266  17.690  23.266  1.00  0.00     0.163 HD
HETATM   22  C26 UNL     1      -2.603  15.959  24.422  1.00  0.00     0.159 C 
HETATM   23  C31 UNL     1      -1.550  15.163  23.746  1.00  0.00     0.135 C 
HETATM   24  N5  UNL     1      -0.467  15.575  22.965  1.00  0.00    -0.367 N 
ATOM     25  H5  UNL     1       0.435  15.342  23.380  1.00  0.00     0.161 HD
ENDROOT
BRANCH   1  26
HETATM   26  C3  UNL     1       1.043  15.962  21.105  1.00  0.00     0.004 C 
HETATM   27  C4  UNL     1       2.134  16.724  21.761  1.00  0.00     0.012 C 
BRANCH  26  28
HETATM   28  C2  UNL     1       1.299  14.515  20.904  1.00  0.00     0.002 C 
HETATM   29  C1  UNL     1       1.570  14.181  19.430  1.00  0.00     0.005 C 
ENDBRANCH  26  28
ENDBRANCH   1  26
BRANCH  23  30
HETATM   30  O4  UNL     1      -1.730  13.887  23.964  1.00  0.00    -0.348 OA
ATOM     31  H4  UNL     1      -2.418  13.547  23.404  1.00  0.00     0.219 HD
ENDBRANCH  23  30
BRANCH  22  32
HETATM   32  C27 UNL     1      -2.368  16.082  25.886  1.00  0.00     0.037 C 
BRANCH  32  33
HETATM   33  C28 UNL     1      -3.398  16.641  26.760  1.00  0.00    -0.020 C 
HETATM   34  C29 UNL     1      -2.929  17.647  27.792  1.00  0.00     0.009 C 
HETATM   35  C30 UNL     1      -4.341  15.716  27.441  1.00  0.00     0.009 C 
ENDBRANCH  32  33
ENDBRANCH  22  32
BRANCH   7  36
HETATM   36  C9  UNL     1      -3.534  16.401  16.734  1.00  0.00     0.038 C 
BRANCH  36  37
HETATM   37  C10 UNL     1      -2.241  16.361  16.030  1.00  0.00    -0.020 C 
HETATM   38  C11 UNL     1      -2.213  16.911  14.626  1.00  0.00     0.009 C 
HETATM   39  C12 UNL     1      -1.784  14.883  15.856  1.00  0.00     0.009 C 
ENDBRANCH  36  37
ENDBRANCH   7  36
BRANCH  17  40
HETATM   40  C22 UNL     1      -6.543  17.855  24.826  1.00  0.00     0.033 C 
HETATM   41  C23 UNL     1      -5.805  18.743  25.817  1.00  0.00     0.016 C 
HETATM   42  C24 UNL     1      -7.422  16.952  25.707  1.00  0.00     0.016 C 
ENDBRANCH  17  40
BRANCH  14  43
HETATM   43  C17 UNL     1      -8.466  16.056  22.652  1.00  0.00     0.056 C 
BRANCH  43  44
HETATM   44  C18 UNL     1      -8.884  14.600  22.759  1.00  0.00    -0.018 C 
HETATM   45  C19 UNL     1     -10.200  14.522  21.966  1.00  0.00     0.010 C 
HETATM   46  C20 UNL     1      -9.242  14.208  24.169  1.00  0.00     0.010 C 
ENDBRANCH  43  44
ENDBRANCH  14  43
TORSDOF 10
ENDMDL
MODEL 4
REMARK VINA RESULT: -6.555536858      1.445      6.339
REMARK  10 active torsions:
REMARK  status: ('A' for Active; 'I' for Inactive)
REMARK    1  A    between atoms: C2_2  and  C3_3 
REMARK    2  A    between atoms: C3_3  and  C5_5 
REMARK    3  A    between atoms: C8_11  and  C9_12 
REMARK    4  A    between atoms: C9_12  and  C10_13 
REMARK    5  A    between atoms: C16_22  and  C17_23 
REMARK    6  A    between atoms: C17_23  and  C18_24 
REMARK    7  A    between atoms: C21_29  and  C22_30 
REMARK    8  A    between atoms: C26_37  and  C27_38 
REMARK    9  A    between atoms: C27_38  and  C28_39 
REMARK   10  A    between atoms: C31_42  and  O4_43 
ROOT
HETATM    1  C5  UNL     1     -11.055  14.532  28.107  1.00  0.00     0.095 C 
HETATM    2  C6  UNL     1     -10.709  14.930  26.712  1.00  0.00     0.128 C 
HETATM    3  C7  UNL     1     -10.117  13.825  25.925  1.00  0.00     0.220 C 
HETATM    4  O1  UNL     1      -9.476  12.904  26.560  1.00  0.00    -0.274 OA
HETATM    5  N1  UNL     1     -10.166  13.649  24.526  1.00  0.00    -0.348 N 
ATOM      6  H1  UNL     1     -10.621  12.795  24.202  1.00  0.00     0.163 HD
HETATM    7  C8  UNL     1      -9.657  14.522  23.493  1.00  0.00     0.177 C 
HETATM    8  C13 UNL     1      -9.443  15.909  23.954  1.00  0.00     0.240 C 
HETATM    9  O2  UNL     1     -10.445  16.701  24.028  1.00  0.00    -0.271 OA
HETATM   10  N2  UNL     1      -8.180  16.392  24.314  1.00  0.00    -0.359 N 
ATOM     11  H2  UNL     1      -8.148  16.957  25.162  1.00  0.00     0.162 HD
HETATM   12  C14 UNL     1      -6.936  16.197  23.653  1.00  0.00     0.128 C 
HETATM   13  C15 UNL     1      -5.740  16.296  24.600  1.00  0.00     0.072 C 
HETATM   14  C16 UNL     1      -5.731  17.546  25.436  1.00  0.00    -0.011 C 
HETATM   15  N3  UNL     1      -6.150  17.488  26.741  1.00  0.00    -0.362 N 
ATOM     16  H3  UNL     1      -6.908  18.136  26.960  1.00  0.00     0.165 HD
HETATM   17  C21 UNL     1      -5.749  16.734  27.799  1.00  0.00     0.081 C 
HETATM   18  C25 UNL     1      -6.445  15.477  28.147  1.00  0.00     0.265 C 
HETATM   19  O3  UNL     1      -5.854  14.393  27.916  1.00  0.00    -0.266 OA
HETATM   20  N4  UNL     1      -7.743  15.384  28.729  1.00  0.00    -0.344 N 
ATOM     21  H4  UNL     1      -8.245  14.501  28.634  1.00  0.00     0.163 HD
HETATM   22  C26 UNL     1      -8.390  16.445  29.438  1.00  0.00     0.159 C 
HETATM   23  C31 UNL     1      -9.866  16.514  29.304  1.00  0.00     0.135 C 
HETATM   24  N5  UNL     1     -10.807  15.494  29.134  1.00  0.00    -0.367 N 
ATOM     25  H5  UNL     1     -11.459  15.421  29.914  1.00  0.00     0.161 HD
ENDROOT
BRANCH   1  26
HETATM   26  C3  UNL     1     -12.512  14.036  28.209  1.00  0.00     0.004 C 
HETATM   27  C4  UNL     1     -13.403  14.639  27.188  1.00  0.00     0.012 C 
BRANCH  26  28
HETATM   28  C2  UNL     1     -12.615  12.566  28.366  1.00  0.00     0.002 C 
HETATM   29  C1  UNL     1     -13.104  11.886  27.078  1.00  0.00     0.005 C 
ENDBRANCH  26  28
ENDBRANCH   1  26
BRANCH  23  30
HETATM   30  O4  UNL     1     -10.274  17.754  29.368  1.00  0.00    -0.348 OA
ATOM     31  H4  UNL     1      -9.655  18.284  29.856  1.00  0.00     0.219 HD
ENDBRANCH  23  30
BRANCH  22  32
HETATM   32  C27 UNL     1      -7.940  16.617  30.846  1.00  0.00     0.037 C 
BRANCH  32  33
HETATM   33  C28 UNL     1      -8.355  15.671  31.880  1.00  0.00    -0.020 C 
HETATM   34  C29 UNL     1      -8.613  16.251  33.256  1.00  0.00     0.009 C 
HETATM   35  C30 UNL     1      -7.571  14.423  32.066  1.00  0.00     0.009 C 
ENDBRANCH  32  33
ENDBRANCH  22  32
BRANCH   7  36
HETATM   36  C9  UNL     1     -10.449  14.468  22.226  1.00  0.00     0.038 C 
BRANCH  36  37
HETATM   37  C10 UNL     1      -9.754  14.523  20.928  1.00  0.00    -0.020 C 
HETATM   38  C11 UNL     1      -8.318  14.063  20.905  1.00  0.00     0.009 C 
HETATM   39  C12 UNL     1      -9.676  15.998  20.436  1.00  0.00     0.009 C 
ENDBRANCH  36  37
ENDBRANCH   7  36
BRANCH  17  40
HETATM   40  C22 UNL     1      -4.235  16.577  28.022  1.00  0.00     0.033 C 
HETATM   41  C23 UNL     1      -3.549  17.927  27.876  1.00  0.00     0.016 C 
HETATM   42  C24 UNL     1      -3.670  15.737  26.864  1.00  0.00     0.016 C 
ENDBRANCH  17  40
BRANCH  14  43
HETATM   43  C17 UNL     1      -4.485  18.392  25.140  1.00  0.00     0.056 C 
BRANCH  43  44
HETATM   44  C18 UNL     1      -3.582  17.707  24.131  1.00  0.00    -0.018 C 
HETATM   45  C19 UNL     1      -2.183  18.282  24.417  1.00  0.00     0.010 C 
HETATM   46  C20 UNL     1      -3.897  18.108  22.713  1.00  0.00     0.010 C 
ENDBRANCH  43  44
ENDBRANCH  14  43
TORSDOF 10
ENDMDL
MODEL 5
REMARK VINA RESULT: -6.480363558      3.346      8.851
REMARK  10 active torsions:
REMARK  status: ('A' for Active; 'I' for Inactive)
REMARK    1  A    between atoms: C2_2  and  C3_3 
REMARK    2  A    between atoms: C3_3  and  C5_5 
REMARK    3  A    between atoms: C8_11  and  C9_12 
REMARK    4  A    between atoms: C9_12  and  C10_13 
REMARK    5  A    between atoms: C16_22  and  C17_23 
REMARK    6  A    between atoms: C17_23  and  C18_24 
REMARK    7  A    between atoms: C21_29  and  C22_30 
REMARK    8  A    between atoms: C26_37  and  C27_38 
REMARK    9  A    between atoms: C27_38  and  C28_39 
REMARK   10  A    between atoms: C31_42  and  O4_43 
ROOT
HETATM    1  C5  UNL     1      -4.009  17.016  20.247  1.00  0.00     0.095 C 
HETATM    2  C6  UNL     1      -5.227  16.324  20.758  1.00  0.00     0.128 C 
HETATM    3  C7  UNL     1      -6.396  17.224  20.882  1.00  0.00     0.220 C 
HETATM    4  O1  UNL     1      -6.176  18.478  21.086  1.00  0.00    -0.274 OA
HETATM    5  N1  UNL     1      -7.759  16.872  20.802  1.00  0.00    -0.348 N 
ATOM      6  H1  UNL     1      -8.290  17.318  20.054  1.00  0.00     0.163 HD
HETATM    7  C8  UNL     1      -8.502  15.962  21.644  1.00  0.00     0.177 C 
HETATM    8  C13 UNL     1      -7.640  15.014  22.380  1.00  0.00     0.240 C 
HETATM    9  O2  UNL     1      -7.195  13.979  21.776  1.00  0.00    -0.271 OA
HETATM   10  N2  UNL     1      -7.290  15.208  23.721  1.00  0.00    -0.359 N 
ATOM     11  H2  UNL     1      -6.313  15.029  23.955  1.00  0.00     0.162 HD
HETATM   12  C14 UNL     1      -8.118  15.621  24.802  1.00  0.00     0.128 C 
HETATM   13  C15 UNL     1      -7.335  16.321  25.913  1.00  0.00     0.072 C 
HETATM   14  C16 UNL     1      -6.144  15.543  26.398  1.00  0.00    -0.011 C 
HETATM   15  N3  UNL     1      -4.890  15.884  25.957  1.00  0.00    -0.362 N 
ATOM     16  H3  UNL     1      -4.385  15.116  25.514  1.00  0.00     0.165 HD
HETATM   17  C21 UNL     1      -4.191  17.050  25.996  1.00  0.00     0.081 C 
HETATM   18  C25 UNL     1      -4.196  17.981  24.849  1.00  0.00     0.265 C 
HETATM   19  O3  UNL     1      -4.836  19.056  24.964  1.00  0.00    -0.266 OA
HETATM   20  N4  UNL     1      -3.530  17.767  23.606  1.00  0.00    -0.344 N 
ATOM     21  H4  UNL     1      -3.850  18.299  22.797  1.00  0.00     0.163 HD
HETATM   22  C26 UNL     1      -2.443  16.856  23.418  1.00  0.00     0.159 C 
HETATM   23  C31 UNL     1      -2.375  16.186  22.096  1.00  0.00     0.135 C 
HETATM   24  N5  UNL     1      -2.760  16.642  20.831  1.00  0.00    -0.367 N 
ATOM     25  H5  UNL     1      -1.977  16.725  20.183  1.00  0.00     0.161 HD
ENDROOT
BRANCH   1  26
HETATM   26  C3  UNL     1      -3.907  16.919  18.711  1.00  0.00     0.004 C 
HETATM   27  C4  UNL     1      -2.702  17.590  18.165  1.00  0.00     0.012 C 
BRANCH  26  28
HETATM   28  C2  UNL     1      -4.172  15.554  18.197  1.00  0.00     0.002 C 
HETATM   29  C1  UNL     1      -2.899  14.892  17.646  1.00  0.00     0.005 C 
ENDBRANCH  26  28
ENDBRANCH   1  26
BRANCH  23  30
HETATM   30  O4  UNL     1      -1.863  14.990  22.214  1.00  0.00    -0.348 OA
ATOM     31  H4  UNL     1      -2.305  14.379  21.636  1.00  0.00     0.219 HD
ENDBRANCH  23  30
BRANCH  22  32
HETATM   32  C27 UNL     1      -1.119  17.368  23.862  1.00  0.00     0.037 C 
BRANCH  32  33
HETATM   33  C28 UNL     1      -0.102  17.749  22.883  1.00  0.00    -0.020 C 
HETATM   34  C29 UNL     1       1.182  16.945  22.902  1.00  0.00     0.009 C 
HETATM   35  C30 UNL     1       0.273  19.181  22.760  1.00  0.00     0.009 C 
ENDBRANCH  32  33
ENDBRANCH  22  32
BRANCH   7  36
HETATM   36  C9  UNL     1      -9.616  15.266  20.929  1.00  0.00     0.038 C 
BRANCH  36  37
HETATM   37  C10 UNL     1     -10.786  14.794  21.688  1.00  0.00    -0.020 C 
HETATM   38  C11 UNL     1     -11.035  15.439  23.028  1.00  0.00     0.009 C 
HETATM   39  C12 UNL     1     -10.616  13.286  22.032  1.00  0.00     0.009 C 
ENDBRANCH  36  37
ENDBRANCH   7  36
BRANCH  17  40
HETATM   40  C22 UNL     1      -4.209  17.840  27.316  1.00  0.00     0.033 C 
HETATM   41  C23 UNL     1      -4.122  19.331  27.025  1.00  0.00     0.016 C 
HETATM   42  C24 UNL     1      -2.910  17.526  28.076  1.00  0.00     0.016 C 
ENDBRANCH  17  40
BRANCH  14  43
HETATM   43  C17 UNL     1      -6.288  15.192  27.885  1.00  0.00     0.056 C 
BRANCH  43  44
HETATM   44  C18 UNL     1      -7.711  15.414  28.367  1.00  0.00    -0.018 C 
HETATM   45  C19 UNL     1      -7.550  16.189  29.687  1.00  0.00     0.010 C 
HETATM   46  C20 UNL     1      -8.399  14.127  28.738  1.00  0.00     0.010 C 
ENDBRANCH  43  44
ENDBRANCH  14  43
TORSDOF 10
ENDMDL
