MODEL 1
REMARK VINA RESULT: -6.303449475      0.000      0.000
REMARK  1 active torsions:
REMARK  status: ('A' for Active; 'I' for Inactive)
REMARK    1  A    between atoms: C6_6  and  C7_7 
ROOT
HETATM    1  C1  UNL     1      52.430  21.644  31.476  1.00  0.00     0.011 C 
HETATM    2  C2  UNL     1      51.611  22.771  30.931  1.00  0.00    -0.006 C 
HETATM    3  C3  UNL     1      51.784  22.782  29.421  1.00  0.00     0.005 C 
HETATM    4  C4  UNL     1      50.455  23.117  28.827  1.00  0.00     0.001 C 
HETATM    5  C5  UNL     1      49.640  23.600  30.026  1.00  0.00     0.014 C 
HETATM    6  C6  UNL     1      50.143  22.618  31.092  1.00  0.00     0.079 C 
ENDROOT
BRANCH   6   7
HETATM    7  C7  UNL     1      49.611  23.031  32.387  1.00  0.00     0.235 C 
HETATM    8  N1  UNL     1      49.146  22.098  33.350  1.00  0.00    -0.062 NA
HETATM    9  O1  UNL     1      49.540  24.255  32.717  1.00  0.00    -0.276 OA
ENDBRANCH   6   7
TORSDOF 1
ENDMDL
MODEL 2
REMARK VINA RESULT: -6.228103275      1.083      1.083
REMARK  1 active torsions:
REMARK  status: ('A' for Active; 'I' for Inactive)
REMARK    1  A    between atoms: C6_6  and  C7_7 
ROOT
HETATM    1  C1  UNL     1      52.420  21.658  31.511  1.00  0.00     0.011 C 
HETATM    2  C2  UNL     1      51.626  22.771  30.904  1.00  0.00    -0.006 C 
HETATM    3  C3  UNL     1      51.812  22.705  29.397  1.00  0.00     0.005 C 
HETATM    4  C4  UNL     1      50.494  23.034  28.776  1.00  0.00     0.001 C 
HETATM    5  C5  UNL     1      49.678  23.589  29.942  1.00  0.00     0.014 C 
HETATM    6  C6  UNL     1      50.154  22.651  31.059  1.00  0.00     0.079 C 
ENDROOT
BRANCH   6   7
HETATM    7  C7  UNL     1      49.619  23.137  32.328  1.00  0.00     0.235 C 
HETATM    8  N1  UNL     1      49.384  24.515  32.575  1.00  0.00    -0.062 NA
HETATM    9  O1  UNL     1      49.335  22.344  33.277  1.00  0.00    -0.276 OA
ENDBRANCH   6   7
TORSDOF 1
ENDMDL
MODEL 3
REMARK VINA RESULT: -5.826246888      0.755      2.141
REMARK  1 active torsions:
REMARK  status: ('A' for Active; 'I' for Inactive)
REMARK    1  A    between atoms: C6_6  and  C7_7 
ROOT
HETATM    1  C1  UNL     1      50.091  23.497  29.154  1.00  0.00     0.011 C 
HETATM    2  C2  UNL     1      50.573  22.564  30.220  1.00  0.00    -0.006 C 
HETATM    3  C3  UNL     1      51.894  21.974  29.755  1.00  0.00     0.005 C 
HETATM    4  C4  UNL     1      52.781  21.882  30.953  1.00  0.00     0.001 C 
HETATM    5  C5  UNL     1      51.829  22.128  32.123  1.00  0.00     0.014 C 
HETATM    6  C6  UNL     1      50.937  23.213  31.505  1.00  0.00     0.079 C 
ENDROOT
BRANCH   6   7
HETATM    7  C7  UNL     1      49.822  23.465  32.414  1.00  0.00     0.235 C 
HETATM    8  N1  UNL     1      49.196  22.429  33.155  1.00  0.00    -0.062 NA
HETATM    9  O1  UNL     1      49.356  24.634  32.587  1.00  0.00    -0.276 OA
ENDBRANCH   6   7
TORSDOF 1
ENDMDL
MODEL 4
REMARK VINA RESULT: -5.754814734      1.342      2.402
REMARK  1 active torsions:
REMARK  status: ('A' for Active; 'I' for Inactive)
REMARK    1  A    between atoms: C6_6  and  C7_7 
ROOT
HETATM    1  C1  UNL     1      50.131  23.467  29.116  1.00  0.00     0.011 C 
HETATM    2  C2  UNL     1      50.553  22.574  30.239  1.00  0.00    -0.006 C 
HETATM    3  C3  UNL     1      51.895  21.965  29.868  1.00  0.00     0.005 C 
HETATM    4  C4  UNL     1      52.717  21.917  31.114  1.00  0.00     0.001 C 
HETATM    5  C5  UNL     1      51.706  22.206  32.221  1.00  0.00     0.014 C 
HETATM    6  C6  UNL     1      50.850  23.269  31.518  1.00  0.00     0.079 C 
ENDROOT
BRANCH   6   7
HETATM    7  C7  UNL     1      49.690  23.556  32.356  1.00  0.00     0.235 C 
HETATM    8  N1  UNL     1      48.962  24.770  32.255  1.00  0.00    -0.062 NA
HETATM    9  O1  UNL     1      49.272  22.726  33.221  1.00  0.00    -0.276 OA
ENDBRANCH   6   7
TORSDOF 1
ENDMDL
MODEL 5
REMARK VINA RESULT: -5.677571527      3.107      3.681
REMARK  1 active torsions:
REMARK  status: ('A' for Active; 'I' for Inactive)
REMARK    1  A    between atoms: C6_6  and  C7_7 
ROOT
HETATM    1  C1  UNL     1      52.672  21.645  31.282  1.00  0.00     0.011 C 
HETATM    2  C2  UNL     1      51.364  21.967  30.633  1.00  0.00    -0.006 C 
HETATM    3  C3  UNL     1      50.396  22.390  31.726  1.00  0.00     0.005 C 
HETATM    4  C4  UNL     1      49.576  23.512  31.179  1.00  0.00     0.001 C 
HETATM    5  C5  UNL     1      49.885  23.485  29.683  1.00  0.00     0.014 C 
HETATM    6  C6  UNL     1      51.381  23.150  29.734  1.00  0.00     0.079 C 
ENDROOT
BRANCH   6   7
HETATM    7  C7  UNL     1      51.843  22.893  28.374  1.00  0.00     0.235 C 
HETATM    8  N1  UNL     1      52.586  23.847  27.631  1.00  0.00    -0.062 NA
HETATM    9  O1  UNL     1      51.601  21.794  27.785  1.00  0.00    -0.276 OA
ENDBRANCH   6   7
TORSDOF 1
ENDMDL
