MODEL 1
REMARK VINA RESULT: -4.021378739      0.000      0.000
REMARK  2 active torsions:
REMARK  status: ('A' for Active; 'I' for Inactive)
REMARK    1  A    between atoms: C2_2  and  C3_3 
REMARK    2  A    between atoms: C3_3  and  N1_4 
ROOT
HETATM    1  C3  UNL     1      52.542  21.631  29.647  1.00  0.00     0.276 C 
HETATM    2 BR1  UNL     1      51.325  22.955  28.892  1.00  0.00    -0.057 Br
ENDROOT
BRANCH   1   3
HETATM    3  C2  UNL     1      52.580  21.773  31.093  1.00  0.00     0.007 C 
HETATM    4  C1  UNL     1      51.695  22.514  31.728  1.00  0.00     0.010 C 
ENDBRANCH   1   3
BRANCH   1   5
HETATM    5  N1  UNL     1      53.822  21.818  29.001  1.00  0.00    -0.062 N 
ATOM      6  H13 UNL     1      53.695  22.161  28.048  1.00  0.00     0.276 HD
ATOM      7  H12 UNL     1      54.314  22.613  29.407  1.00  0.00     0.276 HD
ATOM      8  H11 UNL     1      54.417  20.990  29.005  1.00  0.00     0.276 HD
ENDBRANCH   1   5
TORSDOF 2
ENDMDL
MODEL 2
REMARK VINA RESULT: -3.969655681      1.859      1.925
REMARK  2 active torsions:
REMARK  status: ('A' for Active; 'I' for Inactive)
REMARK    1  A    between atoms: C2_2  and  C3_3 
REMARK    2  A    between atoms: C3_3  and  N1_4 
ROOT
HETATM    1  C3  UNL     1      52.263  22.125  29.226  1.00  0.00     0.276 C 
HETATM    2 BR1  UNL     1      52.787  23.131  27.639  1.00  0.00    -0.057 Br
ENDROOT
BRANCH   1   3
HETATM    3  C2  UNL     1      51.224  22.848  29.940  1.00  0.00     0.007 C 
HETATM    4  C1  UNL     1      50.166  23.319  29.311  1.00  0.00     0.010 C 
ENDBRANCH   1   3
BRANCH   1   5
HETATM    5  N1  UNL     1      53.464  21.900  29.999  1.00  0.00    -0.062 N 
ATOM      6  H13 UNL     1      54.191  22.565  29.732  1.00  0.00     0.276 HD
ATOM      7  H12 UNL     1      53.323  22.180  30.969  1.00  0.00     0.276 HD
ATOM      8  H11 UNL     1      53.819  20.945  29.950  1.00  0.00     0.276 HD
ENDBRANCH   1   5
TORSDOF 2
ENDMDL
MODEL 3
REMARK VINA RESULT: -3.897260141      2.155      2.354
REMARK  2 active torsions:
REMARK  status: ('A' for Active; 'I' for Inactive)
REMARK    1  A    between atoms: C2_2  and  C3_3 
REMARK    2  A    between atoms: C3_3  and  N1_4 
ROOT
HETATM    1  C3  UNL     1      52.205  22.351  29.488  1.00  0.00     0.276 C 
HETATM    2 BR1  UNL     1      51.779  22.299  31.391  1.00  0.00    -0.057 Br
ENDROOT
BRANCH   1   3
HETATM    3  C2  UNL     1      51.056  22.841  28.745  1.00  0.00     0.007 C 
HETATM    4  C1  UNL     1      50.005  23.338  29.365  1.00  0.00     0.010 C 
ENDBRANCH   1   3
BRANCH   1   5
HETATM    5  N1  UNL     1      52.627  21.019  29.114  1.00  0.00    -0.062 N 
ATOM      6  H13 UNL     1      52.385  20.827  28.141  1.00  0.00     0.276 HD
ATOM      7  H12 UNL     1      53.643  20.971  29.052  1.00  0.00     0.276 HD
ATOM      8  H11 UNL     1      52.270  20.283  29.722  1.00  0.00     0.276 HD
ENDBRANCH   1   5
TORSDOF 2
ENDMDL
MODEL 4
REMARK VINA RESULT: -3.848803637      2.836      2.928
REMARK  2 active torsions:
REMARK  status: ('A' for Active; 'I' for Inactive)
REMARK    1  A    between atoms: C2_2  and  C3_3 
REMARK    2  A    between atoms: C3_3  and  N1_4 
ROOT
HETATM    1  C3  UNL     1      53.235  22.530  27.814  1.00  0.00     0.276 C 
HETATM    2 BR1  UNL     1      54.764  23.395  26.965  1.00  0.00    -0.057 Br
ENDROOT
BRANCH   1   3
HETATM    3  C2  UNL     1      52.182  23.507  28.030  1.00  0.00     0.007 C 
HETATM    4  C1  UNL     1      51.098  23.202  28.715  1.00  0.00     0.010 C 
ENDBRANCH   1   3
BRANCH   1   5
HETATM    5  N1  UNL     1      53.722  21.907  29.025  1.00  0.00    -0.062 N 
ATOM      6  H13 UNL     1      54.682  22.196  29.215  1.00  0.00     0.276 HD
ATOM      7  H12 UNL     1      53.258  22.303  29.842  1.00  0.00     0.276 HD
ATOM      8  H11 UNL     1      53.648  20.890  29.030  1.00  0.00     0.276 HD
ENDBRANCH   1   5
TORSDOF 2
ENDMDL
MODEL 5
REMARK VINA RESULT: -3.793054293      0.908      1.116
REMARK  2 active torsions:
REMARK  status: ('A' for Active; 'I' for Inactive)
REMARK    1  A    between atoms: C2_2  and  C3_3 
REMARK    2  A    between atoms: C3_3  and  N1_4 
ROOT
HETATM    1  C3  UNL     1      52.052  21.922  30.457  1.00  0.00     0.276 C 
HETATM    2 BR1  UNL     1      51.301  22.903  28.947  1.00  0.00    -0.057 Br
ENDROOT
BRANCH   1   3
HETATM    3  C2  UNL     1      51.673  22.577  31.698  1.00  0.00     0.007 C 
HETATM    4  C1  UNL     1      50.470  22.420  32.213  1.00  0.00     0.010 C 
ENDBRANCH   1   3
BRANCH   1   5
HETATM    5  N1  UNL     1      53.480  21.844  30.242  1.00  0.00    -0.062 N 
ATOM      6  H13 UNL     1      53.967  22.529  30.820  1.00  0.00     0.276 HD
ATOM      7  H12 UNL     1      53.855  20.984  30.641  1.00  0.00     0.276 HD
ATOM      8  H11 UNL     1      53.760  21.937  29.266  1.00  0.00     0.276 HD
ENDBRANCH   1   5
TORSDOF 2
ENDMDL
