MODEL 1
REMARK VINA RESULT: -5.269976313      0.000      0.000
REMARK  4 active torsions:
REMARK  status: ('A' for Active; 'I' for Inactive)
REMARK    1  A    between atoms: N1_1  and  C1_5 
REMARK    2  A    between atoms: C1_5  and  C2_6 
REMARK    3  A    between atoms: C2_6  and  C3_7 
REMARK    4  A    between atoms: C4_8  and  C5_9 
ROOT
HETATM    1  C5  UNL     1      20.066  33.922  78.845  1.00  0.00     0.088 A 
HETATM    2  C6  UNL     1      21.345  33.424  78.673  1.00  0.00     0.056 A 
HETATM    3  C7  UNL     1      22.474  34.187  78.892  1.00  0.00     0.091 A 
HETATM    4  N2  UNL     1      22.314  35.455  79.286  1.00  0.00    -0.362 N 
ATOM      5  H2  UNL     1      23.127  36.046  79.456  1.00  0.00     0.165 HD
HETATM    6  C8  UNL     1      21.073  35.944  79.456  1.00  0.00     0.181 A 
HETATM    7  N3  UNL     1      19.968  35.207  79.244  1.00  0.00    -0.345 N 
ATOM      8  H3  UNL     1      19.047  35.622  79.386  1.00  0.00     0.167 HD
ENDROOT
BRANCH   1   9
HETATM    9  C4  UNL     1      18.894  33.108  78.611  1.00  0.00    -0.049 C 
HETATM   10  C3  UNL     1      17.910  32.427  78.430  1.00  0.00    -0.098 C 
BRANCH  10  11
HETATM   11  C2  UNL     1      16.709  31.597  78.235  1.00  0.00     0.121 C 
BRANCH  11  12
HETATM   12  C1  UNL     1      15.963  32.178  77.060  1.00  0.00     0.241 C 
BRANCH  12  13
HETATM   13  N1  UNL     1      14.976  31.239  76.620  1.00  0.00    -0.079 N 
ATOM     14  H13 UNL     1      14.059  31.421  77.028  1.00  0.00     0.274 HD
ATOM     15  H12 UNL     1      14.725  31.371  75.640  1.00  0.00     0.274 HD
ATOM     16  H11 UNL     1      15.306  30.293  76.813  1.00  0.00     0.274 HD
ENDBRANCH  12  13
ENDBRANCH  11  12
ENDBRANCH  10  11
ENDBRANCH   1   9
TORSDOF 4
ENDMDL
MODEL 2
REMARK VINA RESULT: -5.260243682      0.885      1.427
REMARK  4 active torsions:
REMARK  status: ('A' for Active; 'I' for Inactive)
REMARK    1  A    between atoms: N1_1  and  C1_5 
REMARK    2  A    between atoms: C1_5  and  C2_6 
REMARK    3  A    between atoms: C2_6  and  C3_7 
REMARK    4  A    between atoms: C4_8  and  C5_9 
ROOT
HETATM    1  C5  UNL     1      20.065  33.586  78.815  1.00  0.00     0.088 A 
HETATM    2  C6  UNL     1      20.014  34.942  79.083  1.00  0.00     0.056 A 
HETATM    3  C7  UNL     1      21.148  35.704  79.274  1.00  0.00     0.091 A 
HETATM    4  N2  UNL     1      22.338  35.098  79.193  1.00  0.00    -0.362 N 
ATOM      5  H2  UNL     1      23.197  35.632  79.329  1.00  0.00     0.165 HD
HETATM    6  C8  UNL     1      22.394  33.780  78.931  1.00  0.00     0.181 A 
HETATM    7  N3  UNL     1      21.292  33.031  78.745  1.00  0.00    -0.345 N 
ATOM      8  H3  UNL     1      21.385  32.034  78.549  1.00  0.00     0.167 HD
ENDROOT
BRANCH   1   9
HETATM    9  C4  UNL     1      18.865  32.803  78.618  1.00  0.00    -0.049 C 
HETATM   10  C3  UNL     1      17.854  32.161  78.448  1.00  0.00    -0.098 C 
BRANCH  10  11
HETATM   11  C2  UNL     1      16.611  31.400  78.235  1.00  0.00     0.121 C 
BRANCH  11  12
HETATM   12  C1  UNL     1      15.870  32.080  77.112  1.00  0.00     0.241 C 
BRANCH  12  13
HETATM   13  N1  UNL     1      14.897  31.176  76.576  1.00  0.00    -0.079 N 
ATOM     14  H13 UNL     1      14.922  30.265  77.033  1.00  0.00     0.274 HD
ATOM     15  H12 UNL     1      13.944  31.437  76.830  1.00  0.00     0.274 HD
ATOM     16  H11 UNL     1      15.025  31.108  75.566  1.00  0.00     0.274 HD
ENDBRANCH  12  13
ENDBRANCH  11  12
ENDBRANCH  10  11
ENDBRANCH   1   9
TORSDOF 4
ENDMDL
MODEL 3
REMARK VINA RESULT: -4.291261982      1.172      1.276
REMARK  4 active torsions:
REMARK  status: ('A' for Active; 'I' for Inactive)
REMARK    1  A    between atoms: N1_1  and  C1_5 
REMARK    2  A    between atoms: C1_5  and  C2_6 
REMARK    3  A    between atoms: C2_6  and  C3_7 
REMARK    4  A    between atoms: C4_8  and  C5_9 
ROOT
HETATM    1  C5  UNL     1      19.822  34.055  78.815  1.00  0.00     0.088 A 
HETATM    2  C6  UNL     1      21.029  33.403  78.636  1.00  0.00     0.056 A 
HETATM    3  C7  UNL     1      22.242  33.995  78.918  1.00  0.00     0.091 A 
HETATM    4  N2  UNL     1      22.241  35.249  79.383  1.00  0.00    -0.362 N 
ATOM      5  H2  UNL     1      23.120  35.717  79.601  1.00  0.00     0.165 HD
HETATM    6  C8  UNL     1      21.071  35.889  79.560  1.00  0.00     0.181 A 
HETATM    7  N3  UNL     1      19.884  35.317  79.287  1.00  0.00    -0.345 N 
ATOM      8  H3  UNL     1      19.023  35.843  79.437  1.00  0.00     0.167 HD
ENDROOT
BRANCH   1   9
HETATM    9  C4  UNL     1      18.560  33.418  78.514  1.00  0.00    -0.049 C 
HETATM   10  C3  UNL     1      17.500  32.896  78.250  1.00  0.00    -0.098 C 
BRANCH  10  11
HETATM   11  C2  UNL     1      16.205  32.280  77.914  1.00  0.00     0.121 C 
BRANCH  11  12
HETATM   12  C1  UNL     1      16.286  30.835  78.338  1.00  0.00     0.241 C 
BRANCH  12  13
HETATM   13  N1  UNL     1      16.590  30.774  79.736  1.00  0.00    -0.079 N 
ATOM     14  H13 UNL     1      15.862  30.302  80.270  1.00  0.00     0.274 HD
ATOM     15  H12 UNL     1      17.356  30.130  79.938  1.00  0.00     0.274 HD
ATOM     16  H11 UNL     1      16.775  31.716  80.079  1.00  0.00     0.274 HD
ENDBRANCH  12  13
ENDBRANCH  11  12
ENDBRANCH  10  11
ENDBRANCH   1   9
TORSDOF 4
ENDMDL
MODEL 4
REMARK VINA RESULT: -3.806562181      1.586      5.753
REMARK  4 active torsions:
REMARK  status: ('A' for Active; 'I' for Inactive)
REMARK    1  A    between atoms: N1_1  and  C1_5 
REMARK    2  A    between atoms: C1_5  and  C2_6 
REMARK    3  A    between atoms: C2_6  and  C3_7 
REMARK    4  A    between atoms: C4_8  and  C5_9 
ROOT
HETATM    1  C5  UNL     1      18.096  32.849  78.409  1.00  0.00     0.088 A 
HETATM    2  C6  UNL     1      16.910  33.379  77.935  1.00  0.00     0.056 A 
HETATM    3  C7  UNL     1      15.790  32.608  77.709  1.00  0.00     0.091 A 
HETATM    4  N2  UNL     1      15.863  31.296  77.962  1.00  0.00    -0.362 N 
ATOM      5  H2  UNL     1      15.053  30.697  77.805  1.00  0.00     0.165 HD
HETATM    6  C8  UNL     1      17.013  30.774  78.423  1.00  0.00     0.181 A 
HETATM    7  N3  UNL     1      18.111  31.521  78.645  1.00  0.00    -0.345 N 
ATOM      8  H3  UNL     1      18.961  31.079  78.995  1.00  0.00     0.167 HD
ENDROOT
BRANCH   1   9
HETATM    9  C4  UNL     1      19.261  33.673  78.639  1.00  0.00    -0.049 C 
HETATM   10  C3  UNL     1      20.245  34.350  78.837  1.00  0.00    -0.098 C 
BRANCH  10  11
HETATM   11  C2  UNL     1      21.452  35.155  79.090  1.00  0.00     0.121 C 
BRANCH  11  12
HETATM   12  C1  UNL     1      22.628  34.341  78.611  1.00  0.00     0.241 C 
BRANCH  12  13
HETATM   13  N1  UNL     1      22.690  33.122  79.360  1.00  0.00    -0.079 N 
ATOM     14  H13 UNL     1      21.774  32.828  79.697  1.00  0.00     0.274 HD
ATOM     15  H12 UNL     1      22.893  32.315  78.771  1.00  0.00     0.274 HD
ATOM     16  H11 UNL     1      23.366  33.230  80.117  1.00  0.00     0.274 HD
ENDBRANCH  12  13
ENDBRANCH  11  12
ENDBRANCH  10  11
ENDBRANCH   1   9
TORSDOF 4
ENDMDL
MODEL 5
REMARK VINA RESULT: -3.752807263      1.418      5.836
REMARK  4 active torsions:
REMARK  status: ('A' for Active; 'I' for Inactive)
REMARK    1  A    between atoms: N1_1  and  C1_5 
REMARK    2  A    between atoms: C1_5  and  C2_6 
REMARK    3  A    between atoms: C2_6  and  C3_7 
REMARK    4  A    between atoms: C4_8  and  C5_9 
ROOT
HETATM    1  C5  UNL     1      17.851  32.552  78.364  1.00  0.00     0.088 A 
HETATM    2  C6  UNL     1      16.934  33.021  77.440  1.00  0.00     0.056 A 
HETATM    3  C7  UNL     1      15.751  32.366  77.171  1.00  0.00     0.091 A 
HETATM    4  N2  UNL     1      15.489  31.235  77.834  1.00  0.00    -0.362 N 
ATOM      5  H2  UNL     1      14.622  30.725  77.659  1.00  0.00     0.165 HD
HETATM    6  C8  UNL     1      16.376  30.774  78.734  1.00  0.00     0.181 A 
HETATM    7  N3  UNL     1      17.533  31.407  79.001  1.00  0.00    -0.345 N 
ATOM      8  H3  UNL     1      18.174  31.018  79.692  1.00  0.00     0.167 HD
ENDROOT
BRANCH   1   9
HETATM    9  C4  UNL     1      19.088  33.252  78.633  1.00  0.00    -0.049 C 
HETATM   10  C3  UNL     1      20.122  33.844  78.843  1.00  0.00    -0.098 C 
BRANCH  10  11
HETATM   11  C2  UNL     1      21.381  34.572  79.076  1.00  0.00     0.121 C 
BRANCH  11  12
HETATM   12  C1  UNL     1      21.031  36.037  79.146  1.00  0.00     0.241 C 
BRANCH  12  13
HETATM   13  N1  UNL     1      20.773  36.393  80.509  1.00  0.00    -0.079 N 
ATOM     14  H13 UNL     1      21.069  35.668  81.161  1.00  0.00     0.274 HD
ATOM     15  H12 UNL     1      21.384  37.140  80.837  1.00  0.00     0.274 HD
ATOM     16  H11 UNL     1      19.785  36.627  80.611  1.00  0.00     0.274 HD
ENDBRANCH  12  13
ENDBRANCH  11  12
ENDBRANCH  10  11
ENDBRANCH   1   9
TORSDOF 4
ENDMDL
