MODEL 1
REMARK VINA RESULT: -4.475639013      0.000      0.000
REMARK  1 active torsions:
REMARK  status: ('A' for Active; 'I' for Inactive)
REMARK    1  A    between atoms: C3_3  and  N1_4 
ROOT
HETATM    1  C1  UNL     1      21.246  35.815  71.806  1.00  0.00     0.014 C 
HETATM    2  C2  UNL     1      20.846  36.921  72.091  1.00  0.00    -0.097 C 
HETATM    3  C3  UNL     1      20.371  38.266  72.462  1.00  0.00     0.239 C 
ENDROOT
BRANCH   3   4
HETATM    4  N1  UNL     1      21.351  38.945  73.273  1.00  0.00    -0.180 N 
HETATM    5  C4  UNL     1      22.558  39.362  72.847  1.00  0.00     0.151 A 
HETATM    6  C5  UNL     1      23.235  39.972  73.885  1.00  0.00     0.145 A 
HETATM    7  C6  UNL     1      24.545  40.560  73.881  1.00  0.00     0.119 C 
HETATM    8  N3  UNL     1      22.421  39.921  74.955  1.00  0.00    -0.181 N 
HETATM    9  N2  UNL     1      25.602  41.053  73.883  1.00  0.00    -0.190 NA
HETATM   10  C7  UNL     1      21.291  39.301  74.573  1.00  0.00     0.679 A 
ATOM     11  H3  UNL     1      22.625  40.286  75.886  1.00  0.00     0.185 HD
HETATM   12  N4  UNL     1      20.234  39.040  75.297  1.00  0.00    -0.234 N 
ATOM     13  H42 UNL     1      19.376  38.569  75.008  1.00  0.00     0.174 HD
ATOM     14  H41 UNL     1      20.188  39.309  76.280  1.00  0.00     0.174 HD
ENDBRANCH   3   4
TORSDOF 1
ENDMDL
MODEL 2
REMARK VINA RESULT: -4.082526525      7.307      8.498
REMARK  1 active torsions:
REMARK  status: ('A' for Active; 'I' for Inactive)
REMARK    1  A    between atoms: C3_3  and  N1_4 
ROOT
HETATM    1  C1  UNL     1      25.696  32.240  80.859  1.00  0.00     0.014 C 
HETATM    2  C2  UNL     1      25.471  33.067  80.005  1.00  0.00    -0.097 C 
HETATM    3  C3  UNL     1      25.172  34.068  78.966  1.00  0.00     0.239 C 
ENDROOT
BRANCH   3   4
HETATM    4  N1  UNL     1      23.871  34.653  79.184  1.00  0.00    -0.180 N 
HETATM    5  C4  UNL     1      22.700  34.093  78.830  1.00  0.00     0.151 A 
HETATM    6  C5  UNL     1      21.657  34.924  79.189  1.00  0.00     0.145 A 
HETATM    7  C6  UNL     1      20.247  34.729  79.005  1.00  0.00     0.119 C 
HETATM    8  N3  UNL     1      22.211  36.005  79.768  1.00  0.00    -0.181 N 
HETATM    9  N2  UNL     1      19.098  34.571  78.873  1.00  0.00    -0.190 NA
HETATM   10  C7  UNL     1      23.544  35.828  79.760  1.00  0.00     0.679 A 
ATOM     11  H3  UNL     1      21.712  36.810  80.146  1.00  0.00     0.185 HD
HETATM   12  N4  UNL     1      24.464  36.633  80.223  1.00  0.00    -0.234 N 
ATOM     13  H42 UNL     1      25.476  36.500  80.216  1.00  0.00     0.174 HD
ATOM     14  H41 UNL     1      24.217  37.522  80.658  1.00  0.00     0.174 HD
ENDBRANCH   3   4
TORSDOF 1
ENDMDL
MODEL 3
REMARK VINA RESULT: -4.065522726      9.737     10.942
REMARK  1 active torsions:
REMARK  status: ('A' for Active; 'I' for Inactive)
REMARK    1  A    between atoms: C3_3  and  N1_4 
ROOT
HETATM    1  C1  UNL     1      29.713  45.388  80.496  1.00  0.00     0.014 C 
HETATM    2  C2  UNL     1      29.360  46.297  79.780  1.00  0.00    -0.097 C 
HETATM    3  C3  UNL     1      28.939  47.391  78.887  1.00  0.00     0.239 C 
ENDROOT
BRANCH   3   4
HETATM    4  N1  UNL     1      28.552  46.874  77.597  1.00  0.00    -0.180 N 
HETATM    5  C4  UNL     1      29.398  46.583  76.592  1.00  0.00     0.151 A 
HETATM    6  C5  UNL     1      28.688  46.109  75.506  1.00  0.00     0.145 A 
HETATM    7  C6  UNL     1      29.180  45.682  74.227  1.00  0.00     0.119 C 
HETATM    8  N3  UNL     1      27.391  46.116  75.864  1.00  0.00    -0.181 N 
HETATM    9  N2  UNL     1      29.573  45.319  73.190  1.00  0.00    -0.190 NA
HETATM   10  C7  UNL     1      27.323  46.578  77.125  1.00  0.00     0.679 A 
ATOM     11  H3  UNL     1      26.603  45.824  75.285  1.00  0.00     0.185 HD
HETATM   12  N4  UNL     1      26.256  46.747  77.862  1.00  0.00    -0.234 N 
ATOM     13  H42 UNL     1      26.204  47.097  78.819  1.00  0.00     0.174 HD
ATOM     14  H41 UNL     1      25.327  46.523  77.506  1.00  0.00     0.174 HD
ENDBRANCH   3   4
TORSDOF 1
ENDMDL
MODEL 4
REMARK VINA RESULT: -3.599590252      9.514     10.825
REMARK  1 active torsions:
REMARK  status: ('A' for Active; 'I' for Inactive)
REMARK    1  A    between atoms: C3_3  and  N1_4 
ROOT
HETATM    1  C1  UNL     1      30.094  44.719  73.740  1.00  0.00     0.014 C 
HETATM    2  C2  UNL     1      29.702  45.805  74.101  1.00  0.00    -0.097 C 
HETATM    3  C3  UNL     1      29.204  47.116  74.555  1.00  0.00     0.239 C 
ENDROOT
BRANCH   3   4
HETATM    4  N1  UNL     1      28.656  47.019  75.885  1.00  0.00    -0.180 N 
HETATM    5  C4  UNL     1      29.282  47.407  77.013  1.00  0.00     0.151 A 
HETATM    6  C5  UNL     1      28.468  47.171  78.103  1.00  0.00     0.145 A 
HETATM    7  C6  UNL     1      28.728  47.429  79.491  1.00  0.00     0.119 C 
HETATM    8  N3  UNL     1      27.333  46.630  77.624  1.00  0.00    -0.181 N 
HETATM    9  N2  UNL     1      28.925  47.648  80.620  1.00  0.00    -0.190 NA
HETATM   10  C7  UNL     1      27.459  46.545  76.288  1.00  0.00     0.679 A 
ATOM     11  H3  UNL     1      26.524  46.338  78.173  1.00  0.00     0.185 HD
HETATM   12  N4  UNL     1      26.591  46.081  75.427  1.00  0.00    -0.234 N 
ATOM     13  H42 UNL     1      26.687  46.016  74.413  1.00  0.00     0.174 HD
ATOM     14  H41 UNL     1      25.686  45.723  75.731  1.00  0.00     0.174 HD
ENDBRANCH   3   4
TORSDOF 1
ENDMDL
MODEL 5
REMARK VINA RESULT: -3.392333942      7.516      8.981
REMARK  1 active torsions:
REMARK  status: ('A' for Active; 'I' for Inactive)
REMARK    1  A    between atoms: C3_3  and  N1_4 
ROOT
HETATM    1  C1  UNL     1      24.787  37.175  80.831  1.00  0.00     0.014 C 
HETATM    2  C2  UNL     1      24.816  36.342  79.954  1.00  0.00    -0.097 C 
HETATM    3  C3  UNL     1      24.842  35.310  78.902  1.00  0.00     0.239 C 
ENDROOT
BRANCH   3   4
HETATM    4  N1  UNL     1      23.760  34.372  79.084  1.00  0.00    -0.180 N 
HETATM    5  C4  UNL     1      22.481  34.583  78.722  1.00  0.00     0.151 A 
HETATM    6  C5  UNL     1      21.717  33.479  79.042  1.00  0.00     0.145 A 
HETATM    7  C6  UNL     1      20.312  33.268  78.838  1.00  0.00     0.119 C 
HETATM    8  N3  UNL     1      22.551  32.588  79.609  1.00  0.00    -0.181 N 
HETATM    9  N2  UNL     1      19.173  33.082  78.661  1.00  0.00    -0.190 NA
HETATM   10  C7  UNL     1      23.777  33.137  79.627  1.00  0.00     0.679 A 
ATOM     11  H3  UNL     1      22.298  31.663  79.960  1.00  0.00     0.185 HD
HETATM   12  N4  UNL     1      24.885  32.617  80.088  1.00  0.00    -0.234 N 
ATOM     13  H42 UNL     1      25.816  33.034  80.102  1.00  0.00     0.174 HD
ATOM     14  H41 UNL     1      24.897  31.683  80.498  1.00  0.00     0.174 HD
ENDBRANCH   3   4
TORSDOF 1
ENDMDL
