MODEL 1
REMARK VINA RESULT: -5.181607938      0.000      0.000
REMARK  2 active torsions:
REMARK  status: ('A' for Active; 'I' for Inactive)
REMARK    1  A    between atoms: C2_3  and  N2_4 
REMARK    2  A    between atoms: N2_4  and  C3_6 
ROOT
HETATM    1  N1  UNL     1      25.951  32.302  80.710  1.00  0.00    -0.196 NA
HETATM    2  C1  UNL     1      25.431  33.168  80.137  1.00  0.00     0.078 C 
HETATM    3  C2  UNL     1      24.765  34.251  79.425  1.00  0.00     0.244 C 
ENDROOT
BRANCH   3   4
HETATM    4  N2  UNL     1      23.589  33.724  78.803  1.00  0.00    -0.377 N 
ATOM      5  H2  UNL     1      23.692  32.887  78.231  1.00  0.00     0.160 HD
BRANCH   4   6
HETATM    6  C3  UNL     1      22.411  34.229  78.913  1.00  0.00     0.033 A 
HETATM    7  C4  UNL     1      22.161  35.557  79.173  1.00  0.00     0.046 A 
HETATM    8  C5  UNL     1      20.874  36.046  79.281  1.00  0.00     0.091 A 
HETATM    9  N3  UNL     1      19.814  35.236  79.134  1.00  0.00    -0.354 N 
HETATM   10  C6  UNL     1      20.047  33.941  78.881  1.00  0.00     0.118 A 
ATOM     11  H3  UNL     1      18.862  35.594  79.213  1.00  0.00     0.166 HD
HETATM   12  N4  UNL     1      18.956  33.055  78.720  1.00  0.00    -0.083 NA
HETATM   13  C7  UNL     1      21.318  33.401  78.763  1.00  0.00     0.074 A 
ENDBRANCH   4   6
ENDBRANCH   3   4
TORSDOF 2
ENDMDL
MODEL 2
REMARK VINA RESULT: -4.827053651      7.459      8.718
REMARK  2 active torsions:
REMARK  status: ('A' for Active; 'I' for Inactive)
REMARK    1  A    between atoms: C2_3  and  N2_4 
REMARK    2  A    between atoms: N2_4  and  C3_6 
ROOT
HETATM    1  N1  UNL     1      21.551  35.307  71.925  1.00  0.00    -0.196 NA
HETATM    2  C1  UNL     1      21.007  36.334  71.901  1.00  0.00     0.078 C 
HETATM    3  C2  UNL     1      20.339  37.628  71.876  1.00  0.00     0.244 C 
ENDROOT
BRANCH   3   4
HETATM    4  N2  UNL     1      20.492  38.239  73.161  1.00  0.00    -0.377 N 
ATOM      5  H2  UNL     1      19.751  38.090  73.845  1.00  0.00     0.160 HD
BRANCH   4   6
HETATM    6  C3  UNL     1      21.495  38.961  73.516  1.00  0.00     0.033 A 
HETATM    7  C4  UNL     1      21.717  39.397  74.802  1.00  0.00     0.046 A 
HETATM    8  C5  UNL     1      22.813  40.173  75.127  1.00  0.00     0.091 A 
HETATM    9  N3  UNL     1      23.707  40.529  74.192  1.00  0.00    -0.354 N 
HETATM   10  C6  UNL     1      23.501  40.110  72.936  1.00  0.00     0.118 A 
ATOM     11  H3  UNL     1      24.517  41.102  74.429  1.00  0.00     0.166 HD
HETATM   12  N4  UNL     1      24.421  40.465  71.923  1.00  0.00    -0.083 NA
HETATM   13  C7  UNL     1      22.418  39.331  72.558  1.00  0.00     0.074 A 
ENDBRANCH   4   6
ENDBRANCH   3   4
TORSDOF 2
ENDMDL
MODEL 3
REMARK VINA RESULT: -4.473376112      0.726      1.953
REMARK  2 active torsions:
REMARK  status: ('A' for Active; 'I' for Inactive)
REMARK    1  A    between atoms: C2_3  and  N2_4 
REMARK    2  A    between atoms: N2_4  and  C3_6 
ROOT
HETATM    1  N1  UNL     1      25.843  32.345  80.542  1.00  0.00    -0.196 NA
HETATM    2  C1  UNL     1      25.390  33.304  80.067  1.00  0.00     0.078 C 
HETATM    3  C2  UNL     1      24.809  34.502  79.475  1.00  0.00     0.244 C 
ENDROOT
BRANCH   3   4
HETATM    4  N2  UNL     1      23.749  34.103  78.602  1.00  0.00    -0.377 N 
ATOM      5  H2  UNL     1      24.002  33.605  77.748  1.00  0.00     0.160 HD
BRANCH   4   6
HETATM    6  C3  UNL     1      22.500  34.325  78.813  1.00  0.00     0.033 A 
HETATM    7  C4  UNL     1      21.490  33.460  78.459  1.00  0.00     0.046 A 
HETATM    8  C5  UNL     1      20.163  33.751  78.710  1.00  0.00     0.091 A 
HETATM    9  N3  UNL     1      19.811  34.897  79.313  1.00  0.00    -0.354 N 
HETATM   10  C6  UNL     1      20.786  35.746  79.662  1.00  0.00     0.118 A 
ATOM     11  H3  UNL     1      18.832  35.114  79.500  1.00  0.00     0.166 HD
HETATM   12  N4  UNL     1      20.455  36.964  80.300  1.00  0.00    -0.083 NA
HETATM   13  C7  UNL     1      22.131  35.502  79.433  1.00  0.00     0.074 A 
ENDBRANCH   4   6
ENDBRANCH   3   4
TORSDOF 2
ENDMDL
MODEL 4
REMARK VINA RESULT: -4.368071813      1.276      1.679
REMARK  2 active torsions:
REMARK  status: ('A' for Active; 'I' for Inactive)
REMARK    1  A    between atoms: C2_3  and  N2_4 
REMARK    2  A    between atoms: N2_4  and  C3_6 
ROOT
HETATM    1  N1  UNL     1      24.795  36.786  80.474  1.00  0.00    -0.196 NA
HETATM    2  C1  UNL     1      24.750  35.885  79.741  1.00  0.00     0.078 C 
HETATM    3  C2  UNL     1      24.678  34.758  78.820  1.00  0.00     0.244 C 
ENDROOT
BRANCH   3   4
HETATM    4  N2  UNL     1      23.560  33.945  79.192  1.00  0.00    -0.377 N 
ATOM      5  H2  UNL     1      23.755  33.011  79.553  1.00  0.00     0.160 HD
BRANCH   4   6
HETATM    6  C3  UNL     1      22.329  34.304  79.103  1.00  0.00     0.033 A 
HETATM    7  C4  UNL     1      21.901  35.612  79.136  1.00  0.00     0.046 A 
HETATM    8  C5  UNL     1      20.563  35.941  79.037  1.00  0.00     0.091 A 
HETATM    9  N3  UNL     1      19.627  34.989  78.905  1.00  0.00    -0.354 N 
HETATM   10  C6  UNL     1      20.032  33.713  78.872  1.00  0.00     0.118 A 
ATOM     11  H3  UNL     1      18.638  35.229  78.832  1.00  0.00     0.166 HD
HETATM   12  N4  UNL     1      19.075  32.681  78.734  1.00  0.00    -0.083 NA
HETATM   13  C7  UNL     1      21.361  33.330  78.967  1.00  0.00     0.074 A 
ENDBRANCH   4   6
ENDBRANCH   3   4
TORSDOF 2
ENDMDL
MODEL 5
REMARK VINA RESULT: -3.965726754      2.215      5.129
REMARK  2 active torsions:
REMARK  status: ('A' for Active; 'I' for Inactive)
REMARK    1  A    between atoms: C2_3  and  N2_4 
REMARK    2  A    between atoms: N2_4  and  C3_6 
ROOT
HETATM    1  N1  UNL     1      16.475  30.878  78.580  1.00  0.00    -0.196 NA
HETATM    2  C1  UNL     1      17.135  31.823  78.429  1.00  0.00     0.078 C 
HETATM    3  C2  UNL     1      17.972  32.999  78.231  1.00  0.00     0.244 C 
ENDROOT
BRANCH   3   4
HETATM    4  N2  UNL     1      19.317  32.658  78.580  1.00  0.00    -0.377 N 
ATOM      5  H2  UNL     1      19.548  31.667  78.655  1.00  0.00     0.160 HD
BRANCH   4   6
HETATM    6  C3  UNL     1      20.255  33.508  78.805  1.00  0.00     0.033 A 
HETATM    7  C4  UNL     1      21.586  33.279  78.538  1.00  0.00     0.046 A 
HETATM    8  C5  UNL     1      22.553  34.229  78.802  1.00  0.00     0.091 A 
HETATM    9  N3  UNL     1      22.225  35.418  79.331  1.00  0.00    -0.354 N 
HETATM   10  C6  UNL     1      20.933  35.651  79.594  1.00  0.00     0.118 A 
ATOM     11  H3  UNL     1      22.938  36.122  79.526  1.00  0.00     0.166 HD
HETATM   12  N4  UNL     1      20.548  36.892  80.152  1.00  0.00    -0.083 NA
HETATM   13  C7  UNL     1      19.924  34.732  79.349  1.00  0.00     0.074 A 
ENDBRANCH   4   6
ENDBRANCH   3   4
TORSDOF 2
ENDMDL
