MODEL 1
REMARK VINA RESULT: -4.440333777      0.000      0.000
REMARK  2 active torsions:
REMARK  status: ('A' for Active; 'I' for Inactive)
REMARK    1  A    between atoms: N1_1  and  N2_4 
REMARK    2  A    between atoms: C1_6  and  C2_7 
ROOT
HETATM    1  C2  UNL     1      22.707  34.232  79.062  1.00  0.00    -0.019 A 
HETATM    2  C3  UNL     1      22.152  35.480  79.257  1.00  0.00     0.014 A 
HETATM    3  C4  UNL     1      20.789  35.682  79.202  1.00  0.00     0.027 A 
HETATM    4  C5  UNL     1      19.911  34.643  78.951  1.00  0.00     0.046 A 
HETATM    5  N3  UNL     1      18.506  34.855  78.895  1.00  0.00    -0.102 NA
HETATM    6  C6  UNL     1      20.466  33.394  78.757  1.00  0.00     0.027 A 
HETATM    7  C7  UNL     1      21.832  33.193  78.811  1.00  0.00     0.014 A 
ENDROOT
BRANCH   1   8
HETATM    8  C1  UNL     1      24.146  34.007  79.118  1.00  0.00     0.118 C 
HETATM    9  N2  UNL     1      24.619  33.059  79.848  1.00  0.00    -0.318 N 
ATOM     10  H2  UNL     1      23.972  32.477  80.380  1.00  0.00     0.185 HD
BRANCH   9  11
HETATM   11  N1  UNL     1      25.988  32.802  79.937  1.00  0.00    -0.345 N 
ATOM     12  H12 UNL     1      26.283  31.838  80.095  1.00  0.00     0.176 HD
ATOM     13  H11 UNL     1      26.687  33.539  79.849  1.00  0.00     0.176 HD
ENDBRANCH   9  11
ENDBRANCH   1   8
TORSDOF 2
ENDMDL
MODEL 2
REMARK VINA RESULT: -4.389820638      0.024      1.488
REMARK  2 active torsions:
REMARK  status: ('A' for Active; 'I' for Inactive)
REMARK    1  A    between atoms: N1_1  and  N2_4 
REMARK    2  A    between atoms: C1_6  and  C2_7 
ROOT
HETATM    1  C2  UNL     1      22.706  34.201  79.055  1.00  0.00    -0.019 A 
HETATM    2  C3  UNL     1      21.823  33.166  78.825  1.00  0.00     0.014 A 
HETATM    3  C4  UNL     1      20.460  33.376  78.776  1.00  0.00     0.027 A 
HETATM    4  C5  UNL     1      19.913  34.634  78.952  1.00  0.00     0.046 A 
HETATM    5  N3  UNL     1      18.508  34.846  78.900  1.00  0.00    -0.102 NA
HETATM    6  C6  UNL     1      20.797  35.670  79.181  1.00  0.00     0.027 A 
HETATM    7  C7  UNL     1      22.161  35.459  79.232  1.00  0.00     0.014 A 
ENDROOT
BRANCH   1   8
HETATM    8  C1  UNL     1      24.148  33.991  79.110  1.00  0.00     0.118 C 
HETATM    9  N2  UNL     1      24.631  33.057  79.852  1.00  0.00    -0.318 N 
ATOM     10  H2  UNL     1      23.991  32.476  80.393  1.00  0.00     0.185 HD
BRANCH   9  11
HETATM   11  N1  UNL     1      26.004  32.814  79.941  1.00  0.00    -0.345 N 
ATOM     12  H12 UNL     1      26.600  33.566  80.287  1.00  0.00     0.176 HD
ATOM     13  H11 UNL     1      26.415  31.921  79.673  1.00  0.00     0.176 HD
ENDBRANCH   9  11
ENDBRANCH   1   8
TORSDOF 2
ENDMDL
MODEL 3
REMARK VINA RESULT: -4.383668018      2.068      2.572
REMARK  2 active torsions:
REMARK  status: ('A' for Active; 'I' for Inactive)
REMARK    1  A    between atoms: N1_1  and  N2_4 
REMARK    2  A    between atoms: C1_6  and  C2_7 
ROOT
HETATM    1  C2  UNL     1      22.649  35.331  79.329  1.00  0.00    -0.019 A 
HETATM    2  C3  UNL     1      22.577  34.038  78.854  1.00  0.00     0.014 A 
HETATM    3  C4  UNL     1      21.366  33.415  78.632  1.00  0.00     0.027 A 
HETATM    4  C5  UNL     1      20.166  34.057  78.873  1.00  0.00     0.046 A 
HETATM    5  N3  UNL     1      18.919  33.412  78.642  1.00  0.00    -0.102 NA
HETATM    6  C6  UNL     1      20.237  35.352  79.347  1.00  0.00     0.027 A 
HETATM    7  C7  UNL     1      21.450  35.975  79.570  1.00  0.00     0.014 A 
ENDROOT
BRANCH   1   8
HETATM    8  C1  UNL     1      23.922  35.999  79.567  1.00  0.00     0.118 C 
HETATM    9  N2  UNL     1      24.072  36.740  80.609  1.00  0.00    -0.318 N 
ATOM     10  H2  UNL     1      23.290  36.846  81.255  1.00  0.00     0.185 HD
BRANCH   9  11
HETATM   11  N1  UNL     1      25.271  37.402  80.884  1.00  0.00    -0.345 N 
ATOM     12  H12 UNL     1      25.474  37.634  81.856  1.00  0.00     0.176 HD
ATOM     13  H11 UNL     1      25.933  37.652  80.151  1.00  0.00     0.176 HD
ENDBRANCH   9  11
ENDBRANCH   1   8
TORSDOF 2
ENDMDL
MODEL 4
REMARK VINA RESULT: -4.357631989      2.085      2.232
REMARK  2 active torsions:
REMARK  status: ('A' for Active; 'I' for Inactive)
REMARK    1  A    between atoms: N1_1  and  N2_4 
REMARK    2  A    between atoms: C1_6  and  C2_7 
ROOT
HETATM    1  C2  UNL     1      22.637  35.346  79.336  1.00  0.00    -0.019 A 
HETATM    2  C3  UNL     1      21.425  35.961  79.572  1.00  0.00     0.014 A 
HETATM    3  C4  UNL     1      20.228  35.313  79.343  1.00  0.00     0.027 A 
HETATM    4  C5  UNL     1      20.185  34.015  78.868  1.00  0.00     0.046 A 
HETATM    5  N3  UNL     1      18.950  33.350  78.634  1.00  0.00    -0.102 NA
HETATM    6  C6  UNL     1      21.398  33.399  78.633  1.00  0.00     0.027 A 
HETATM    7  C7  UNL     1      22.596  34.049  78.861  1.00  0.00     0.014 A 
ENDROOT
BRANCH   1   8
HETATM    8  C1  UNL     1      23.906  36.020  79.574  1.00  0.00     0.118 C 
HETATM    9  N2  UNL     1      24.050  36.770  80.610  1.00  0.00    -0.318 N 
ATOM     10  H2  UNL     1      23.265  36.879  81.252  1.00  0.00     0.185 HD
BRANCH   9  11
HETATM   11  N1  UNL     1      25.245  37.439  80.884  1.00  0.00    -0.345 N 
ATOM     12  H12 UNL     1      25.712  37.237  81.768  1.00  0.00     0.176 HD
ATOM     13  H11 UNL     1      25.652  38.111  80.235  1.00  0.00     0.176 HD
ENDBRANCH   9  11
ENDBRANCH   1   8
TORSDOF 2
ENDMDL
MODEL 5
REMARK VINA RESULT: -4.231131943      1.881      4.262
REMARK  2 active torsions:
REMARK  status: ('A' for Active; 'I' for Inactive)
REMARK    1  A    between atoms: N1_1  and  N2_4 
REMARK    2  A    between atoms: C1_6  and  C2_7 
ROOT
HETATM    1  C2  UNL     1      20.591  34.127  78.896  1.00  0.00    -0.019 A 
HETATM    2  C3  UNL     1      20.631  35.426  79.358  1.00  0.00     0.014 A 
HETATM    3  C4  UNL     1      21.827  36.078  79.582  1.00  0.00     0.027 A 
HETATM    4  C5  UNL     1      23.043  35.461  79.352  1.00  0.00     0.046 A 
HETATM    5  N3  UNL     1      24.273  36.137  79.583  1.00  0.00    -0.102 NA
HETATM    6  C6  UNL     1      23.003  34.162  78.889  1.00  0.00     0.027 A 
HETATM    7  C7  UNL     1      21.806  33.509  78.666  1.00  0.00     0.014 A 
ENDROOT
BRANCH   1   8
HETATM    8  C1  UNL     1      19.335  33.429  78.657  1.00  0.00     0.118 C 
HETATM    9  N2  UNL     1      19.272  32.152  78.806  1.00  0.00    -0.318 N 
ATOM     10  H2  UNL     1      20.112  31.648  79.091  1.00  0.00     0.185 HD
BRANCH   9  11
HETATM   11  N1  UNL     1      18.094  31.435  78.589  1.00  0.00    -0.345 N 
ATOM     12  H12 UNL     1      18.160  30.420  78.513  1.00  0.00     0.176 HD
ATOM     13  H11 UNL     1      17.186  31.893  78.507  1.00  0.00     0.176 HD
ENDBRANCH   9  11
ENDBRANCH   1   8
TORSDOF 2
ENDMDL
