MODEL 1
REMARK VINA RESULT: -6.429099543      0.000      0.000
REMARK  1 active torsions:
REMARK  status: ('A' for Active; 'I' for Inactive)
REMARK    1  A    between atoms: C3_3  and  C4_4 
ROOT
HETATM    1  C1  UNL     1      21.210  35.995  71.899  1.00  0.00     0.012 C 
HETATM    2  C2  UNL     1      20.958  37.176  72.044  1.00  0.00    -0.113 C 
HETATM    3  C3  UNL     1      20.637  38.598  72.206  1.00  0.00     0.133 C 
ENDROOT
BRANCH   3   4
HETATM    4  C4  UNL     1      21.699  39.270  73.030  1.00  0.00    -0.019 A 
HETATM    5  C5  UNL     1      22.807  39.838  72.591  1.00  0.00     0.064 A 
HETATM    6  C6  UNL     1      23.590  40.385  73.694  1.00  0.00     0.174 A 
HETATM    7  O1  UNL     1      24.690  40.992  73.683  1.00  0.00    -0.288 OA
HETATM    8  C7  UNL     1      22.791  40.066  74.888  1.00  0.00     0.082 A 
HETATM    9  C8  UNL     1      21.707  39.424  74.479  1.00  0.00     0.057 A 
HETATM   10  N1  UNL     1      20.670  38.938  75.310  1.00  0.00    -0.102 NA
ENDBRANCH   3   4
TORSDOF 1
ENDMDL
MODEL 2
REMARK VINA RESULT: -5.154204463      1.127      1.270
REMARK  1 active torsions:
REMARK  status: ('A' for Active; 'I' for Inactive)
REMARK    1  A    between atoms: C3_3  and  C4_4 
ROOT
HETATM    1  C1  UNL     1      20.832  36.410  71.718  1.00  0.00     0.012 C 
HETATM    2  C2  UNL     1      20.837  37.341  72.503  1.00  0.00    -0.113 C 
HETATM    3  C3  UNL     1      20.824  38.458  73.453  1.00  0.00     0.133 C 
ENDROOT
BRANCH   3   4
HETATM    4  C4  UNL     1      22.091  39.255  73.322  1.00  0.00    -0.019 A 
HETATM    5  C5  UNL     1      22.791  39.461  72.222  1.00  0.00     0.064 A 
HETATM    6  C6  UNL     1      23.963  40.288  72.491  1.00  0.00     0.174 A 
HETATM    7  O1  UNL     1      24.861  40.696  71.714  1.00  0.00    -0.288 OA
HETATM    8  C7  UNL     1      23.877  40.562  73.935  1.00  0.00     0.082 A 
HETATM    9  C8  UNL     1      22.791  39.957  74.390  1.00  0.00     0.057 A 
HETATM   10  N1  UNL     1      22.337  39.968  75.730  1.00  0.00    -0.102 NA
ENDBRANCH   3   4
TORSDOF 1
ENDMDL
MODEL 3
REMARK VINA RESULT: -4.741083000      1.866      2.210
REMARK  1 active torsions:
REMARK  status: ('A' for Active; 'I' for Inactive)
REMARK    1  A    between atoms: C3_3  and  C4_4 
ROOT
HETATM    1  C1  UNL     1      21.179  36.120  72.000  1.00  0.00     0.012 C 
HETATM    2  C2  UNL     1      21.038  37.328  72.056  1.00  0.00    -0.113 C 
HETATM    3  C3  UNL     1      20.855  38.782  72.108  1.00  0.00     0.133 C 
ENDROOT
BRANCH   3   4
HETATM    4  C4  UNL     1      21.809  39.382  73.102  1.00  0.00    -0.019 A 
HETATM    5  C5  UNL     1      21.684  39.395  74.417  1.00  0.00     0.064 A 
HETATM    6  C6  UNL     1      22.815  40.070  75.045  1.00  0.00     0.174 A 
HETATM    7  O1  UNL     1      23.057  40.283  76.259  1.00  0.00    -0.288 OA
HETATM    8  C7  UNL     1      23.661  40.473  73.911  1.00  0.00     0.082 A 
HETATM    9  C8  UNL     1      23.060  40.066  72.803  1.00  0.00     0.057 A 
HETATM   10  N1  UNL     1      23.540  40.250  71.485  1.00  0.00    -0.102 NA
ENDBRANCH   3   4
TORSDOF 1
ENDMDL
MODEL 4
REMARK VINA RESULT: -3.635256323      2.291      3.852
REMARK  1 active torsions:
REMARK  status: ('A' for Active; 'I' for Inactive)
REMARK    1  A    between atoms: C3_3  and  C4_4 
ROOT
HETATM    1  C1  UNL     1      25.523  40.562  73.926  1.00  0.00     0.012 C 
HETATM    2  C2  UNL     1      24.513  40.662  73.255  1.00  0.00    -0.113 C 
HETATM    3  C3  UNL     1      23.301  40.801  72.440  1.00  0.00     0.133 C 
ENDROOT
BRANCH   3   4
HETATM    4  C4  UNL     1      22.345  39.684  72.751  1.00  0.00    -0.019 A 
HETATM    5  C5  UNL     1      21.887  38.772  71.914  1.00  0.00     0.064 A 
HETATM    6  C6  UNL     1      20.977  37.851  72.586  1.00  0.00     0.174 A 
HETATM    7  O1  UNL     1      20.345  36.864  72.135  1.00  0.00    -0.288 OA
HETATM    8  C7  UNL     1      20.945  38.337  73.976  1.00  0.00     0.082 A 
HETATM    9  C8  UNL     1      21.741  39.393  74.044  1.00  0.00     0.057 A 
HETATM   10  N1  UNL     1      21.996  40.162  75.204  1.00  0.00    -0.102 NA
ENDBRANCH   3   4
TORSDOF 1
ENDMDL
MODEL 5
REMARK VINA RESULT: -3.591507524      7.378      8.126
REMARK  1 active torsions:
REMARK  status: ('A' for Active; 'I' for Inactive)
REMARK    1  A    between atoms: C3_3  and  C4_4 
ROOT
HETATM    1  C1  UNL     1      25.399  32.756  80.365  1.00  0.00     0.012 C 
HETATM    2  C2  UNL     1      25.033  33.713  79.708  1.00  0.00    -0.113 C 
HETATM    3  C3  UNL     1      24.611  34.869  78.910  1.00  0.00     0.133 C 
ENDROOT
BRANCH   3   4
HETATM    4  C4  UNL     1      23.166  35.179  79.184  1.00  0.00    -0.019 A 
HETATM    5  C5  UNL     1      22.690  36.168  79.917  1.00  0.00     0.064 A 
HETATM    6  C6  UNL     1      21.232  36.144  79.948  1.00  0.00     0.174 A 
HETATM    7  O1  UNL     1      20.422  36.907  80.530  1.00  0.00    -0.288 OA
HETATM    8  C7  UNL     1      20.879  34.981  79.117  1.00  0.00     0.082 A 
HETATM    9  C8  UNL     1      22.011  34.443  78.689  1.00  0.00     0.057 A 
HETATM   10  N1  UNL     1      22.122  33.303  77.857  1.00  0.00    -0.102 NA
ENDBRANCH   3   4
TORSDOF 1
ENDMDL
