MODEL 1
REMARK VINA RESULT: -3.361154278      0.000      0.000
REMARK  3 active torsions:
REMARK  status: ('A' for Active; 'I' for Inactive)
REMARK    1  A    between atoms: N1_2  and  N2_4 
REMARK    2  A    between atoms: C4_9  and  N3_11 
REMARK    3  A    between atoms: N3_11  and  N4_12 
ROOT
HETATM    1  N2  UNL     1      22.712  24.932  39.066  1.00  0.00    -0.311 N 
ATOM      2  H2  UNL     1      21.935  25.470  39.451  1.00  0.00     0.186 HD
HETATM    3  C2  UNL     1      22.530  23.690  38.732  1.00  0.00     0.031 C 
HETATM    4  C3  UNL     1      23.538  22.751  38.160  1.00  0.00     0.224 C 
HETATM    5  O1  UNL     1      23.154  21.493  38.584  1.00  0.00    -0.357 OA
HETATM    6  C4  UNL     1      21.795  21.486  38.761  1.00  0.00     0.151 C 
HETATM    7  C5  UNL     1      21.187  20.824  37.517  1.00  0.00     0.068 C 
HETATM    8  C6  UNL     1      21.295  22.879  38.828  1.00  0.00     0.113 C 
ENDROOT
BRANCH   1   9
HETATM    9  N1  UNL     1      23.958  25.538  38.904  1.00  0.00    -0.341 N 
HETATM   10  C1  UNL     1      24.766  25.921  40.014  1.00  0.00     0.167 C 
ATOM     11  H1  UNL     1      24.302  25.712  37.959  1.00  0.00     0.179 HD
ENDBRANCH   1   9
BRANCH   6  12
HETATM   12  N3  UNL     1      21.410  20.659  39.877  1.00  0.00    -0.109 NA
BRANCH  12  13
HETATM   13  N4  UNL     1      20.171  20.951  40.399  1.00  0.00    -0.346 N 
ATOM     14  H42 UNL     1      19.594  21.705  40.028  1.00  0.00     0.172 HD
ATOM     15  H41 UNL     1      19.891  20.353  41.176  1.00  0.00     0.172 HD
ENDBRANCH  12  13
ENDBRANCH   6  12
TORSDOF 3
ENDMDL
MODEL 2
REMARK VINA RESULT: -2.114570708      2.890      4.084
REMARK  3 active torsions:
REMARK  status: ('A' for Active; 'I' for Inactive)
REMARK    1  A    between atoms: N1_2  and  N2_4 
REMARK    2  A    between atoms: C4_9  and  N3_11 
REMARK    3  A    between atoms: N3_11  and  N4_12 
ROOT
HETATM    1  N2  UNL     1      25.118  20.023  38.310  1.00  0.00    -0.311 N 
ATOM      2  H2  UNL     1      25.760  20.799  38.471  1.00  0.00     0.186 HD
HETATM    3  C2  UNL     1      23.843  20.254  38.213  1.00  0.00     0.031 C 
HETATM    4  C3  UNL     1      22.758  19.257  37.982  1.00  0.00     0.224 C 
HETATM    5  O1  UNL     1      21.637  19.782  38.596  1.00  0.00    -0.357 OA
HETATM    6  C4  UNL     1      21.732  21.150  38.586  1.00  0.00     0.151 C 
HETATM    7  C5  UNL     1      20.853  21.649  37.431  1.00  0.00     0.068 C 
HETATM    8  C6  UNL     1      23.129  21.549  38.302  1.00  0.00     0.113 C 
ENDROOT
BRANCH   1   9
HETATM    9  N1  UNL     1      25.616  18.725  38.199  1.00  0.00    -0.341 N 
HETATM   10  C1  UNL     1      26.487  18.160  39.175  1.00  0.00     0.167 C 
ATOM     11  H1  UNL     1      25.348  18.162  37.391  1.00  0.00     0.179 HD
ENDBRANCH   1   9
BRANCH   6  12
HETATM   12  N3  UNL     1      21.176  21.728  39.784  1.00  0.00    -0.109 NA
BRANCH  12  13
HETATM   13  N4  UNL     1      20.316  20.899  40.466  1.00  0.00    -0.346 N 
ATOM     14  H42 UNL     1      19.798  21.216  41.285  1.00  0.00     0.172 HD
ATOM     15  H41 UNL     1      20.248  19.956  40.082  1.00  0.00     0.172 HD
ENDBRANCH  12  13
ENDBRANCH   6  12
TORSDOF 3
ENDMDL
MODEL 3
REMARK VINA RESULT: -1.849097726     13.234     14.117
REMARK  3 active torsions:
REMARK  status: ('A' for Active; 'I' for Inactive)
REMARK    1  A    between atoms: N1_2  and  N2_4 
REMARK    2  A    between atoms: C4_9  and  N3_11 
REMARK    3  A    between atoms: N3_11  and  N4_12 
ROOT
HETATM    1  N2  UNL     1      10.098  27.298  35.879  1.00  0.00    -0.311 N 
ATOM      2  H2  UNL     1      10.200  26.323  35.594  1.00  0.00     0.186 HD
HETATM    3  C2  UNL     1      10.419  28.246  35.051  1.00  0.00     0.031 C 
HETATM    4  C3  UNL     1      10.340  29.717  35.287  1.00  0.00     0.224 C 
HETATM    5  O1  UNL     1      11.337  30.270  34.506  1.00  0.00    -0.357 OA
HETATM    6  C4  UNL     1      11.545  29.459  33.421  1.00  0.00     0.151 C 
HETATM    7  C5  UNL     1      10.805  30.099  32.238  1.00  0.00     0.068 C 
HETATM    8  C6  UNL     1      10.943  28.129  33.671  1.00  0.00     0.113 C 
ENDROOT
BRANCH   1   9
HETATM    9  N1  UNL     1       9.615  27.598  37.153  1.00  0.00    -0.341 N 
HETATM   10  C1  UNL     1      10.479  27.974  38.223  1.00  0.00     0.167 C 
ATOM     11  H1  UNL     1       8.611  27.548  37.324  1.00  0.00     0.179 HD
ENDBRANCH   1   9
BRANCH   6  12
HETATM   12  N3  UNL     1      12.936  29.425  33.044  1.00  0.00    -0.109 NA
BRANCH  12  13
HETATM   13  N4  UNL     1      13.742  30.266  33.775  1.00  0.00    -0.346 N 
ATOM     14  H42 UNL     1      14.694  30.488  33.486  1.00  0.00     0.172 HD
ATOM     15  H41 UNL     1      13.305  30.639  34.619  1.00  0.00     0.172 HD
ENDBRANCH  12  13
ENDBRANCH   6  12
TORSDOF 3
ENDMDL
MODEL 4
REMARK VINA RESULT: -1.708371424      7.767      8.556
REMARK  3 active torsions:
REMARK  status: ('A' for Active; 'I' for Inactive)
REMARK    1  A    between atoms: N1_2  and  N2_4 
REMARK    2  A    between atoms: C4_9  and  N3_11 
REMARK    3  A    between atoms: N3_11  and  N4_12 
ROOT
HETATM    1  N2  UNL     1      19.351  21.115  30.995  1.00  0.00    -0.311 N 
ATOM      2  H2  UNL     1      19.121  21.244  30.009  1.00  0.00     0.186 HD
HETATM    3  C2  UNL     1      18.511  21.502  31.907  1.00  0.00     0.031 C 
HETATM    4  C3  UNL     1      18.672  21.399  33.386  1.00  0.00     0.224 C 
HETATM    5  O1  UNL     1      17.954  22.457  33.910  1.00  0.00    -0.357 OA
HETATM    6  C4  UNL     1      16.928  22.759  33.052  1.00  0.00     0.151 C 
HETATM    7  C5  UNL     1      15.659  22.119  33.633  1.00  0.00     0.068 C 
HETATM    8  C6  UNL     1      17.187  22.141  31.731  1.00  0.00     0.113 C 
ENDROOT
BRANCH   1   9
HETATM    9  N1  UNL     1      20.565  20.526  31.349  1.00  0.00    -0.341 N 
HETATM   10  C1  UNL     1      21.767  21.282  31.478  1.00  0.00     0.167 C 
ATOM     11  H1  UNL     1      20.593  19.521  31.522  1.00  0.00     0.179 HD
ENDBRANCH   1   9
BRANCH   6  12
HETATM   12  N3  UNL     1      16.672  24.176  33.010  1.00  0.00    -0.109 NA
BRANCH  12  13
HETATM   13  N4  UNL     1      17.143  24.804  31.881  1.00  0.00    -0.346 N 
ATOM     14  H42 UNL     1      18.117  24.729  31.588  1.00  0.00     0.172 HD
ATOM     15  H41 UNL     1      16.440  25.342  31.374  1.00  0.00     0.172 HD
ENDBRANCH  12  13
ENDBRANCH   6  12
TORSDOF 3
ENDMDL
MODEL 5
REMARK VINA RESULT: -1.246759701      2.292      3.177
REMARK  3 active torsions:
REMARK  status: ('A' for Active; 'I' for Inactive)
REMARK    1  A    between atoms: N1_2  and  N2_4 
REMARK    2  A    between atoms: C4_9  and  N3_11 
REMARK    3  A    between atoms: N3_11  and  N4_12 
ROOT
HETATM    1  N2  UNL     1      20.444  23.258  39.831  1.00  0.00    -0.311 N 
ATOM      2  H2  UNL     1      19.848  22.456  40.038  1.00  0.00     0.186 HD
HETATM    3  C2  UNL     1      21.488  23.103  39.074  1.00  0.00     0.031 C 
HETATM    4  C3  UNL     1      22.470  24.149  38.664  1.00  0.00     0.224 C 
HETATM    5  O1  UNL     1      23.667  23.481  38.482  1.00  0.00    -0.357 OA
HETATM    6  C4  UNL     1      23.396  22.189  38.112  1.00  0.00     0.151 C 
HETATM    7  C5  UNL     1      23.573  22.115  36.589  1.00  0.00     0.068 C 
HETATM    8  C6  UNL     1      21.984  21.869  38.424  1.00  0.00     0.113 C 
ENDROOT
BRANCH   1   9
HETATM    9  N1  UNL     1      20.128  24.508  40.361  1.00  0.00    -0.341 N 
HETATM   10  C1  UNL     1      19.407  25.488  39.618  1.00  0.00     0.167 C 
ATOM     11  H1  UNL     1      20.423  24.729  41.313  1.00  0.00     0.179 HD
ENDBRANCH   1   9
BRANCH   6  12
HETATM   12  N3  UNL     1      24.355  21.268  38.666  1.00  0.00    -0.109 NA
BRANCH  12  13
HETATM   13  N4  UNL     1      24.262  19.988  38.172  1.00  0.00    -0.346 N 
ATOM     14  H42 UNL     1      23.391  19.459  38.205  1.00  0.00     0.172 HD
ATOM     15  H41 UNL     1      25.130  19.625  37.778  1.00  0.00     0.172 HD
ENDBRANCH  12  13
ENDBRANCH   6  12
TORSDOF 3
ENDMDL
