MODEL 1
REMARK VINA RESULT: -6.301491384      0.000      0.000
REMARK  1 active torsions:
REMARK  status: ('A' for Active; 'I' for Inactive)
REMARK    1  A    between atoms: N2_3  and  C2_5 
ROOT
HETATM    1  N1  UNL     1      20.870  21.252  31.165  1.00  0.00    -0.172 NA
HETATM    2  C1  UNL     1      19.765  21.101  31.502  1.00  0.00     0.182 C 
HETATM    3  N2  UNL     1      18.436  20.898  31.909  1.00  0.00    -0.286 N 
ATOM      4  H2  UNL     1      17.866  20.216  31.409  1.00  0.00     0.178 HD
ENDROOT
BRANCH   3   5
HETATM    5  C2  UNL     1      17.859  21.613  32.992  1.00  0.00     0.150 A 
HETATM    6  C3  UNL     1      17.140  22.787  32.958  1.00  0.00     0.161 A 
HETATM    7  C4  UNL     1      16.806  23.567  31.781  1.00  0.00     0.121 C 
HETATM    8  N4  UNL     1      16.814  23.055  34.235  1.00  0.00    -0.286 N 
HETATM    9  N3  UNL     1      16.547  24.176  30.830  1.00  0.00    -0.190 NA
HETATM   10  N5  UNL     1      17.272  22.144  35.065  1.00  0.00    -0.263 N 
ATOM     11  H4  UNL     1      16.274  23.870  34.526  1.00  0.00     0.188 HD
HETATM   12  C5  UNL     1      17.935  21.223  34.308  1.00  0.00     0.290 A 
ATOM     13  H5  UNL     1      17.154  22.128  36.078  1.00  0.00     0.190 HD
HETATM   14  O1  UNL     1      18.492  20.221  34.795  1.00  0.00    -0.264 OA
ENDBRANCH   3   5
TORSDOF 1
ENDMDL
MODEL 2
REMARK VINA RESULT: -6.047500334      1.634      3.423
REMARK  1 active torsions:
REMARK  status: ('A' for Active; 'I' for Inactive)
REMARK    1  A    between atoms: N2_3  and  C2_5 
ROOT
HETATM    1  N1  UNL     1      17.030  25.364  31.829  1.00  0.00    -0.172 NA
HETATM    2  C1  UNL     1      17.181  24.219  31.681  1.00  0.00     0.182 C 
HETATM    3  N2  UNL     1      17.376  22.841  31.487  1.00  0.00    -0.286 N 
ATOM      4  H2  UNL     1      17.222  22.448  30.559  1.00  0.00     0.178 HD
ENDROOT
BRANCH   3   5
HETATM    5  C2  UNL     1      17.779  21.978  32.540  1.00  0.00     0.150 A 
HETATM    6  C3  UNL     1      18.932  21.230  32.641  1.00  0.00     0.161 A 
HETATM    7  C4  UNL     1      20.009  21.160  31.672  1.00  0.00     0.121 C 
HETATM    8  N4  UNL     1      18.848  20.585  33.818  1.00  0.00    -0.286 N 
HETATM    9  N3  UNL     1      20.861  21.118  30.888  1.00  0.00    -0.190 NA
HETATM   10  N5  UNL     1      17.737  20.868  34.461  1.00  0.00    -0.263 N 
ATOM     11  H4  UNL     1      19.564  19.950  34.171  1.00  0.00     0.188 HD
HETATM   12  C5  UNL     1      17.044  21.744  33.678  1.00  0.00     0.290 A 
ATOM     13  H5  UNL     1      17.449  20.504  35.370  1.00  0.00     0.190 HD
HETATM   14  O1  UNL     1      15.937  22.213  34.002  1.00  0.00    -0.264 OA
ENDBRANCH   3   5
TORSDOF 1
ENDMDL
MODEL 3
REMARK VINA RESULT: -5.774490454      2.031      3.146
REMARK  1 active torsions:
REMARK  status: ('A' for Active; 'I' for Inactive)
REMARK    1  A    between atoms: N2_3  and  C2_5 
ROOT
HETATM    1  N1  UNL     1      20.857  21.108  31.395  1.00  0.00    -0.172 NA
HETATM    2  C1  UNL     1      19.719  21.353  31.324  1.00  0.00     0.182 C 
HETATM    3  N2  UNL     1      18.345  21.628  31.238  1.00  0.00    -0.286 N 
ATOM      4  H2  UNL     1      17.808  21.221  30.473  1.00  0.00     0.178 HD
ENDROOT
BRANCH   3   5
HETATM    5  C2  UNL     1      17.678  22.454  32.181  1.00  0.00     0.150 A 
HETATM    6  C3  UNL     1      17.544  22.268  33.540  1.00  0.00     0.161 A 
HETATM    7  C4  UNL     1      18.068  21.163  34.321  1.00  0.00     0.121 C 
HETATM    8  N4  UNL     1      16.833  23.319  33.986  1.00  0.00    -0.286 N 
HETATM    9  N3  UNL     1      18.496  20.275  34.929  1.00  0.00    -0.190 NA
HETATM   10  N5  UNL     1      16.510  24.146  33.016  1.00  0.00    -0.263 N 
ATOM     11  H4  UNL     1      16.574  23.458  34.962  1.00  0.00     0.188 HD
HETATM   12  C5  UNL     1      17.030  23.625  31.868  1.00  0.00     0.290 A 
ATOM     13  H5  UNL     1      15.975  25.011  33.106  1.00  0.00     0.190 HD
HETATM   14  O1  UNL     1      16.901  24.173  30.757  1.00  0.00    -0.264 OA
ENDBRANCH   3   5
TORSDOF 1
ENDMDL
MODEL 4
REMARK VINA RESULT: -4.917036164      1.843      3.594
REMARK  1 active torsions:
REMARK  status: ('A' for Active; 'I' for Inactive)
REMARK    1  A    between atoms: N2_3  and  C2_5 
ROOT
HETATM    1  N1  UNL     1      16.741  25.167  32.130  1.00  0.00    -0.172 NA
HETATM    2  C1  UNL     1      17.082  24.125  31.737  1.00  0.00     0.182 C 
HETATM    3  N2  UNL     1      17.501  22.877  31.247  1.00  0.00    -0.286 N 
ATOM      4  H2  UNL     1      17.267  22.620  30.288  1.00  0.00     0.178 HD
ENDROOT
BRANCH   3   5
HETATM    5  C2  UNL     1      18.240  21.961  32.042  1.00  0.00     0.150 A 
HETATM    6  C3  UNL     1      18.137  21.724  33.395  1.00  0.00     0.161 A 
HETATM    7  C4  UNL     1      17.229  22.373  34.323  1.00  0.00     0.121 C 
HETATM    8  N4  UNL     1      19.046  20.773  33.671  1.00  0.00    -0.286 N 
HETATM    9  N3  UNL     1      16.496  22.898  35.050  1.00  0.00    -0.190 NA
HETATM   10  N5  UNL     1      19.710  20.396  32.601  1.00  0.00    -0.263 N 
ATOM     11  H4  UNL     1      19.202  20.388  34.603  1.00  0.00     0.188 HD
HETATM   12  C5  UNL     1      19.222  21.129  31.559  1.00  0.00     0.290 A 
ATOM     13  H5  UNL     1      20.447  19.691  32.558  1.00  0.00     0.190 HD
HETATM   14  O1  UNL     1      19.643  21.013  30.394  1.00  0.00    -0.264 OA
ENDBRANCH   3   5
TORSDOF 1
ENDMDL
MODEL 5
REMARK VINA RESULT: -4.043890694      7.185      8.066
REMARK  1 active torsions:
REMARK  status: ('A' for Active; 'I' for Inactive)
REMARK    1  A    between atoms: N2_3  and  C2_5 
ROOT
HETATM    1  N1  UNL     1      19.910  20.721  40.704  1.00  0.00    -0.172 NA
HETATM    2  C1  UNL     1      20.437  20.926  39.685  1.00  0.00     0.182 C 
HETATM    3  N2  UNL     1      21.060  21.189  38.454  1.00  0.00    -0.286 N 
ATOM      4  H2  UNL     1      20.482  21.272  37.617  1.00  0.00     0.178 HD
ENDROOT
BRANCH   3   5
HETATM    5  C2  UNL     1      22.467  21.341  38.335  1.00  0.00     0.150 A 
HETATM    6  C3  UNL     1      23.204  22.505  38.313  1.00  0.00     0.161 A 
HETATM    7  C4  UNL     1      22.691  23.859  38.411  1.00  0.00     0.121 C 
HETATM    8  N4  UNL     1      24.487  22.124  38.185  1.00  0.00    -0.286 N 
HETATM    9  N3  UNL     1      22.266  24.933  38.492  1.00  0.00    -0.190 NA
HETATM   10  N5  UNL     1      24.612  20.816  38.124  1.00  0.00    -0.263 N 
ATOM     11  H4  UNL     1      25.272  22.773  38.140  1.00  0.00     0.188 HD
HETATM   12  C5  UNL     1      23.354  20.298  38.216  1.00  0.00     0.290 A 
ATOM     13  H5  UNL     1      25.482  20.291  38.027  1.00  0.00     0.190 HD
HETATM   14  O1  UNL     1      23.122  19.075  38.189  1.00  0.00    -0.264 OA
ENDBRANCH   3   5
TORSDOF 1
ENDMDL
