MODEL 1
REMARK VINA RESULT: -4.925658550      0.000      0.000
REMARK  2 active torsions:
REMARK  status: ('A' for Active; 'I' for Inactive)
REMARK    1  A    between atoms: C2_2  and  N1_3 
REMARK    2  A    between atoms: C4_8  and  N3_9 
ROOT
HETATM    1  N1  UNL     1      17.536  22.024  33.452  1.00  0.00    -0.226 N 
HETATM    2  C3  UNL     1      18.413  21.042  33.693  1.00  0.00     0.348 A 
HETATM    3  O1  UNL     1      18.360  20.441  34.791  1.00  0.00    -0.245 OA
HETATM    4  N2  UNL     1      19.359  20.682  32.772  1.00  0.00    -0.141 N 
ATOM      5  H2  UNL     1      20.006  19.928  33.003  1.00  0.00     0.189 HD
HETATM    6  C4  UNL     1      19.469  21.281  31.583  1.00  0.00     0.683 A 
HETATM    7  N4  UNL     1      18.594  22.265  31.333  1.00  0.00    -0.141 N 
ATOM      8  H4  UNL     1      18.640  22.751  30.438  1.00  0.00     0.189 HD
HETATM    9  C5  UNL     1      17.664  22.628  32.222  1.00  0.00     0.348 A 
HETATM   10  O2  UNL     1      16.859  23.559  31.948  1.00  0.00    -0.245 OA
ENDROOT
BRANCH   6  11
HETATM   11  N3  UNL     1      20.356  20.953  30.708  1.00  0.00    -0.234 N 
ATOM     12  H32 UNL     1      21.139  21.574  30.502  1.00  0.00     0.174 HD
ATOM     13  H31 UNL     1      20.325  20.077  30.185  1.00  0.00     0.174 HD
ENDBRANCH   6  11
BRANCH   1  14
HETATM   14  C2  UNL     1      16.539  22.490  34.328  1.00  0.00     0.096 C 
HETATM   15  C1  UNL     1      16.690  23.191  35.409  1.00  0.00     0.030 C 
ENDBRANCH   1  14
TORSDOF 2
ENDMDL
MODEL 2
REMARK VINA RESULT: -4.924163537      0.068      2.354
REMARK  2 active torsions:
REMARK  status: ('A' for Active; 'I' for Inactive)
REMARK    1  A    between atoms: C2_2  and  N1_3 
REMARK    2  A    between atoms: C4_8  and  N3_9 
ROOT
HETATM    1  N1  UNL     1      17.502  22.098  33.419  1.00  0.00    -0.226 N 
HETATM    2  C3  UNL     1      17.611  22.680  32.220  1.00  0.00     0.348 A 
HETATM    3  O1  UNL     1      16.823  23.607  31.925  1.00  0.00    -0.245 OA
HETATM    4  N2  UNL     1      18.560  22.287  31.314  1.00  0.00    -0.141 N 
ATOM      5  H2  UNL     1      18.603  22.762  30.413  1.00  0.00     0.189 HD
HETATM    6  C4  UNL     1      19.431  21.307  31.566  1.00  0.00     0.683 A 
HETATM    7  N4  UNL     1      19.330  20.718  32.766  1.00  0.00    -0.141 N 
ATOM      8  H4  UNL     1      19.974  19.964  33.003  1.00  0.00     0.189 HD
HETATM    9  C5  UNL     1      18.409  21.091  33.661  1.00  0.00     0.348 A 
HETATM   10  O2  UNL     1      18.346  20.511  34.779  1.00  0.00    -0.245 OA
ENDROOT
BRANCH   6  11
HETATM   11  N3  UNL     1      20.328  20.927  30.723  1.00  0.00    -0.234 N 
ATOM     12  H32 UNL     1      20.062  20.463  29.854  1.00  0.00     0.174 HD
ATOM     13  H31 UNL     1      21.328  21.065  30.872  1.00  0.00     0.174 HD
ENDBRANCH   6  11
BRANCH   1  14
HETATM   14  C2  UNL     1      16.557  22.403  34.416  1.00  0.00     0.096 C 
HETATM   15  C1  UNL     1      16.689  23.215  35.419  1.00  0.00     0.030 C 
ENDBRANCH   1  14
TORSDOF 2
ENDMDL
MODEL 3
REMARK VINA RESULT: -4.449295635      1.874      3.024
REMARK  2 active torsions:
REMARK  status: ('A' for Active; 'I' for Inactive)
REMARK    1  A    between atoms: C2_2  and  N1_3 
REMARK    2  A    between atoms: C4_8  and  N3_9 
ROOT
HETATM    1  N1  UNL     1      17.809  22.450  32.231  1.00  0.00    -0.226 N 
HETATM    2  C3  UNL     1      18.907  21.686  32.255  1.00  0.00     0.348 A 
HETATM    3  O1  UNL     1      19.753  21.816  31.341  1.00  0.00    -0.245 OA
HETATM    4  N2  UNL     1      19.124  20.771  33.249  1.00  0.00    -0.141 N 
ATOM      5  H2  UNL     1      19.976  20.212  33.223  1.00  0.00     0.189 HD
HETATM    6  C4  UNL     1      18.263  20.583  34.254  1.00  0.00     0.683 A 
HETATM    7  N4  UNL     1      17.161  21.346  34.238  1.00  0.00    -0.141 N 
ATOM      8  H4  UNL     1      16.475  21.238  34.985  1.00  0.00     0.189 HD
HETATM    9  C5  UNL     1      16.935  22.244  33.274  1.00  0.00     0.348 A 
HETATM   10  O2  UNL     1      15.885  22.941  33.295  1.00  0.00    -0.245 OA
ENDROOT
BRANCH   6  11
HETATM   11  N3  UNL     1      18.455  19.726  35.196  1.00  0.00    -0.234 N 
ATOM     12  H32 UNL     1      18.393  18.725  35.008  1.00  0.00     0.174 HD
ATOM     13  H31 UNL     1      18.673  19.992  36.156  1.00  0.00     0.174 HD
ENDBRANCH   6  11
BRANCH   1  14
HETATM   14  C2  UNL     1      17.473  23.403  31.252  1.00  0.00     0.096 C 
HETATM   15  C1  UNL     1      17.212  24.662  31.420  1.00  0.00     0.030 C 
ENDBRANCH   1  14
TORSDOF 2
ENDMDL
MODEL 4
REMARK VINA RESULT: -4.153587777      1.170      1.202
REMARK  2 active torsions:
REMARK  status: ('A' for Active; 'I' for Inactive)
REMARK    1  A    between atoms: C2_2  and  N1_3 
REMARK    2  A    between atoms: C4_8  and  N3_9 
ROOT
HETATM    1  N1  UNL     1      17.419  22.604  32.916  1.00  0.00    -0.226 N 
HETATM    2  C3  UNL     1      18.095  21.745  33.687  1.00  0.00     0.348 A 
HETATM    3  O1  UNL     1      17.809  21.672  34.904  1.00  0.00    -0.245 OA
HETATM    4  N2  UNL     1      19.085  20.948  33.179  1.00  0.00    -0.141 N 
ATOM      5  H2  UNL     1      19.571  20.309  33.807  1.00  0.00     0.189 HD
HETATM    6  C4  UNL     1      19.439  20.975  31.891  1.00  0.00     0.683 A 
HETATM    7  N4  UNL     1      18.766  21.832  31.110  1.00  0.00    -0.141 N 
ATOM      8  H4  UNL     1      19.001  21.887  30.119  1.00  0.00     0.189 HD
HETATM    9  C5  UNL     1      17.797  22.617  31.592  1.00  0.00     0.348 A 
HETATM   10  O2  UNL     1      17.188  23.410  30.824  1.00  0.00    -0.245 OA
ENDROOT
BRANCH   6  11
HETATM   11  N3  UNL     1      20.369  20.231  31.400  1.00  0.00    -0.234 N 
ATOM     12  H32 UNL     1      21.336  20.336  31.707  1.00  0.00     0.174 HD
ATOM     13  H31 UNL     1      20.196  19.514  30.694  1.00  0.00     0.174 HD
ENDBRANCH   6  11
BRANCH   1  14
HETATM   14  C2  UNL     1      16.402  23.482  33.332  1.00  0.00     0.096 C 
HETATM   15  C1  UNL     1      16.382  24.776  33.251  1.00  0.00     0.030 C 
ENDBRANCH   1  14
TORSDOF 2
ENDMDL
MODEL 5
REMARK VINA RESULT: -4.117724696      1.888      3.192
REMARK  2 active torsions:
REMARK  status: ('A' for Active; 'I' for Inactive)
REMARK    1  A    between atoms: C2_2  and  N1_3 
REMARK    2  A    between atoms: C4_8  and  N3_9 
ROOT
HETATM    1  N1  UNL     1      17.696  22.475  32.293  1.00  0.00    -0.226 N 
HETATM    2  C3  UNL     1      16.878  22.287  33.336  1.00  0.00     0.348 A 
HETATM    3  O1  UNL     1      15.836  22.976  33.417  1.00  0.00    -0.245 OA
HETATM    4  N2  UNL     1      17.155  21.365  34.308  1.00  0.00    -0.141 N 
ATOM      5  H2  UNL     1      16.501  21.259  35.083  1.00  0.00     0.189 HD
HETATM    6  C4  UNL     1      18.248  20.597  34.281  1.00  0.00     0.683 A 
HETATM    7  N4  UNL     1      19.072  20.778  33.240  1.00  0.00    -0.141 N 
ATOM      8  H4  UNL     1      19.919  20.214  33.177  1.00  0.00     0.189 HD
HETATM    9  C5  UNL     1      18.816  21.675  32.282  1.00  0.00     0.348 A 
HETATM   10  O2  UNL     1      19.617  21.815  31.319  1.00  0.00    -0.245 OA
ENDROOT
BRANCH   6  11
HETATM   11  N3  UNL     1      18.520  19.726  35.190  1.00  0.00    -0.234 N 
ATOM     12  H32 UNL     1      17.773  19.204  35.650  1.00  0.00     0.174 HD
ATOM     13  H31 UNL     1      19.470  19.514  35.495  1.00  0.00     0.174 HD
ENDBRANCH   6  11
BRANCH   1  14
HETATM   14  C2  UNL     1      17.525  23.404  31.251  1.00  0.00     0.096 C 
HETATM   15  C1  UNL     1      17.369  24.689  31.344  1.00  0.00     0.030 C 
ENDBRANCH   1  14
TORSDOF 2
ENDMDL
