MODEL 1
REMARK VINA RESULT: -6.399020957      0.000      0.000
REMARK  2 active torsions:
REMARK  status: ('A' for Active; 'I' for Inactive)
REMARK    1  A    between atoms: N1_2  and  C2_4 
REMARK    2  A    between atoms: N2_11  and  N3_13 
ROOT
HETATM    1  C2  UNL     1      18.326  21.728  32.522  1.00  0.00     0.059 A 
HETATM    2  C3  UNL     1      18.058  22.689  31.615  1.00  0.00     0.086 A 
HETATM    3  C4  UNL     1      17.173  23.800  31.859  1.00  0.00     0.174 A 
HETATM    4  O1  UNL     1      16.978  24.659  30.946  1.00  0.00    -0.288 OA
HETATM    5  C5  UNL     1      16.520  23.904  33.158  1.00  0.00     0.057 A 
HETATM    6  C6  UNL     1      16.756  22.982  34.075  1.00  0.00     0.037 A 
HETATM    7  C7  UNL     1      17.680  21.840  33.795  1.00  0.00     0.074 A 
HETATM    8  N2  UNL     1      17.864  20.993  34.714  1.00  0.00    -0.305 N 
ATOM      9  H2  UNL     1      17.376  21.123  35.600  1.00  0.00     0.186 HD
ENDROOT
BRANCH   1  10
HETATM   10  N1  UNL     1      19.192  20.705  32.186  1.00  0.00    -0.392 N 
HETATM   11  C1  UNL     1      20.229  20.733  31.184  1.00  0.00     0.146 C 
ATOM     12  H1  UNL     1      19.086  19.833  32.703  1.00  0.00     0.159 HD
ENDBRANCH   1  10
BRANCH   8  13
HETATM   13  N3  UNL     1      18.689  19.903  34.576  1.00  0.00    -0.345 N 
ATOM     14  H32 UNL     1      18.468  19.238  33.835  1.00  0.00     0.176 HD
ATOM     15  H31 UNL     1      19.499  19.737  35.175  1.00  0.00     0.176 HD
ENDBRANCH   8  13
TORSDOF 2
ENDMDL
MODEL 2
REMARK VINA RESULT: -4.358555667      7.632      8.421
REMARK  2 active torsions:
REMARK  status: ('A' for Active; 'I' for Inactive)
REMARK    1  A    between atoms: N1_2  and  C2_4 
REMARK    2  A    between atoms: N2_11  and  N3_13 
ROOT
HETATM    1  C2  UNL     1      22.994  22.950  38.582  1.00  0.00     0.059 A 
HETATM    2  C3  UNL     1      23.878  21.969  38.308  1.00  0.00     0.086 A 
HETATM    3  C4  UNL     1      23.531  20.571  38.244  1.00  0.00     0.174 A 
HETATM    4  O1  UNL     1      24.429  19.715  37.979  1.00  0.00    -0.288 OA
HETATM    5  C5  UNL     1      22.149  20.179  38.487  1.00  0.00     0.057 A 
HETATM    6  C6  UNL     1      21.252  21.110  38.759  1.00  0.00     0.037 A 
HETATM    7  C7  UNL     1      21.638  22.553  38.819  1.00  0.00     0.074 A 
HETATM    8  N2  UNL     1      20.734  23.395  39.083  1.00  0.00    -0.305 N 
ATOM      9  H2  UNL     1      19.785  23.054  39.244  1.00  0.00     0.186 HD
ENDROOT
BRANCH   1  10
HETATM   10  N1  UNL     1      23.430  24.261  38.619  1.00  0.00    -0.392 N 
HETATM   11  C1  UNL     1      24.362  24.844  39.553  1.00  0.00     0.146 C 
ATOM     12  H1  UNL     1      23.051  24.885  37.908  1.00  0.00     0.159 HD
ENDBRANCH   1  10
BRANCH   8  13
HETATM   13  N3  UNL     1      20.965  24.746  39.165  1.00  0.00    -0.345 N 
ATOM     14  H32 UNL     1      21.937  25.056  39.170  1.00  0.00     0.176 HD
ATOM     15  H31 UNL     1      20.217  25.439  39.220  1.00  0.00     0.176 HD
ENDBRANCH   8  13
TORSDOF 2
ENDMDL
MODEL 3
REMARK VINA RESULT: -4.058471565      7.477      8.479
REMARK  2 active torsions:
REMARK  status: ('A' for Active; 'I' for Inactive)
REMARK    1  A    between atoms: N1_2  and  C2_4 
REMARK    2  A    between atoms: N2_11  and  N3_13 
ROOT
HETATM    1  C2  UNL     1      21.874  23.301  38.852  1.00  0.00     0.059 A 
HETATM    2  C3  UNL     1      21.171  22.157  38.736  1.00  0.00     0.086 A 
HETATM    3  C4  UNL     1      21.763  20.879  38.430  1.00  0.00     0.174 A 
HETATM    4  O1  UNL     1      21.024  19.852  38.339  1.00  0.00    -0.288 OA
HETATM    5  C5  UNL     1      23.205  20.802  38.230  1.00  0.00     0.057 A 
HETATM    6  C6  UNL     1      23.930  21.902  38.335  1.00  0.00     0.037 A 
HETATM    7  C7  UNL     1      23.290  23.215  38.655  1.00  0.00     0.074 A 
HETATM    8  N2  UNL     1      24.039  24.229  38.742  1.00  0.00    -0.305 N 
ATOM      9  H2  UNL     1      25.041  24.108  38.591  1.00  0.00     0.186 HD
ENDROOT
BRANCH   1  10
HETATM   10  N1  UNL     1      21.209  24.476  39.150  1.00  0.00    -0.392 N 
HETATM   11  C1  UNL     1      20.095  24.643  40.050  1.00  0.00     0.146 C 
ATOM     12  H1  UNL     1      21.542  25.317  38.681  1.00  0.00     0.159 HD
ENDBRANCH   1  10
BRANCH   8  13
HETATM   13  N3  UNL     1      23.570  25.487  39.031  1.00  0.00    -0.345 N 
ATOM     14  H32 UNL     1      23.591  25.783  40.007  1.00  0.00     0.176 HD
ATOM     15  H31 UNL     1      23.208  26.125  38.321  1.00  0.00     0.176 HD
ENDBRANCH   8  13
TORSDOF 2
ENDMDL
MODEL 4
REMARK VINA RESULT: -3.945686373      1.343      2.728
REMARK  2 active torsions:
REMARK  status: ('A' for Active; 'I' for Inactive)
REMARK    1  A    between atoms: N1_2  and  C2_4 
REMARK    2  A    between atoms: N2_11  and  N3_13 
ROOT
HETATM    1  C2  UNL     1      18.193  21.824  33.054  1.00  0.00     0.059 A 
HETATM    2  C3  UNL     1      17.339  22.686  33.642  1.00  0.00     0.086 A 
HETATM    3  C4  UNL     1      16.716  23.791  32.958  1.00  0.00     0.174 A 
HETATM    4  O1  UNL     1      15.923  24.553  33.590  1.00  0.00    -0.288 OA
HETATM    5  C5  UNL     1      17.018  24.004  31.548  1.00  0.00     0.057 A 
HETATM    6  C6  UNL     1      17.851  23.182  30.935  1.00  0.00     0.037 A 
HETATM    7  C7  UNL     1      18.483  22.042  31.669  1.00  0.00     0.074 A 
HETATM    8  N2  UNL     1      19.270  21.291  31.025  1.00  0.00    -0.305 N 
ATOM      9  H2  UNL     1      19.439  21.495  30.040  1.00  0.00     0.186 HD
ENDROOT
BRANCH   1  10
HETATM   10  N1  UNL     1      18.735  20.795  33.801  1.00  0.00    -0.392 N 
HETATM   11  C1  UNL     1      18.371  20.404  35.141  1.00  0.00     0.146 C 
ATOM     12  H1  UNL     1      19.475  20.253  33.356  1.00  0.00     0.159 HD
ENDBRANCH   1  10
BRANCH   8  13
HETATM   13  N3  UNL     1      19.909  20.214  31.589  1.00  0.00    -0.345 N 
ATOM     14  H32 UNL     1      20.760  19.883  31.134  1.00  0.00     0.176 HD
ATOM     15  H31 UNL     1      19.572  19.741  32.428  1.00  0.00     0.176 HD
ENDBRANCH   8  13
TORSDOF 2
ENDMDL
MODEL 5
REMARK VINA RESULT: -3.564556486      1.027      2.866
REMARK  2 active torsions:
REMARK  status: ('A' for Active; 'I' for Inactive)
REMARK    1  A    between atoms: N1_2  and  C2_4 
REMARK    2  A    between atoms: N2_11  and  N3_13 
ROOT
HETATM    1  C2  UNL     1      17.248  22.328  33.818  1.00  0.00     0.059 A 
HETATM    2  C3  UNL     1      16.847  23.337  33.019  1.00  0.00     0.086 A 
HETATM    3  C4  UNL     1      17.277  23.501  31.653  1.00  0.00     0.174 A 
HETATM    4  O1  UNL     1      16.848  24.482  30.974  1.00  0.00    -0.288 OA
HETATM    5  C5  UNL     1      18.202  22.526  31.088  1.00  0.00     0.057 A 
HETATM    6  C6  UNL     1      18.620  21.522  31.838  1.00  0.00     0.037 A 
HETATM    7  C7  UNL     1      18.157  21.376  33.252  1.00  0.00     0.074 A 
HETATM    8  N2  UNL     1      18.592  20.393  33.916  1.00  0.00    -0.305 N 
ATOM      9  H2  UNL     1      19.238  19.747  33.461  1.00  0.00     0.186 HD
ENDROOT
BRANCH   1  10
HETATM   10  N1  UNL     1      16.774  22.263  35.114  1.00  0.00    -0.392 N 
HETATM   11  C1  UNL     1      16.589  23.360  36.031  1.00  0.00     0.146 C 
ATOM     12  H1  UNL     1      16.527  21.336  35.461  1.00  0.00     0.159 HD
ENDBRANCH   1  10
BRANCH   8  13
HETATM   13  N3  UNL     1      18.238  20.152  35.222  1.00  0.00    -0.345 N 
ATOM     14  H32 UNL     1      18.157  20.959  35.841  1.00  0.00     0.176 HD
ATOM     15  H31 UNL     1      18.057  19.217  35.588  1.00  0.00     0.176 HD
ENDBRANCH   8  13
TORSDOF 2
ENDMDL
