MODEL 1
REMARK VINA RESULT: -6.814829735      0.000      0.000
REMARK  9 active torsions:
REMARK  status: ('A' for Active; 'I' for Inactive)
REMARK    1  A    between atoms: C4_4  and  C5_5 
REMARK    2  A    between atoms: C5_5  and  O2_7 
REMARK    3  A    between atoms: O2_7  and  C6_8 
REMARK    4  A    between atoms: C8_10  and  O3_11 
REMARK    5  A    between atoms: C8_10  and  C9_13 
REMARK    6  A    between atoms: C9_13  and  C11_15 
REMARK    7  A    between atoms: C11_15  and  C12_17 
REMARK    8  A    between atoms: C14_21  and  O4_22 
REMARK    9  A    between atoms: C17_27  and  O5_28 
ROOT
HETATM    1  C6  UNL     1      -2.322  42.195   7.849  1.00  0.00     0.149 C 
HETATM    2  C7  UNL     1      -3.463  41.811   8.725  1.00  0.00     0.079 C 
HETATM    3  C8  UNL     1      -3.365  42.632   9.999  1.00  0.00     0.116 C 
HETATM    4  C14 UNL     1      -1.913  42.831  10.048  1.00  0.00     0.108 C 
HETATM    5  C15 UNL     1      -1.227  43.893  10.744  1.00  0.00     0.082 C 
HETATM    6  C16 UNL     1       0.138  43.857  10.016  1.00  0.00     0.202 C 
HETATM    7  F2  UNL     1       1.038  43.071  10.743  1.00  0.00    -0.247 F 
HETATM    8  C17 UNL     1      -0.120  43.146   8.687  1.00  0.00     0.166 C 
HETATM    9  C18 UNL     1      -1.610  43.219   8.604  1.00  0.00     0.046 C 
HETATM   10  C19 UNL     1      -1.940  44.596   8.189  1.00  0.00     0.024 C 
ENDROOT
BRANCH   3  11
HETATM   11  O3  UNL     1      -4.020  43.836   9.714  1.00  0.00    -0.382 OA
ATOM     12  H3  UNL     1      -3.736  44.442  10.389  1.00  0.00     0.211 HD
ENDBRANCH   3  11
BRANCH   3  13
HETATM   13  C9  UNL     1      -4.026  42.069  11.195  1.00  0.00    -0.029 C 
HETATM   14  C10 UNL     1      -4.797  43.078  12.025  1.00  0.00     0.048 C 
BRANCH  13  15
HETATM   15  C11 UNL     1      -4.784  40.817  11.156  1.00  0.00     0.048 C 
HETATM   16 BR1  UNL     1      -6.520  40.841  12.010  1.00  0.00    -0.051 Br
BRANCH  15  17
HETATM   17  C12 UNL     1      -4.166  39.508  11.453  1.00  0.00     0.209 C 
HETATM   18  C13 UNL     1      -3.026  39.727  12.480  1.00  0.00     0.076 C 
HETATM   19  F1  UNL     1      -3.468  38.996  10.372  1.00  0.00    -0.220 F 
HETATM   20 CL1  UNL     1      -5.149  38.246  12.111  1.00  0.00    -0.077 Cl
ENDBRANCH  15  17
ENDBRANCH  13  15
ENDBRANCH   3  13
BRANCH   4  21
HETATM   21  O4  UNL     1      -1.208  41.648  10.285  1.00  0.00    -0.385 OA
ATOM     22  H4  UNL     1      -0.436  41.777  10.823  1.00  0.00     0.210 HD
ENDBRANCH   4  21
BRANCH   1  23
HETATM   23  O2  UNL     1      -2.602  42.601   6.564  1.00  0.00    -0.312 OA
BRANCH  23  24
HETATM   24  C5  UNL     1      -3.773  42.633   5.894  1.00  0.00     0.283 C 
HETATM   25  O1  UNL     1      -4.232  43.748   5.700  1.00  0.00    -0.260 OA
BRANCH  24  26
HETATM   26  C4  UNL     1      -4.419  41.426   5.451  1.00  0.00     0.084 C 
HETATM   27  C2  UNL     1      -4.530  41.038   4.193  1.00  0.00    -0.082 C 
HETATM   28  C1  UNL     1      -5.214  39.772   3.818  1.00  0.00     0.043 C 
HETATM   29  C3  UNL     1      -3.957  41.889   3.132  1.00  0.00     0.043 C 
ENDBRANCH  24  26
ENDBRANCH  23  24
ENDBRANCH   1  23
BRANCH   8  30
HETATM   30  O5  UNL     1       0.439  41.911   8.606  1.00  0.00    -0.392 OA
ATOM     31  H5  UNL     1       0.614  41.625   7.717  1.00  0.00     0.210 HD
ENDBRANCH   8  30
TORSDOF 9
ENDMDL
MODEL 2
REMARK VINA RESULT: -6.678627119      2.858      4.490
REMARK  9 active torsions:
REMARK  status: ('A' for Active; 'I' for Inactive)
REMARK    1  A    between atoms: C4_4  and  C5_5 
REMARK    2  A    between atoms: C5_5  and  O2_7 
REMARK    3  A    between atoms: O2_7  and  C6_8 
REMARK    4  A    between atoms: C8_10  and  O3_11 
REMARK    5  A    between atoms: C8_10  and  C9_13 
REMARK    6  A    between atoms: C9_13  and  C11_15 
REMARK    7  A    between atoms: C11_15  and  C12_17 
REMARK    8  A    between atoms: C14_21  and  O4_22 
REMARK    9  A    between atoms: C17_27  and  O5_28 
ROOT
HETATM    1  C6  UNL     1      -3.606  42.244   9.728  1.00  0.00     0.149 C 
HETATM    2  C7  UNL     1      -4.484  43.250  10.388  1.00  0.00     0.079 C 
HETATM    3  C8  UNL     1      -4.636  42.848  11.844  1.00  0.00     0.116 C 
HETATM    4  C14 UNL     1      -4.473  41.397  11.714  1.00  0.00     0.108 C 
HETATM    5  C15 UNL     1      -4.059  40.494  12.761  1.00  0.00     0.082 C 
HETATM    6  C16 UNL     1      -3.597  39.286  11.911  1.00  0.00     0.202 C 
HETATM    7  F2  UNL     1      -4.641  38.362  11.801  1.00  0.00    -0.247 F 
HETATM    8  C17 UNL     1      -3.329  39.842  10.512  1.00  0.00     0.166 C 
HETATM    9  C18 UNL     1      -3.259  41.309  10.792  1.00  0.00     0.046 C 
HETATM   10  C19 UNL     1      -1.934  41.559  11.390  1.00  0.00     0.024 C 
ENDROOT
BRANCH   3  11
HETATM   11  O3  UNL     1      -3.535  43.412  12.500  1.00  0.00    -0.382 OA
ATOM     12  H3  UNL     1      -3.596  43.109  13.399  1.00  0.00     0.211 HD
ENDBRANCH   3  11
BRANCH   3  13
HETATM   13  C9  UNL     1      -5.839  43.348  12.541  1.00  0.00    -0.029 C 
HETATM   14  C10 UNL     1      -5.581  43.903  13.930  1.00  0.00     0.048 C 
BRANCH  13  15
HETATM   15  C11 UNL     1      -6.836  44.189  11.878  1.00  0.00     0.048 C 
HETATM   16 BR1  UNL     1      -6.785  46.076  12.305  1.00  0.00    -0.051 Br
BRANCH  15  17
HETATM   17  C12 UNL     1      -8.258  43.801  11.777  1.00  0.00     0.209 C 
HETATM   18  C13 UNL     1      -8.932  44.683  10.695  1.00  0.00     0.076 C 
HETATM   19  F1  UNL     1      -8.982  44.148  12.905  1.00  0.00    -0.220 F 
HETATM   20 CL1  UNL     1      -8.655  42.169  11.360  1.00  0.00    -0.077 Cl
ENDBRANCH  15  17
ENDBRANCH  13  15
ENDBRANCH   3  13
BRANCH   4  21
HETATM   21  O4  UNL     1      -5.525  40.790  11.024  1.00  0.00    -0.385 OA
ATOM     22  H4  UNL     1      -5.753  39.935  11.373  1.00  0.00     0.210 HD
ENDBRANCH   4  21
BRANCH   1  23
HETATM   23  O2  UNL     1      -2.495  42.697   9.056  1.00  0.00    -0.312 OA
BRANCH  23  24
HETATM   24  C5  UNL     1      -2.109  42.501   7.778  1.00  0.00     0.283 C 
HETATM   25  O1  UNL     1      -1.027  41.952   7.638  1.00  0.00    -0.260 OA
BRANCH  24  26
HETATM   26  C4  UNL     1      -2.929  42.920   6.671  1.00  0.00     0.084 C 
HETATM   27  C2  UNL     1      -3.748  42.137   5.990  1.00  0.00    -0.082 C 
HETATM   28  C1  UNL     1      -4.564  42.649   4.858  1.00  0.00     0.043 C 
HETATM   29  C3  UNL     1      -3.852  40.715   6.368  1.00  0.00     0.043 C 
ENDBRANCH  24  26
ENDBRANCH  23  24
ENDBRANCH   1  23
BRANCH   8  30
HETATM   30  O5  UNL     1      -4.229  39.439   9.577  1.00  0.00    -0.392 OA
ATOM     31  H5  UNL     1      -4.440  40.105   8.933  1.00  0.00     0.210 HD
ENDBRANCH   8  30
TORSDOF 9
ENDMDL
MODEL 3
REMARK VINA RESULT: -6.666861106      2.925      4.552
REMARK  9 active torsions:
REMARK  status: ('A' for Active; 'I' for Inactive)
REMARK    1  A    between atoms: C4_4  and  C5_5 
REMARK    2  A    between atoms: C5_5  and  O2_7 
REMARK    3  A    between atoms: O2_7  and  C6_8 
REMARK    4  A    between atoms: C8_10  and  O3_11 
REMARK    5  A    between atoms: C8_10  and  C9_13 
REMARK    6  A    between atoms: C9_13  and  C11_15 
REMARK    7  A    between atoms: C11_15  and  C12_17 
REMARK    8  A    between atoms: C14_21  and  O4_22 
REMARK    9  A    between atoms: C17_27  and  O5_28 
ROOT
HETATM    1  C6  UNL     1      -3.695  42.206   9.994  1.00  0.00     0.149 C 
HETATM    2  C7  UNL     1      -4.716  43.137  10.550  1.00  0.00     0.079 C 
HETATM    3  C8  UNL     1      -5.022  42.693  11.970  1.00  0.00     0.116 C 
HETATM    4  C14 UNL     1      -4.745  41.260  11.841  1.00  0.00     0.108 C 
HETATM    5  C15 UNL     1      -4.406  40.362  12.920  1.00  0.00     0.082 C 
HETATM    6  C16 UNL     1      -3.759  39.207  12.119  1.00  0.00     0.202 C 
HETATM    7  F2  UNL     1      -4.716  38.219  11.864  1.00  0.00    -0.247 F 
HETATM    8  C17 UNL     1      -3.356  39.811  10.774  1.00  0.00     0.166 C 
HETATM    9  C18 UNL     1      -3.422  41.272  11.080  1.00  0.00     0.046 C 
HETATM   10  C19 UNL     1      -2.203  41.595  11.845  1.00  0.00     0.024 C 
ENDROOT
BRANCH   3  11
HETATM   11  O3  UNL     1      -4.054  43.314  12.768  1.00  0.00    -0.382 OA
ATOM     12  H3  UNL     1      -4.070  42.844  13.594  1.00  0.00     0.211 HD
ENDBRANCH   3  11
BRANCH   3  13
HETATM   13  C9  UNL     1      -6.335  43.097  12.515  1.00  0.00    -0.029 C 
HETATM   14  C10 UNL     1      -6.265  43.935  13.778  1.00  0.00     0.048 C 
BRANCH  13  15
HETATM   15  C11 UNL     1      -7.409  43.617  11.667  1.00  0.00     0.048 C 
HETATM   16 BR1  UNL     1      -7.650  45.537  11.671  1.00  0.00    -0.051 Br
BRANCH  15  17
HETATM   17  C12 UNL     1      -8.754  43.005  11.631  1.00  0.00     0.209 C 
HETATM   18  C13 UNL     1      -8.636  41.535  12.108  1.00  0.00     0.076 C 
HETATM   19  F1  UNL     1      -9.223  42.839  10.339  1.00  0.00    -0.220 F 
HETATM   20 CL1  UNL     1     -10.019  43.704  12.581  1.00  0.00    -0.077 Cl
ENDBRANCH  15  17
ENDBRANCH  13  15
ENDBRANCH   3  13
BRANCH   4  21
HETATM   21  O4  UNL     1      -5.658  40.600  11.015  1.00  0.00    -0.385 OA
ATOM     22  H4  UNL     1      -5.343  40.492  10.125  1.00  0.00     0.210 HD
ENDBRANCH   4  21
BRANCH   1  23
HETATM   23  O2  UNL     1      -2.542  42.746   9.474  1.00  0.00    -0.312 OA
BRANCH  23  24
HETATM   24  C5  UNL     1      -2.051  42.712   8.218  1.00  0.00     0.283 C 
HETATM   25  O1  UNL     1      -0.918  42.271   8.112  1.00  0.00    -0.260 OA
BRANCH  24  26
HETATM   26  C4  UNL     1      -2.827  43.170   7.095  1.00  0.00     0.084 C 
HETATM   27  C2  UNL     1      -3.567  42.401   6.315  1.00  0.00    -0.082 C 
HETATM   28  C1  UNL     1      -4.341  42.954   5.173  1.00  0.00     0.043 C 
HETATM   29  C3  UNL     1      -3.623  40.953   6.589  1.00  0.00     0.043 C 
ENDBRANCH  24  26
ENDBRANCH  23  24
ENDBRANCH   1  23
BRANCH   8  30
HETATM   30  O5  UNL     1      -4.101  39.369   9.727  1.00  0.00    -0.392 OA
ATOM     31  H5  UNL     1      -3.962  39.857   8.922  1.00  0.00     0.210 HD
ENDBRANCH   8  30
TORSDOF 9
ENDMDL
MODEL 4
REMARK VINA RESULT: -6.544292262      3.274      5.972
REMARK  9 active torsions:
REMARK  status: ('A' for Active; 'I' for Inactive)
REMARK    1  A    between atoms: C4_4  and  C5_5 
REMARK    2  A    between atoms: C5_5  and  O2_7 
REMARK    3  A    between atoms: O2_7  and  C6_8 
REMARK    4  A    between atoms: C8_10  and  O3_11 
REMARK    5  A    between atoms: C8_10  and  C9_13 
REMARK    6  A    between atoms: C9_13  and  C11_15 
REMARK    7  A    between atoms: C11_15  and  C12_17 
REMARK    8  A    between atoms: C14_21  and  O4_22 
REMARK    9  A    between atoms: C17_27  and  O5_28 
ROOT
HETATM    1  C6  UNL     1      -1.476  42.408   8.057  1.00  0.00     0.149 C 
HETATM    2  C7  UNL     1      -1.950  41.888   6.744  1.00  0.00     0.079 C 
HETATM    3  C8  UNL     1      -3.302  41.235   6.966  1.00  0.00     0.116 C 
HETATM    4  C14 UNL     1      -3.142  40.814   8.362  1.00  0.00     0.108 C 
HETATM    5  C15 UNL     1      -4.211  40.551   9.295  1.00  0.00     0.082 C 
HETATM    6  C16 UNL     1      -3.441  40.670  10.631  1.00  0.00     0.202 C 
HETATM    7  F2  UNL     1      -3.031  39.400  11.052  1.00  0.00    -0.247 F 
HETATM    8  C17 UNL     1      -2.181  41.475  10.313  1.00  0.00     0.166 C 
HETATM    9  C18 UNL     1      -2.543  42.069   8.991  1.00  0.00     0.046 C 
HETATM   10  C19 UNL     1      -3.460  43.190   9.272  1.00  0.00     0.024 C 
ENDROOT
BRANCH   3  11
HETATM   11  O3  UNL     1      -4.236  42.273   6.867  1.00  0.00    -0.382 OA
ATOM     12  H3  UNL     1      -4.950  41.919   6.349  1.00  0.00     0.211 HD
ENDBRANCH   3  11
BRANCH   3  13
HETATM   13  C9  UNL     1      -3.706  40.211   5.979  1.00  0.00    -0.029 C 
HETATM   14  C10 UNL     1      -4.127  38.884   6.582  1.00  0.00     0.048 C 
BRANCH  13  15
HETATM   15  C11 UNL     1      -4.589  40.516   4.852  1.00  0.00     0.048 C 
HETATM   16 BR1  UNL     1      -5.929  39.185   4.430  1.00  0.00    -0.051 Br
BRANCH  15  17
HETATM   17  C12 UNL     1      -4.081  41.049   3.571  1.00  0.00     0.209 C 
HETATM   18  C13 UNL     1      -4.984  40.519   2.428  1.00  0.00     0.076 C 
HETATM   19  F1  UNL     1      -2.853  40.510   3.225  1.00  0.00    -0.220 F 
HETATM   20 CL1  UNL     1      -4.003  42.763   3.347  1.00  0.00    -0.077 Cl
ENDBRANCH  15  17
ENDBRANCH  13  15
ENDBRANCH   3  13
BRANCH   4  21
HETATM   21  O4  UNL     1      -2.185  39.809   8.523  1.00  0.00    -0.385 OA
ATOM     22  H4  UNL     1      -1.408  40.106   8.982  1.00  0.00     0.210 HD
ENDBRANCH   4  21
BRANCH   1  23
HETATM   23  O2  UNL     1      -1.121  43.735   8.137  1.00  0.00    -0.312 OA
BRANCH  23  24
HETATM   24  C5  UNL     1      -0.111  44.329   8.808  1.00  0.00     0.283 C 
HETATM   25  O1  UNL     1       0.270  43.739   9.806  1.00  0.00    -0.260 OA
BRANCH  24  26
HETATM   26  C4  UNL     1       0.460  45.572   8.359  1.00  0.00     0.084 C 
HETATM   27  C2  UNL     1      -0.214  46.689   8.149  1.00  0.00    -0.082 C 
HETATM   28  C1  UNL     1       0.454  47.934   7.685  1.00  0.00     0.043 C 
HETATM   29  C3  UNL     1      -1.670  46.697   8.383  1.00  0.00     0.043 C 
ENDBRANCH  24  26
ENDBRANCH  23  24
ENDBRANCH   1  23
BRANCH   8  30
HETATM   30  O5  UNL     1      -1.035  40.747  10.365  1.00  0.00    -0.392 OA
ATOM     31  H5  UNL     1      -0.654  40.568   9.513  1.00  0.00     0.210 HD
ENDBRANCH   8  30
TORSDOF 9
ENDMDL
MODEL 5
REMARK VINA RESULT: -6.497660913      2.974      5.852
REMARK  9 active torsions:
REMARK  status: ('A' for Active; 'I' for Inactive)
REMARK    1  A    between atoms: C4_4  and  C5_5 
REMARK    2  A    between atoms: C5_5  and  O2_7 
REMARK    3  A    between atoms: O2_7  and  C6_8 
REMARK    4  A    between atoms: C8_10  and  O3_11 
REMARK    5  A    between atoms: C8_10  and  C9_13 
REMARK    6  A    between atoms: C9_13  and  C11_15 
REMARK    7  A    between atoms: C11_15  and  C12_17 
REMARK    8  A    between atoms: C14_21  and  O4_22 
REMARK    9  A    between atoms: C17_27  and  O5_28 
ROOT
HETATM    1  C6  UNL     1      -2.845  41.263   9.667  1.00  0.00     0.149 C 
HETATM    2  C7  UNL     1      -3.528  41.015   8.367  1.00  0.00     0.079 C 
HETATM    3  C8  UNL     1      -3.006  42.033   7.369  1.00  0.00     0.116 C 
HETATM    4  C14 UNL     1      -2.679  43.128   8.287  1.00  0.00     0.108 C 
HETATM    5  C15 UNL     1      -1.735  44.190   8.035  1.00  0.00     0.082 C 
HETATM    6  C16 UNL     1      -1.470  44.667   9.483  1.00  0.00     0.202 C 
HETATM    7  F2  UNL     1      -2.305  45.750   9.781  1.00  0.00    -0.247 F 
HETATM    8  C17 UNL     1      -1.889  43.506  10.385  1.00  0.00     0.166 C 
HETATM    9  C18 UNL     1      -1.949  42.382   9.402  1.00  0.00     0.046 C 
HETATM   10  C19 UNL     1      -0.555  41.975   9.144  1.00  0.00     0.024 C 
ENDROOT
BRANCH   3  11
HETATM   11  O3  UNL     1      -1.841  41.467   6.838  1.00  0.00    -0.382 OA
ATOM     12  H3  UNL     1      -1.628  41.997   6.079  1.00  0.00     0.211 HD
ENDBRANCH   3  11
BRANCH   3  13
HETATM   13  C9  UNL     1      -3.886  42.335   6.220  1.00  0.00    -0.029 C 
HETATM   14  C10 UNL     1      -4.061  43.814   5.930  1.00  0.00     0.048 C 
BRANCH  13  15
HETATM   15  C11 UNL     1      -3.788  41.617   4.948  1.00  0.00     0.048 C 
HETATM   16 BR1  UNL     1      -3.838  42.702   3.346  1.00  0.00    -0.051 Br
BRANCH  15  17
HETATM   17  C12 UNL     1      -4.563  40.389   4.672  1.00  0.00     0.209 C 
HETATM   18  C13 UNL     1      -4.087  39.805   3.317  1.00  0.00     0.076 C 
HETATM   19  F1  UNL     1      -5.895  40.655   4.405  1.00  0.00    -0.220 F 
HETATM   20 CL1  UNL     1      -4.486  39.077   5.797  1.00  0.00    -0.077 Cl
ENDBRANCH  15  17
ENDBRANCH  13  15
ENDBRANCH   3  13
BRANCH   4  21
HETATM   21  O4  UNL     1      -3.807  43.698   8.881  1.00  0.00    -0.385 OA
ATOM     22  H4  UNL     1      -3.599  44.434   9.444  1.00  0.00     0.210 HD
ENDBRANCH   4  21
BRANCH   1  23
HETATM   23  O2  UNL     1      -2.193  40.210  10.267  1.00  0.00    -0.312 OA
BRANCH  23  24
HETATM   24  C5  UNL     1      -2.367  39.655  11.484  1.00  0.00     0.283 C 
HETATM   25  O1  UNL     1      -1.371  39.616  12.188  1.00  0.00    -0.260 OA
BRANCH  24  26
HETATM   26  C4  UNL     1      -3.648  39.149  11.903  1.00  0.00     0.084 C 
HETATM   27  C2  UNL     1      -4.518  39.802  12.653  1.00  0.00    -0.082 C 
HETATM   28  C1  UNL     1      -5.824  39.206  13.041  1.00  0.00     0.043 C 
HETATM   29  C3  UNL     1      -4.180  41.161  13.115  1.00  0.00     0.043 C 
ENDBRANCH  24  26
ENDBRANCH  23  24
ENDBRANCH   1  23
BRANCH   8  30
HETATM   30  O5  UNL     1      -3.013  43.748  11.109  1.00  0.00    -0.392 OA
ATOM     31  H5  UNL     1      -3.818  43.521  10.658  1.00  0.00     0.210 HD
ENDBRANCH   8  30
TORSDOF 9
ENDMDL
