MODEL 1
REMARK VINA RESULT: -6.693879723      0.000      0.000
REMARK  7 active torsions:
REMARK  status: ('A' for Active; 'I' for Inactive)
REMARK    1  A    between atoms: C2_2  and  C3_3 
REMARK       I    between atoms: C3_3  and  N1_5 
REMARK    2  A    between atoms: N2_8  and  C6_9 
REMARK    3  A    between atoms: N3_19  and  C13_20 
REMARK    4  A    between atoms: C13_20  and  C14_21 
REMARK    5  A    between atoms: C14_21  and  O2_22 
REMARK    6  A    between atoms: C17_27  and  C18_28 
REMARK    7  A    between atoms: C18_28  and  O3_29 
ROOT
HETATM    1  C6  UNL     1      -2.549  41.078   8.266  1.00  0.00     0.095 A 
HETATM    2  C7  UNL     1      -1.262  41.511   7.928  1.00  0.00     0.185 A 
HETATM    3  F1  UNL     1      -0.935  41.939   6.695  1.00  0.00    -0.200 F 
HETATM    4  C8  UNL     1      -0.307  41.492   8.910  1.00  0.00     0.184 A 
HETATM    5  F2  UNL     1       0.937  41.906   8.585  1.00  0.00    -0.200 F 
HETATM    6  C9  UNL     1      -0.572  41.061  10.217  1.00  0.00     0.090 A 
HETATM    7  C10 UNL     1      -1.872  40.637  10.510  1.00  0.00     0.037 A 
HETATM    8  C11 UNL     1      -1.926  40.256  11.831  1.00  0.00     0.041 A 
HETATM    9 BR1  UNL     1      -3.460  39.600  12.735  1.00  0.00    -0.049 Br
HETATM   10  C12 UNL     1      -0.667  40.453  12.319  1.00  0.00     0.111 A 
HETATM   11  N3  UNL     1       0.149  40.940  11.342  1.00  0.00    -0.350 N 
HETATM   12  C15 UNL     1      -2.843  40.650   9.532  1.00  0.00     0.077 A 
HETATM   13 CL1  UNL     1      -4.452  40.114   9.937  1.00  0.00    -0.081 Cl
ENDROOT
BRANCH   1  14
HETATM   14  N2  UNL     1      -3.548  41.090   7.268  1.00  0.00    -0.373 N 
HETATM   15  C5  UNL     1      -4.013  42.352   6.801  1.00  0.00     0.143 C 
HETATM   16  C4  UNL     1      -4.651  42.335   5.436  1.00  0.00     0.146 C 
HETATM   17  N1  UNL     1      -4.188  41.161   4.679  1.00  0.00    -0.342 N 
HETATM   18  C3  UNL     1      -3.707  41.358   3.360  1.00  0.00     0.220 C 
HETATM   19  C17 UNL     1      -4.238  39.878   5.302  1.00  0.00     0.128 C 
HETATM   20  O1  UNL     1      -3.689  42.533   2.849  1.00  0.00    -0.273 OA
HETATM   21  C16 UNL     1      -4.068  39.862   6.777  1.00  0.00     0.150 C 
BRANCH  18  22
HETATM   22  C2  UNL     1      -3.207  40.271   2.503  1.00  0.00     0.098 C 
HETATM   23  C1  UNL     1      -3.974  40.200   1.181  1.00  0.00     0.014 C 
ENDBRANCH  18  22
BRANCH  19  24
HETATM   24  C18 UNL     1      -5.505  39.116   4.977  1.00  0.00     0.191 C 
BRANCH  24  25
HETATM   25  O3  UNL     1      -6.205  39.708   3.927  1.00  0.00    -0.399 OA
ATOM     26  H3  UNL     1      -6.466  39.067   3.276  1.00  0.00     0.209 HD
ENDBRANCH  24  25
ENDBRANCH  19  24
ENDBRANCH   1  14
BRANCH  11  27
HETATM   27  C13 UNL     1       1.540  41.275  11.485  1.00  0.00     0.154 C 
BRANCH  27  28
HETATM   28  C14 UNL     1       2.405  40.057  11.686  1.00  0.00     0.184 C 
BRANCH  28  29
HETATM   29  O2  UNL     1       2.083  39.079  10.719  1.00  0.00    -0.399 OA
ATOM     30  H2  UNL     1       1.998  38.230  11.137  1.00  0.00     0.209 HD
ENDBRANCH  28  29
ENDBRANCH  27  28
ENDBRANCH  11  27
TORSDOF 7
ENDMDL
MODEL 2
REMARK VINA RESULT: -6.430361337      2.959      3.913
REMARK  7 active torsions:
REMARK  status: ('A' for Active; 'I' for Inactive)
REMARK    1  A    between atoms: C2_2  and  C3_3 
REMARK       I    between atoms: C3_3  and  N1_5 
REMARK    2  A    between atoms: N2_8  and  C6_9 
REMARK    3  A    between atoms: N3_19  and  C13_20 
REMARK    4  A    between atoms: C13_20  and  C14_21 
REMARK    5  A    between atoms: C14_21  and  O2_22 
REMARK    6  A    between atoms: C17_27  and  C18_28 
REMARK    7  A    between atoms: C18_28  and  O3_29 
ROOT
HETATM    1  C6  UNL     1      -3.477  41.517   6.822  1.00  0.00     0.095 A 
HETATM    2  C7  UNL     1      -3.537  42.890   6.567  1.00  0.00     0.185 A 
HETATM    3  F1  UNL     1      -3.838  43.396   5.357  1.00  0.00    -0.200 F 
HETATM    4  C8  UNL     1      -3.273  43.743   7.607  1.00  0.00     0.184 A 
HETATM    5  F2  UNL     1      -3.327  45.070   7.361  1.00  0.00    -0.200 F 
HETATM    6  C9  UNL     1      -2.954  43.291   8.894  1.00  0.00     0.090 A 
HETATM    7  C10 UNL     1      -2.906  41.909   9.104  1.00  0.00     0.037 A 
HETATM    8  C11 UNL     1      -2.576  41.672  10.420  1.00  0.00     0.041 A 
HETATM    9 BR1  UNL     1      -2.378  39.966  11.225  1.00  0.00    -0.049 Br
HETATM   10  C12 UNL     1      -2.429  42.906  10.986  1.00  0.00     0.111 A 
HETATM   11  N3  UNL     1      -2.659  43.882  10.063  1.00  0.00    -0.350 N 
HETATM   12  C15 UNL     1      -3.167  41.040   8.068  1.00  0.00     0.077 A 
HETATM   13 CL1  UNL     1      -3.098  39.324   8.370  1.00  0.00    -0.081 Cl
ENDROOT
BRANCH   1  14
HETATM   14  N2  UNL     1      -3.745  40.622   5.764  1.00  0.00    -0.373 N 
HETATM   15  C5  UNL     1      -4.580  39.499   6.030  1.00  0.00     0.143 C 
HETATM   16  C4  UNL     1      -5.247  38.895   4.822  1.00  0.00     0.146 C 
HETATM   17  N1  UNL     1      -5.318  39.887   3.737  1.00  0.00    -0.342 N 
HETATM   18  C3  UNL     1      -6.564  40.089   3.091  1.00  0.00     0.220 C 
HETATM   19  C17 UNL     1      -4.138  40.607   3.386  1.00  0.00     0.128 C 
HETATM   20  O1  UNL     1      -7.592  39.411   3.447  1.00  0.00    -0.273 OA
HETATM   21  C16 UNL     1      -3.170  40.851   4.485  1.00  0.00     0.150 C 
BRANCH  18  22
HETATM   22  C2  UNL     1      -6.771  41.057   2.003  1.00  0.00     0.098 C 
HETATM   23  C1  UNL     1      -8.088  41.818   2.172  1.00  0.00     0.014 C 
ENDBRANCH  18  22
BRANCH  19  24
HETATM   24  C18 UNL     1      -3.381  39.969   2.240  1.00  0.00     0.191 C 
BRANCH  24  25
HETATM   25  O3  UNL     1      -3.634  40.617   1.033  1.00  0.00    -0.399 OA
ATOM     26  H3  UNL     1      -4.529  40.482   0.744  1.00  0.00     0.209 HD
ENDBRANCH  24  25
ENDBRANCH  19  24
ENDBRANCH   1  14
BRANCH  11  27
HETATM   27  C13 UNL     1      -2.603  45.300  10.293  1.00  0.00     0.154 C 
BRANCH  27  28
HETATM   28  C14 UNL     1      -1.246  45.878   9.984  1.00  0.00     0.184 C 
BRANCH  28  29
HETATM   29  O2  UNL     1      -1.369  46.886   9.002  1.00  0.00    -0.399 OA
ATOM     30  H2  UNL     1      -2.069  47.481   9.240  1.00  0.00     0.209 HD
ENDBRANCH  28  29
ENDBRANCH  27  28
ENDBRANCH  11  27
TORSDOF 7
ENDMDL
MODEL 3
REMARK VINA RESULT: -6.299486784      1.858      1.901
REMARK  7 active torsions:
REMARK  status: ('A' for Active; 'I' for Inactive)
REMARK    1  A    between atoms: C2_2  and  C3_3 
REMARK       I    between atoms: C3_3  and  N1_5 
REMARK    2  A    between atoms: N2_8  and  C6_9 
REMARK    3  A    between atoms: N3_19  and  C13_20 
REMARK    4  A    between atoms: C13_20  and  C14_21 
REMARK    5  A    between atoms: C14_21  and  O2_22 
REMARK    6  A    between atoms: C17_27  and  C18_28 
REMARK    7  A    between atoms: C18_28  and  O3_29 
ROOT
HETATM    1  C6  UNL     1      -2.283  42.300   8.119  1.00  0.00     0.095 A 
HETATM    2  C7  UNL     1      -0.970  41.976   7.762  1.00  0.00     0.185 A 
HETATM    3  F1  UNL     1      -0.655  41.379   6.597  1.00  0.00    -0.200 F 
HETATM    4  C8  UNL     1       0.026  42.287   8.650  1.00  0.00     0.184 A 
HETATM    5  F2  UNL     1       1.294  41.970   8.308  1.00  0.00    -0.200 F 
HETATM    6  C9  UNL     1      -0.223  42.909   9.880  1.00  0.00     0.090 A 
HETATM    7  C10 UNL     1      -1.551  43.216  10.196  1.00  0.00     0.037 A 
HETATM    8  C11 UNL     1      -1.585  43.814  11.435  1.00  0.00     0.041 A 
HETATM    9 BR1  UNL     1      -3.141  44.425  12.331  1.00  0.00    -0.049 Br
HETATM   10  C12 UNL     1      -0.286  43.863  11.852  1.00  0.00     0.111 A 
HETATM   11  N3  UNL     1       0.535  43.316  10.910  1.00  0.00    -0.350 N 
HETATM   12  C15 UNL     1      -2.563  42.907   9.313  1.00  0.00     0.077 A 
HETATM   13 CL1  UNL     1      -4.205  43.306   9.743  1.00  0.00    -0.081 Cl
ENDROOT
BRANCH   1  14
HETATM   14  N2  UNL     1      -3.323  41.988   7.217  1.00  0.00    -0.373 N 
HETATM   15  C5  UNL     1      -3.983  43.063   6.557  1.00  0.00     0.143 C 
HETATM   16  C4  UNL     1      -4.682  42.695   5.273  1.00  0.00     0.146 C 
HETATM   17  N1  UNL     1      -4.100  41.462   4.719  1.00  0.00    -0.342 N 
HETATM   18  C3  UNL     1      -3.719  41.453   3.353  1.00  0.00     0.220 C 
HETATM   19  C17 UNL     1      -3.938  40.333   5.576  1.00  0.00     0.128 C 
HETATM   20  O1  UNL     1      -3.891  42.496   2.629  1.00  0.00    -0.273 OA
HETATM   21  C16 UNL     1      -3.692  40.631   7.010  1.00  0.00     0.150 C 
BRANCH  18  22
HETATM   22  C2  UNL     1      -3.117  40.291   2.682  1.00  0.00     0.098 C 
HETATM   23  C1  UNL     1      -3.913  39.885   1.440  1.00  0.00     0.014 C 
ENDBRANCH  18  22
BRANCH  19  24
HETATM   24  C18 UNL     1      -5.102  39.367   5.501  1.00  0.00     0.191 C 
BRANCH  24  25
HETATM   25  O3  UNL     1      -5.876  39.584   4.362  1.00  0.00    -0.399 OA
ATOM     26  H3  UNL     1      -5.383  39.415   3.567  1.00  0.00     0.209 HD
ENDBRANCH  24  25
ENDBRANCH  19  24
ENDBRANCH   1  14
BRANCH  11  27
HETATM   27  C13 UNL     1       1.965  43.197  10.995  1.00  0.00     0.154 C 
BRANCH  27  28
HETATM   28  C14 UNL     1       2.397  41.872  11.567  1.00  0.00     0.184 C 
BRANCH  28  29
HETATM   29  O2  UNL     1       3.268  41.223  10.663  1.00  0.00    -0.399 OA
ATOM     30  H2  UNL     1       2.844  41.134   9.818  1.00  0.00     0.209 HD
ENDBRANCH  28  29
ENDBRANCH  27  28
ENDBRANCH  11  27
TORSDOF 7
ENDMDL
MODEL 4
REMARK VINA RESULT: -6.199949509      5.444      7.729
REMARK  7 active torsions:
REMARK  status: ('A' for Active; 'I' for Inactive)
REMARK    1  A    between atoms: C2_2  and  C3_3 
REMARK       I    between atoms: C3_3  and  N1_5 
REMARK    2  A    between atoms: N2_8  and  C6_9 
REMARK    3  A    between atoms: N3_19  and  C13_20 
REMARK    4  A    between atoms: C13_20  and  C14_21 
REMARK    5  A    between atoms: C14_21  and  O2_22 
REMARK    6  A    between atoms: C17_27  and  C18_28 
REMARK    7  A    between atoms: C18_28  and  O3_29 
ROOT
HETATM    1  C6  UNL     1      -5.364  40.995  11.474  1.00  0.00     0.095 A 
HETATM    2  C7  UNL     1      -6.132  39.956  12.009  1.00  0.00     0.185 A 
HETATM    3  F1  UNL     1      -5.718  38.676  12.027  1.00  0.00    -0.200 F 
HETATM    4  C8  UNL     1      -7.356  40.276  12.534  1.00  0.00     0.184 A 
HETATM    5  F2  UNL     1      -8.101  39.273  13.048  1.00  0.00    -0.200 F 
HETATM    6  C9  UNL     1      -7.854  41.585  12.553  1.00  0.00     0.090 A 
HETATM    7  C10 UNL     1      -7.052  42.593  12.007  1.00  0.00     0.037 A 
HETATM    8  C11 UNL     1      -7.714  43.795  12.118  1.00  0.00     0.041 A 
HETATM    9 BR1  UNL     1      -7.065  45.478  11.531  1.00  0.00    -0.049 Br
HETATM   10  C12 UNL     1      -8.901  43.502  12.726  1.00  0.00     0.111 A 
HETATM   11  N3  UNL     1      -8.983  42.167  12.988  1.00  0.00    -0.350 N 
HETATM   12  C15 UNL     1      -5.819  42.286  11.475  1.00  0.00     0.077 A 
HETATM   13 CL1  UNL     1      -4.849  43.570  10.804  1.00  0.00    -0.081 Cl
ENDROOT
BRANCH   1  14
HETATM   14  N2  UNL     1      -4.099  40.686  10.928  1.00  0.00    -0.373 N 
HETATM   15  C5  UNL     1      -4.056  39.992   9.686  1.00  0.00     0.143 C 
HETATM   16  C4  UNL     1      -2.773  40.144   8.910  1.00  0.00     0.146 C 
HETATM   17  N1  UNL     1      -2.072  41.368   9.332  1.00  0.00    -0.342 N 
HETATM   18  C3  UNL     1      -1.624  42.265   8.329  1.00  0.00     0.220 C 
HETATM   19  C17 UNL     1      -1.879  41.603  10.726  1.00  0.00     0.128 C 
HETATM   20  O1  UNL     1      -1.822  42.000   7.091  1.00  0.00    -0.273 OA
HETATM   21  C16 UNL     1      -2.920  41.055  11.631  1.00  0.00     0.150 C 
BRANCH  18  22
HETATM   22  C2  UNL     1      -0.922  43.525   8.618  1.00  0.00     0.098 C 
HETATM   23  C1  UNL     1      -1.849  44.733   8.461  1.00  0.00     0.014 C 
ENDBRANCH  18  22
BRANCH  19  24
HETATM   24  C18 UNL     1      -0.534  41.116  11.222  1.00  0.00     0.191 C 
BRANCH  24  25
HETATM   25  O3  UNL     1      -0.649  39.914  11.919  1.00  0.00    -0.399 OA
ATOM     26  H3  UNL     1      -1.557  39.649  12.011  1.00  0.00     0.209 HD
ENDBRANCH  24  25
ENDBRANCH  19  24
ENDBRANCH   1  14
BRANCH  11  27
HETATM   27  C13 UNL     1     -10.079  41.492  13.626  1.00  0.00     0.154 C 
BRANCH  27  28
HETATM   28  C14 UNL     1     -11.357  41.601  12.835  1.00  0.00     0.184 C 
BRANCH  28  29
HETATM   29  O2  UNL     1     -11.175  41.031  11.555  1.00  0.00    -0.399 OA
ATOM     30  H2  UNL     1     -11.280  41.700  10.888  1.00  0.00     0.209 HD
ENDBRANCH  28  29
ENDBRANCH  27  28
ENDBRANCH  11  27
TORSDOF 7
ENDMDL
MODEL 5
REMARK VINA RESULT: -6.154886709      3.907      8.143
REMARK  7 active torsions:
REMARK  status: ('A' for Active; 'I' for Inactive)
REMARK    1  A    between atoms: C2_2  and  C3_3 
REMARK       I    between atoms: C3_3  and  N1_5 
REMARK    2  A    between atoms: N2_8  and  C6_9 
REMARK    3  A    between atoms: N3_19  and  C13_20 
REMARK    4  A    between atoms: C13_20  and  C14_21 
REMARK    5  A    between atoms: C14_21  and  O2_22 
REMARK    6  A    between atoms: C17_27  and  C18_28 
REMARK    7  A    between atoms: C18_28  and  O3_29 
ROOT
HETATM    1  C6  UNL     1      -3.291  41.126  11.007  1.00  0.00     0.095 A 
HETATM    2  C7  UNL     1      -3.690  40.228  10.013  1.00  0.00     0.185 A 
HETATM    3  F1  UNL     1      -4.066  38.963  10.278  1.00  0.00    -0.200 F 
HETATM    4  C8  UNL     1      -3.691  40.673   8.717  1.00  0.00     0.184 A 
HETATM    5  F2  UNL     1      -4.073  39.806   7.755  1.00  0.00    -0.200 F 
HETATM    6  C9  UNL     1      -3.314  41.975   8.363  1.00  0.00     0.090 A 
HETATM    7  C10 UNL     1      -2.922  42.840   9.390  1.00  0.00     0.037 A 
HETATM    8  C11 UNL     1      -2.591  44.058   8.842  1.00  0.00     0.041 A 
HETATM    9 BR1  UNL     1      -1.993  45.582   9.801  1.00  0.00    -0.049 Br
HETATM   10  C12 UNL     1      -2.785  43.918   7.498  1.00  0.00     0.111 A 
HETATM   11  N3  UNL     1      -3.223  42.659   7.211  1.00  0.00    -0.350 N 
HETATM   12  C15 UNL     1      -2.915  42.405  10.698  1.00  0.00     0.077 A 
HETATM   13 CL1  UNL     1      -2.420  43.513  11.950  1.00  0.00    -0.081 Cl
ENDROOT
BRANCH   1  14
HETATM   14  N2  UNL     1      -3.282  40.686  12.349  1.00  0.00    -0.373 N 
HETATM   15  C5  UNL     1      -4.414  40.985  13.159  1.00  0.00     0.143 C 
HETATM   16  C4  UNL     1      -4.600  40.089  14.357  1.00  0.00     0.146 C 
HETATM   17  N1  UNL     1      -3.905  38.810  14.141  1.00  0.00    -0.342 N 
HETATM   18  C3  UNL     1      -4.620  37.608  14.376  1.00  0.00     0.220 C 
HETATM   19  C17 UNL     1      -2.548  38.831  13.701  1.00  0.00     0.128 C 
HETATM   20  O1  UNL     1      -5.837  37.649  14.774  1.00  0.00    -0.273 OA
HETATM   21  C16 UNL     1      -2.154  39.985  12.853  1.00  0.00     0.150 C 
BRANCH  18  22
HETATM   22  C2  UNL     1      -4.045  36.267  14.187  1.00  0.00     0.098 C 
HETATM   23  C1  UNL     1      -4.073  35.456  15.485  1.00  0.00     0.014 C 
ENDBRANCH  18  22
BRANCH  19  24
HETATM   24  C18 UNL     1      -1.558  38.742  14.844  1.00  0.00     0.191 C 
BRANCH  24  25
HETATM   25  O3  UNL     1      -0.851  37.541  14.818  1.00  0.00    -0.399 OA
ATOM     26  H3  UNL     1      -0.754  37.173  15.689  1.00  0.00     0.209 HD
ENDBRANCH  24  25
ENDBRANCH  19  24
ENDBRANCH   1  14
BRANCH  11  27
HETATM   27  C13 UNL     1      -3.540  42.146   5.907  1.00  0.00     0.154 C 
BRANCH  27  28
HETATM   28  C14 UNL     1      -4.284  43.149   5.063  1.00  0.00     0.184 C 
BRANCH  28  29
HETATM   29  O2  UNL     1      -5.043  42.475   4.080  1.00  0.00    -0.399 OA
ATOM     30  H2  UNL     1      -5.931  42.811   4.076  1.00  0.00     0.209 HD
ENDBRANCH  28  29
ENDBRANCH  27  28
ENDBRANCH  11  27
TORSDOF 7
ENDMDL
