MODEL 1
REMARK VINA RESULT: -8.733009518      0.000      0.000
REMARK  7 active torsions:
REMARK  status: ('A' for Active; 'I' for Inactive)
REMARK    1  A    between atoms: C2_2  and  C3_3 
REMARK    2  A    between atoms: C3_3  and  C4_4 
REMARK       I    between atoms: C4_4  and  N1_6 
REMARK    3  A    between atoms: N1_6  and  C5_8 
REMARK    4  A    between atoms: C7_12  and  N3_13 
REMARK    5  A    between atoms: N3_13  and  C8_15 
REMARK    6  A    between atoms: N7_28  and  C16_29 
REMARK    7  A    between atoms: C16_29  and  C17_30 
ROOT
HETATM    1  C5  UNL     1      -3.102  42.338   6.821  1.00  0.00     0.689 A 
HETATM    2  N2  UNL     1      -2.727  43.603   7.148  1.00  0.00    -0.184 N 
ATOM      3  H2  UNL     1      -2.407  44.322   6.499  1.00  0.00     0.184 HD
HETATM    4  C6  UNL     1      -2.850  43.734   8.462  1.00  0.00     0.137 A 
HETATM    5  C7  UNL     1      -2.593  44.839   9.300  1.00  0.00     0.134 A 
HETATM    6  N5  UNL     1      -2.830  44.620  10.597  1.00  0.00    -0.337 N 
ATOM      7  H5  UNL     1      -2.664  45.380  11.258  1.00  0.00     0.168 HD
HETATM    8  C14 UNL     1      -3.280  43.440  11.072  1.00  0.00     0.183 A 
HETATM    9  N6  UNL     1      -3.521  42.392  10.254  1.00  0.00    -0.336 N 
ATOM     10  H6  UNL     1      -3.861  41.506  10.629  1.00  0.00     0.168 HD
HETATM   11  C15 UNL     1      -3.306  42.540   8.948  1.00  0.00     0.156 A 
HETATM   12  N7  UNL     1      -3.466  41.657   7.920  1.00  0.00    -0.160 N 
ENDROOT
BRANCH   1  13
HETATM   13  N1  UNL     1      -3.117  41.831   5.625  1.00  0.00    -0.159 N 
HETATM   14  C4  UNL     1      -4.245  41.937   4.771  1.00  0.00     0.244 C 
HETATM   15  O1  UNL     1      -4.737  43.074   4.582  1.00  0.00    -0.272 OA
ATOM     16  H1  UNL     1      -2.289  41.339   5.289  1.00  0.00     0.187 HD
BRANCH  14  17
HETATM   17  C3  UNL     1      -4.829  40.720   4.112  1.00  0.00     0.047 C 
HETATM   18  C18 UNL     1      -6.041  41.058   3.309  1.00  0.00     0.025 C 
HETATM   19  C19 UNL     1      -5.664  40.898   1.850  1.00  0.00     0.080 C 
HETATM   20  C20 UNL     1      -4.173  41.001   1.844  1.00  0.00     0.244 C 
HETATM   21  F3  UNL     1      -3.570  40.457   0.751  1.00  0.00    -0.206 F 
HETATM   22  F4  UNL     1      -3.819  42.329   2.054  1.00  0.00    -0.206 F 
HETATM   23  C21 UNL     1      -3.790  40.239   3.111  1.00  0.00     0.098 C 
BRANCH  17  24
HETATM   24  C2  UNL     1      -5.083  39.702   5.178  1.00  0.00     0.015 C 
HETATM   25  C1  UNL     1      -6.121  38.694   4.809  1.00  0.00     0.006 C 
ENDBRANCH  17  24
ENDBRANCH  14  17
ENDBRANCH   1  13
BRANCH  12  26
HETATM   26  C16 UNL     1      -3.932  40.291   8.046  1.00  0.00     0.220 C 
BRANCH  26  27
HETATM   27  C17 UNL     1      -2.777  39.328   8.256  1.00  0.00     0.371 C 
HETATM   28  F1  UNL     1      -2.587  39.121   9.585  1.00  0.00    -0.213 F 
HETATM   29  F2  UNL     1      -2.976  38.154   7.548  1.00  0.00    -0.213 F 
ENDBRANCH  26  27
ENDBRANCH  12  26
BRANCH   5  30
HETATM   30  N3  UNL     1      -2.174  45.924   8.824  1.00  0.00    -0.370 N 
ATOM     31  H3  UNL     1      -2.922  46.614   8.764  1.00  0.00     0.161 HD
BRANCH  30  32
HETATM   32  C8  UNL     1      -0.978  46.437   8.360  1.00  0.00     0.086 C 
HETATM   33  C9  UNL     1       0.296  45.832   8.964  1.00  0.00     0.055 C 
HETATM   34  C10 UNL     1       1.370  46.140   7.934  1.00  0.00     0.274 C 
HETATM   35  N4  UNL     1       1.529  47.556   7.721  1.00  0.00     0.084 N 
HETATM   36  C11 UNL     1       2.335  47.720   6.519  1.00  0.00     0.309 C 
HETATM   37  C12 UNL     1       0.342  48.314   7.564  1.00  0.00     0.274 C 
HETATM   38  C13 UNL     1      -0.780  47.948   8.507  1.00  0.00     0.055 C 
ENDBRANCH  30  32
ENDBRANCH   5  30
TORSDOF 7
ENDMDL
MODEL 2
REMARK VINA RESULT: -8.558240170      0.605      1.039
REMARK  7 active torsions:
REMARK  status: ('A' for Active; 'I' for Inactive)
REMARK    1  A    between atoms: C2_2  and  C3_3 
REMARK    2  A    between atoms: C3_3  and  C4_4 
REMARK       I    between atoms: C4_4  and  N1_6 
REMARK    3  A    between atoms: N1_6  and  C5_8 
REMARK    4  A    between atoms: C7_12  and  N3_13 
REMARK    5  A    between atoms: N3_13  and  C8_15 
REMARK    6  A    between atoms: N7_28  and  C16_29 
REMARK    7  A    between atoms: C16_29  and  C17_30 
ROOT
HETATM    1  C5  UNL     1      -3.116  42.288   6.784  1.00  0.00     0.689 A 
HETATM    2  N2  UNL     1      -2.710  43.530   7.161  1.00  0.00    -0.184 N 
ATOM      3  H2  UNL     1      -2.378  44.268   6.540  1.00  0.00     0.184 HD
HETATM    4  C6  UNL     1      -2.825  43.609   8.480  1.00  0.00     0.137 A 
HETATM    5  C7  UNL     1      -2.537  44.671   9.362  1.00  0.00     0.134 A 
HETATM    6  N5  UNL     1      -2.773  44.404  10.650  1.00  0.00    -0.337 N 
ATOM      7  H5  UNL     1      -2.586  45.131  11.341  1.00  0.00     0.168 HD
HETATM    8  C14 UNL     1      -3.248  43.215  11.078  1.00  0.00     0.183 A 
HETATM    9  N6  UNL     1      -3.517  42.208  10.219  1.00  0.00    -0.336 N 
ATOM     10  H6  UNL     1      -3.876  41.315  10.558  1.00  0.00     0.168 HD
HETATM   11  C15 UNL     1      -3.305  42.407   8.919  1.00  0.00     0.156 A 
HETATM   12  N7  UNL     1      -3.491  41.571   7.856  1.00  0.00    -0.160 N 
ENDROOT
BRANCH   1  13
HETATM   13  N1  UNL     1      -3.149  41.832   5.568  1.00  0.00    -0.159 N 
HETATM   14  C4  UNL     1      -4.309  41.921   4.756  1.00  0.00     0.244 C 
HETATM   15  O1  UNL     1      -4.858  43.040   4.634  1.00  0.00    -0.272 OA
ATOM     16  H1  UNL     1      -2.311  41.395   5.184  1.00  0.00     0.187 HD
BRANCH  14  17
HETATM   17  C3  UNL     1      -4.859  40.707   4.064  1.00  0.00     0.047 C 
HETATM   18  C18 UNL     1      -6.042  41.044   3.219  1.00  0.00     0.025 C 
HETATM   19  C19 UNL     1      -5.609  40.902   1.774  1.00  0.00     0.080 C 
HETATM   20  C20 UNL     1      -4.120  41.016   1.825  1.00  0.00     0.244 C 
HETATM   21  F3  UNL     1      -3.472  40.487   0.750  1.00  0.00    -0.206 F 
HETATM   22  F4  UNL     1      -3.784  42.344   2.062  1.00  0.00    -0.206 F 
HETATM   23  C21 UNL     1      -3.779  40.243   3.098  1.00  0.00     0.098 C 
BRANCH  17  24
HETATM   24  C2  UNL     1      -5.145  39.676   5.109  1.00  0.00     0.015 C 
HETATM   25  C1  UNL     1      -6.203  38.699   4.714  1.00  0.00     0.006 C 
ENDBRANCH  17  24
ENDBRANCH  14  17
ENDBRANCH   1  13
BRANCH  12  26
HETATM   26  C16 UNL     1      -3.987  40.212   7.927  1.00  0.00     0.220 C 
BRANCH  26  27
HETATM   27  C17 UNL     1      -2.859  39.220   8.149  1.00  0.00     0.371 C 
HETATM   28  F1  UNL     1      -2.721  38.970   9.478  1.00  0.00    -0.213 F 
HETATM   29  F2  UNL     1      -3.054  38.072   7.400  1.00  0.00    -0.213 F 
ENDBRANCH  26  27
ENDBRANCH  12  26
BRANCH   5  30
HETATM   30  N3  UNL     1      -2.096  45.765   8.929  1.00  0.00    -0.370 N 
ATOM     31  H3  UNL     1      -2.836  46.316   8.494  1.00  0.00     0.161 HD
BRANCH  30  32
HETATM   32  C8  UNL     1      -0.884  46.426   8.882  1.00  0.00     0.086 C 
HETATM   33  C9  UNL     1      -0.779  47.571   7.866  1.00  0.00     0.055 C 
HETATM   34  C10 UNL     1       0.360  48.426   8.397  1.00  0.00     0.274 C 
HETATM   35  N4  UNL     1       1.600  47.695   8.471  1.00  0.00     0.084 N 
HETATM   36  C11 UNL     1       2.520  48.493   9.269  1.00  0.00     0.309 C 
HETATM   37  C12 UNL     1       1.540  46.395   9.033  1.00  0.00     0.274 C 
HETATM   38  C13 UNL     1       0.353  45.567   8.604  1.00  0.00     0.055 C 
ENDBRANCH  30  32
ENDBRANCH   5  30
TORSDOF 7
ENDMDL
MODEL 3
REMARK VINA RESULT: -8.198591119      3.256      6.168
REMARK  7 active torsions:
REMARK  status: ('A' for Active; 'I' for Inactive)
REMARK    1  A    between atoms: C2_2  and  C3_3 
REMARK    2  A    between atoms: C3_3  and  C4_4 
REMARK       I    between atoms: C4_4  and  N1_6 
REMARK    3  A    between atoms: N1_6  and  C5_8 
REMARK    4  A    between atoms: C7_12  and  N3_13 
REMARK    5  A    between atoms: N3_13  and  C8_15 
REMARK    6  A    between atoms: N7_28  and  C16_29 
REMARK    7  A    between atoms: C16_29  and  C17_30 
ROOT
HETATM    1  C5  UNL     1      -3.393  41.685   7.422  1.00  0.00     0.689 A 
HETATM    2  N2  UNL     1      -3.649  40.783   8.406  1.00  0.00    -0.184 N 
ATOM      3  H2  UNL     1      -3.780  39.779   8.282  1.00  0.00     0.184 HD
HETATM    4  C6  UNL     1      -3.697  41.442   9.556  1.00  0.00     0.137 A 
HETATM    5  C7  UNL     1      -3.930  40.979  10.867  1.00  0.00     0.134 A 
HETATM    6  N5  UNL     1      -3.908  41.931  11.806  1.00  0.00    -0.337 N 
ATOM      7  H5  UNL     1      -4.070  41.662  12.777  1.00  0.00     0.168 HD
HETATM    8  C14 UNL     1      -3.682  43.232  11.526  1.00  0.00     0.183 A 
HETATM    9  N6  UNL     1      -3.462  43.658  10.263  1.00  0.00    -0.336 N 
ATOM     10  H6  UNL     1      -3.293  44.645  10.068  1.00  0.00     0.168 HD
HETATM   11  C15 UNL     1      -3.470  42.761   9.278  1.00  0.00     0.156 A 
HETATM   12  N7  UNL     1      -3.277  42.921   7.936  1.00  0.00    -0.160 N 
ENDROOT
BRANCH   1  13
HETATM   13  N1  UNL     1      -3.273  41.421   6.156  1.00  0.00    -0.159 N 
HETATM   14  C4  UNL     1      -4.336  41.617   5.237  1.00  0.00     0.244 C 
HETATM   15  O1  UNL     1      -4.905  42.732   5.221  1.00  0.00    -0.272 OA
ATOM     16  H1  UNL     1      -2.383  41.060   5.811  1.00  0.00     0.187 HD
BRANCH  14  17
HETATM   17  C3  UNL     1      -4.765  40.515   4.310  1.00  0.00     0.047 C 
HETATM   18  C18 UNL     1      -5.824  40.973   3.364  1.00  0.00     0.025 C 
HETATM   19  C19 UNL     1      -5.193  41.036   1.989  1.00  0.00     0.080 C 
HETATM   20  C20 UNL     1      -3.728  41.136   2.263  1.00  0.00     0.244 C 
HETATM   21  F3  UNL     1      -2.928  40.764   1.225  1.00  0.00    -0.206 F 
HETATM   22  F4  UNL     1      -3.450  42.416   2.729  1.00  0.00    -0.206 F 
HETATM   23  C21 UNL     1      -3.554  40.190   3.449  1.00  0.00     0.098 C 
BRANCH  17  24
HETATM   24  C2  UNL     1      -5.176  39.346   5.149  1.00  0.00     0.015 C 
HETATM   25  C1  UNL     1      -6.383  38.634   4.634  1.00  0.00     0.006 C 
ENDBRANCH  17  24
ENDBRANCH  14  17
ENDBRANCH   1  13
BRANCH  12  26
HETATM   26  C16 UNL     1      -3.010  44.177   7.266  1.00  0.00     0.220 C 
BRANCH  26  27
HETATM   27  C17 UNL     1      -2.075  45.052   8.081  1.00  0.00     0.371 C 
HETATM   28  F1  UNL     1      -0.818  44.535   8.054  1.00  0.00    -0.213 F 
HETATM   29  F2  UNL     1      -2.128  46.368   7.651  1.00  0.00    -0.213 F 
ENDBRANCH  26  27
ENDBRANCH  12  26
BRANCH   5  30
HETATM   30  N3  UNL     1      -4.137  39.760  11.092  1.00  0.00    -0.370 N 
ATOM     31  H3  UNL     1      -4.595  39.310  10.300  1.00  0.00     0.161 HD
BRANCH  30  32
HETATM   32  C8  UNL     1      -3.913  38.863  12.119  1.00  0.00     0.086 C 
HETATM   33  C9  UNL     1      -5.163  38.262  12.774  1.00  0.00     0.055 C 
HETATM   34  C10 UNL     1      -4.658  36.979  13.414  1.00  0.00     0.274 C 
HETATM   35  N4  UNL     1      -3.636  37.228  14.399  1.00  0.00     0.084 N 
HETATM   36  C11 UNL     1      -3.019  35.945  14.707  1.00  0.00     0.309 C 
HETATM   37  C12 UNL     1      -2.611  38.137  14.037  1.00  0.00     0.274 C 
HETATM   38  C13 UNL     1      -3.079  39.369  13.300  1.00  0.00     0.055 C 
ENDBRANCH  30  32
ENDBRANCH   5  30
TORSDOF 7
ENDMDL
MODEL 4
REMARK VINA RESULT: -8.088007302      3.280      6.121
REMARK  7 active torsions:
REMARK  status: ('A' for Active; 'I' for Inactive)
REMARK    1  A    between atoms: C2_2  and  C3_3 
REMARK    2  A    between atoms: C3_3  and  C4_4 
REMARK       I    between atoms: C4_4  and  N1_6 
REMARK    3  A    between atoms: N1_6  and  C5_8 
REMARK    4  A    between atoms: C7_12  and  N3_13 
REMARK    5  A    between atoms: N3_13  and  C8_15 
REMARK    6  A    between atoms: N7_28  and  C16_29 
REMARK    7  A    between atoms: C16_29  and  C17_30 
ROOT
HETATM    1  C5  UNL     1      -2.968  41.041   7.511  1.00  0.00     0.689 A 
HETATM    2  N2  UNL     1      -3.959  40.677   8.368  1.00  0.00    -0.184 N 
ATOM      3  H2  UNL     1      -4.865  40.288   8.109  1.00  0.00     0.184 HD
HETATM    4  C6  UNL     1      -3.535  40.919   9.601  1.00  0.00     0.137 A 
HETATM    5  C7  UNL     1      -4.172  40.723  10.843  1.00  0.00     0.134 A 
HETATM    6  N5  UNL     1      -3.443  41.081  11.906  1.00  0.00    -0.337 N 
ATOM      7  H5  UNL     1      -3.847  40.964  12.835  1.00  0.00     0.168 HD
HETATM    8  C14 UNL     1      -2.198  41.590  11.803  1.00  0.00     0.183 A 
HETATM    9  N6  UNL     1      -1.603  41.772  10.603  1.00  0.00    -0.336 N 
ATOM     10  H6  UNL     1      -0.660  42.158  10.543  1.00  0.00     0.168 HD
HETATM   11  C15 UNL     1      -2.273  41.436   9.502  1.00  0.00     0.156 A 
HETATM   12  N7  UNL     1      -1.910  41.515   8.189  1.00  0.00    -0.160 N 
ENDROOT
BRANCH   1  13
HETATM   13  N1  UNL     1      -3.010  40.954   6.215  1.00  0.00    -0.159 N 
HETATM   14  C4  UNL     1      -4.146  41.354   5.465  1.00  0.00     0.244 C 
HETATM   15  O1  UNL     1      -4.615  42.498   5.669  1.00  0.00    -0.272 OA
ATOM     16  H1  UNL     1      -2.197  40.586   5.720  1.00  0.00     0.187 HD
BRANCH  14  17
HETATM   17  C3  UNL     1      -4.766  40.430   4.456  1.00  0.00     0.047 C 
HETATM   18  C18 UNL     1      -5.774  41.136   3.611  1.00  0.00     0.025 C 
HETATM   19  C19 UNL     1      -5.185  41.248   2.220  1.00  0.00     0.080 C 
HETATM   20  C20 UNL     1      -3.713  41.103   2.432  1.00  0.00     0.244 C 
HETATM   21  F3  UNL     1      -3.013  40.728   1.326  1.00  0.00    -0.206 F 
HETATM   22  F4  UNL     1      -3.231  42.272   3.009  1.00  0.00    -0.206 F 
HETATM   23  C21 UNL     1      -3.647  40.023   3.510  1.00  0.00     0.098 C 
BRANCH  17  24
HETATM   24  C2  UNL     1      -5.322  39.254   5.194  1.00  0.00     0.015 C 
HETATM   25  C1  UNL     1      -6.479  38.608   4.508  1.00  0.00     0.006 C 
ENDBRANCH  17  24
ENDBRANCH  14  17
ENDBRANCH   1  13
BRANCH  12  26
HETATM   26  C16 UNL     1      -0.644  42.012   7.691  1.00  0.00     0.220 C 
BRANCH  26  27
HETATM   27  C17 UNL     1      -0.118  43.147   8.551  1.00  0.00     0.371 C 
HETATM   28  F1  UNL     1       1.241  43.154   8.523  1.00  0.00    -0.213 F 
HETATM   29  F2  UNL     1      -0.672  44.358   8.168  1.00  0.00    -0.213 F 
ENDBRANCH  26  27
ENDBRANCH  12  26
BRANCH   5  30
HETATM   30  N3  UNL     1      -5.333  40.246  10.903  1.00  0.00    -0.370 N 
ATOM     31  H3  UNL     1      -5.445  39.464  10.258  1.00  0.00     0.161 HD
BRANCH  30  32
HETATM   32  C8  UNL     1      -6.499  40.492  11.602  1.00  0.00     0.086 C 
HETATM   33  C9  UNL     1      -6.851  41.968  11.829  1.00  0.00     0.055 C 
HETATM   34  C10 UNL     1      -8.350  41.951  12.083  1.00  0.00     0.274 C 
HETATM   35  N4  UNL     1      -8.696  41.160  13.238  1.00  0.00     0.084 N 
HETATM   36  C11 UNL     1     -10.138  40.959  13.200  1.00  0.00     0.309 C 
HETATM   37  C12 UNL     1      -8.074  39.892  13.350  1.00  0.00     0.274 C 
HETATM   38  C13 UNL     1      -6.607  39.864  12.994  1.00  0.00     0.055 C 
ENDBRANCH  30  32
ENDBRANCH   5  30
TORSDOF 7
ENDMDL
MODEL 5
REMARK VINA RESULT: -7.992998021      4.488      8.517
REMARK  7 active torsions:
REMARK  status: ('A' for Active; 'I' for Inactive)
REMARK    1  A    between atoms: C2_2  and  C3_3 
REMARK    2  A    between atoms: C3_3  and  C4_4 
REMARK       I    between atoms: C4_4  and  N1_6 
REMARK    3  A    between atoms: N1_6  and  C5_8 
REMARK    4  A    between atoms: C7_12  and  N3_13 
REMARK    5  A    between atoms: N3_13  and  C8_15 
REMARK    6  A    between atoms: N7_28  and  C16_29 
REMARK    7  A    between atoms: C16_29  and  C17_30 
ROOT
HETATM    1  C5  UNL     1      -3.416  39.725  10.617  1.00  0.00     0.689 A 
HETATM    2  N2  UNL     1      -3.856  39.775   9.332  1.00  0.00    -0.184 N 
ATOM      3  H2  UNL     1      -4.688  39.315   8.964  1.00  0.00     0.184 HD
HETATM    4  C6  UNL     1      -3.010  40.530   8.644  1.00  0.00     0.137 A 
HETATM    5  C7  UNL     1      -3.009  40.898   7.283  1.00  0.00     0.134 A 
HETATM    6  N5  UNL     1      -1.990  41.682   6.919  1.00  0.00    -0.337 N 
ATOM      7  H5  UNL     1      -1.931  41.984   5.946  1.00  0.00     0.168 HD
HETATM    8  C14 UNL     1      -1.036  42.093   7.780  1.00  0.00     0.183 A 
HETATM    9  N6  UNL     1      -1.052  41.731   9.082  1.00  0.00    -0.336 N 
ATOM     10  H6  UNL     1      -0.323  42.049   9.721  1.00  0.00     0.168 HD
HETATM   11  C15 UNL     1      -2.041  40.948   9.513  1.00  0.00     0.156 A 
HETATM   12  N7  UNL     1      -2.290  40.445  10.757  1.00  0.00    -0.160 N 
ENDROOT
BRANCH   1  13
HETATM   13  N1  UNL     1      -3.981  39.082  11.593  1.00  0.00    -0.159 N 
HETATM   14  C4  UNL     1      -5.202  39.508  12.176  1.00  0.00     0.244 C 
HETATM   15  O1  UNL     1      -6.170  39.738  11.415  1.00  0.00    -0.272 OA
ATOM     16  H1  UNL     1      -3.531  38.239  11.954  1.00  0.00     0.187 HD
BRANCH  14  17
HETATM   17  C3  UNL     1      -5.327  39.678  13.664  1.00  0.00     0.047 C 
HETATM   18  C18 UNL     1      -6.589  39.074  14.182  1.00  0.00     0.025 C 
HETATM   19  C19 UNL     1      -6.198  37.849  14.983  1.00  0.00     0.080 C 
HETATM   20  C20 UNL     1      -4.840  37.495  14.471  1.00  0.00     0.244 C 
HETATM   21  F3  UNL     1      -4.096  36.725  15.313  1.00  0.00    -0.206 F 
HETATM   22  F4  UNL     1      -4.975  36.938  13.204  1.00  0.00    -0.206 F 
HETATM   23  C21 UNL     1      -4.197  38.868  14.280  1.00  0.00     0.098 C 
BRANCH  17  24
HETATM   24  C2  UNL     1      -5.192  41.136  13.970  1.00  0.00     0.015 C 
HETATM   25  C1  UNL     1      -4.871  41.421  15.400  1.00  0.00     0.006 C 
ENDBRANCH  17  24
ENDBRANCH  14  17
ENDBRANCH   1  13
BRANCH  12  26
HETATM   26  C16 UNL     1      -1.481  40.671  11.937  1.00  0.00     0.220 C 
BRANCH  26  27
HETATM   27  C17 UNL     1      -1.826  41.993  12.600  1.00  0.00     0.371 C 
HETATM   28  F1  UNL     1      -2.984  42.481  12.082  1.00  0.00    -0.213 F 
HETATM   29  F2  UNL     1      -1.864  41.861  13.979  1.00  0.00    -0.213 F 
ENDBRANCH  26  27
ENDBRANCH  12  26
BRANCH   5  30
HETATM   30  N3  UNL     1      -3.914  40.497   6.508  1.00  0.00    -0.370 N 
ATOM     31  H3  UNL     1      -4.612  39.946   7.008  1.00  0.00     0.161 HD
BRANCH  30  32
HETATM   32  C8  UNL     1      -4.222  40.599   5.165  1.00  0.00     0.086 C 
HETATM   33  C9  UNL     1      -4.639  41.991   4.672  1.00  0.00     0.055 C 
HETATM   34  C10 UNL     1      -4.370  41.944   3.177  1.00  0.00     0.274 C 
HETATM   35  N4  UNL     1      -5.139  40.918   2.518  1.00  0.00     0.084 N 
HETATM   36  C11 UNL     1      -4.581  40.756   1.183  1.00  0.00     0.309 C 
HETATM   37  C12 UNL     1      -5.169  39.646   3.142  1.00  0.00     0.274 C 
HETATM   38  C13 UNL     1      -5.324  39.673   4.644  1.00  0.00     0.055 C 
ENDBRANCH  30  32
ENDBRANCH   5  30
TORSDOF 7
ENDMDL
