MODEL 1
REMARK VINA RESULT: -5.224352990      0.000      0.000
REMARK  2 active torsions:
REMARK  status: ('A' for Active; 'I' for Inactive)
REMARK    1  A    between atoms: C2_2  and  C3_3 
REMARK    2  A    between atoms: C3_3  and  N1_4 
ROOT
HETATM    1  C1  UNL     1       1.173  40.788 -13.275  1.00  0.00     0.023 C 
HETATM    2  C2  UNL     1       1.097  40.197 -11.875  1.00  0.00     0.051 A 
HETATM    3  C4  UNL     1       0.568  41.089 -10.838  1.00  0.00     0.096 A 
HETATM    4  C5  UNL     1       2.056  40.779 -10.827  1.00  0.00     0.253 A 
HETATM    5  F1  UNL     1       2.938  41.710 -11.318  1.00  0.00    -0.205 F 
HETATM    6  F2  UNL     1       2.464  39.984  -9.798  1.00  0.00    -0.205 F 
ENDROOT
BRANCH   2   7
HETATM    7  C3  UNL     1       1.001  38.707 -11.803  1.00  0.00     0.245 C 
BRANCH   7   8
HETATM    8  N1  UNL     1      -0.328  38.200 -12.060  1.00  0.00    -0.078 N 
ATOM      9  H13 UNL     1      -0.816  38.007 -11.185  1.00  0.00     0.274 HD
ATOM     10  H12 UNL     1      -0.928  38.936 -12.431  1.00  0.00     0.274 HD
ATOM     11  H11 UNL     1      -0.342  37.382 -12.669  1.00  0.00     0.274 HD
ENDBRANCH   7   8
ENDBRANCH   2   7
TORSDOF 2
ENDMDL
MODEL 2
REMARK VINA RESULT: -5.197187652      2.281      2.865
REMARK  2 active torsions:
REMARK  status: ('A' for Active; 'I' for Inactive)
REMARK    1  A    between atoms: C2_2  and  C3_3 
REMARK    2  A    between atoms: C3_3  and  N1_4 
ROOT
HETATM    1  C1  UNL     1       1.288  39.260 -12.016  1.00  0.00     0.023 C 
HETATM    2  C2  UNL     1       1.758  40.221 -10.935  1.00  0.00     0.051 A 
HETATM    3  C4  UNL     1       2.133  39.605  -9.658  1.00  0.00     0.096 A 
HETATM    4  C5  UNL     1       0.837  40.397  -9.719  1.00  0.00     0.253 A 
HETATM    5  F1  UNL     1      -0.356  39.723  -9.808  1.00  0.00    -0.205 F 
HETATM    6  F2  UNL     1       0.861  41.580  -9.045  1.00  0.00    -0.205 F 
ENDROOT
BRANCH   2   7
HETATM    7  C3  UNL     1       2.327  41.516 -11.419  1.00  0.00     0.245 C 
BRANCH   7   8
HETATM    8  N1  UNL     1       1.915  41.863 -12.760  1.00  0.00    -0.078 N 
ATOM      9  H13 UNL     1       1.142  41.272 -13.064  1.00  0.00     0.274 HD
ATOM     10  H12 UNL     1       1.451  42.771 -12.770  1.00  0.00     0.274 HD
ATOM     11  H11 UNL     1       2.676  41.840 -13.439  1.00  0.00     0.274 HD
ENDBRANCH   7   8
ENDBRANCH   2   7
TORSDOF 2
ENDMDL
MODEL 3
REMARK VINA RESULT: -5.078753245      1.763      2.209
REMARK  2 active torsions:
REMARK  status: ('A' for Active; 'I' for Inactive)
REMARK    1  A    between atoms: C2_2  and  C3_3 
REMARK    2  A    between atoms: C3_3  and  N1_4 
ROOT
HETATM    1  C1  UNL     1       1.043  38.782 -11.880  1.00  0.00     0.023 C 
HETATM    2  C2  UNL     1       1.419  40.010 -11.066  1.00  0.00     0.051 A 
HETATM    3  C4  UNL     1       0.576  41.192 -11.274  1.00  0.00     0.096 A 
HETATM    4  C5  UNL     1       1.985  41.208 -11.842  1.00  0.00     0.253 A 
HETATM    5  F1  UNL     1       2.169  40.979 -13.184  1.00  0.00    -0.205 F 
HETATM    6  F2  UNL     1       2.845  42.053 -11.208  1.00  0.00    -0.205 F 
ENDROOT
BRANCH   2   7
HETATM    7  C3  UNL     1       2.160  39.746  -9.795  1.00  0.00     0.245 C 
BRANCH   7   8
HETATM    8  N1  UNL     1       2.218  38.346  -9.440  1.00  0.00    -0.078 N 
ATOM      9  H13 UNL     1       3.028  37.898  -9.869  1.00  0.00     0.274 HD
ATOM     10  H12 UNL     1       2.462  38.234  -8.456  1.00  0.00     0.274 HD
ATOM     11  H11 UNL     1       1.364  37.834  -9.660  1.00  0.00     0.274 HD
ENDBRANCH   7   8
ENDBRANCH   2   7
TORSDOF 2
ENDMDL
MODEL 4
REMARK VINA RESULT: -5.022054255      2.163      2.831
REMARK  2 active torsions:
REMARK  status: ('A' for Active; 'I' for Inactive)
REMARK    1  A    between atoms: C2_2  and  C3_3 
REMARK    2  A    between atoms: C3_3  and  N1_4 
ROOT
HETATM    1  C1  UNL     1      -0.344  40.357 -11.512  1.00  0.00     0.023 C 
HETATM    2  C2  UNL     1       1.104  39.992 -11.223  1.00  0.00     0.051 A 
HETATM    3  C4  UNL     1       1.454  38.581 -11.416  1.00  0.00     0.096 A 
HETATM    4  C5  UNL     1       1.362  39.109  -9.994  1.00  0.00     0.253 A 
HETATM    5  F1  UNL     1       0.243  38.832  -9.248  1.00  0.00    -0.205 F 
HETATM    6  F2  UNL     1       2.557  39.216  -9.349  1.00  0.00    -0.205 F 
ENDROOT
BRANCH   2   7
HETATM    7  C3  UNL     1       2.093  41.107 -11.349  1.00  0.00     0.245 C 
BRANCH   7   8
HETATM    8  N1  UNL     1       1.972  41.851 -12.581  1.00  0.00    -0.078 N 
ATOM      9  H13 UNL     1       1.809  41.222 -13.368  1.00  0.00     0.274 HD
ATOM     10  H12 UNL     1       1.099  42.377 -12.600  1.00  0.00     0.274 HD
ATOM     11  H11 UNL     1       2.767  42.463 -12.768  1.00  0.00     0.274 HD
ENDBRANCH   7   8
ENDBRANCH   2   7
TORSDOF 2
ENDMDL
MODEL 5
REMARK VINA RESULT: -4.980630536      1.548      2.418
REMARK  2 active torsions:
REMARK  status: ('A' for Active; 'I' for Inactive)
REMARK    1  A    between atoms: C2_2  and  C3_3 
REMARK    2  A    between atoms: C3_3  and  N1_4 
ROOT
HETATM    1  C1  UNL     1       0.649  41.372  -9.745  1.00  0.00     0.023 C 
HETATM    2  C2  UNL     1       0.760  40.897 -11.185  1.00  0.00     0.051 A 
HETATM    3  C4  UNL     1       1.744  39.837 -11.430  1.00  0.00     0.096 A 
HETATM    4  C5  UNL     1       2.060  41.238 -11.927  1.00  0.00     0.253 A 
HETATM    5  F1  UNL     1       2.933  42.021 -11.214  1.00  0.00    -0.205 F 
HETATM    6  F2  UNL     1       2.024  41.383 -13.282  1.00  0.00    -0.205 F 
ENDROOT
BRANCH   2   7
HETATM    7  C3  UNL     1      -0.456  41.098 -12.032  1.00  0.00     0.245 C 
BRANCH   7   8
HETATM    8  N1  UNL     1      -1.544  40.207 -11.702  1.00  0.00    -0.078 N 
ATOM      9  H13 UNL     1      -2.263  40.231 -12.426  1.00  0.00     0.274 HD
ATOM     10  H12 UNL     1      -1.251  39.234 -11.785  1.00  0.00     0.274 HD
ATOM     11  H11 UNL     1      -1.952  40.383 -10.784  1.00  0.00     0.274 HD
ENDBRANCH   7   8
ENDBRANCH   2   7
TORSDOF 2
ENDMDL
