MODEL 1
REMARK VINA RESULT: -5.044896167      0.000      0.000
REMARK  2 active torsions:
REMARK  status: ('A' for Active; 'I' for Inactive)
REMARK    1  A    between atoms: C2_2  and  N1_3 
REMARK    2  A    between atoms: N1_3  and  C3_5 
ROOT
HETATM    1  C3  UNL     1       1.723  39.965 -11.004  1.00  0.00     0.013 A 
HETATM    2  C4  UNL     1       1.628  39.968  -9.707  1.00  0.00     0.076 A 
HETATM    3  C5  UNL     1       1.395  38.534  -9.643  1.00  0.00     0.268 A 
HETATM    4  F1  UNL     1       0.209  38.120  -9.042  1.00  0.00    -0.201 F 
HETATM    5  F2  UNL     1       2.536  37.910  -9.064  1.00  0.00    -0.201 F 
HETATM    6  C6  UNL     1       1.468  38.544 -11.097  1.00  0.00     0.140 A 
ENDROOT
BRANCH   1   7
HETATM    7  N1  UNL     1       1.963  40.987 -11.993  1.00  0.00    -0.393 N 
ATOM      8  H1  UNL     1       2.786  41.583 -11.902  1.00  0.00     0.159 HD
BRANCH   7   9
HETATM    9  C2  UNL     1       1.072  41.185 -13.104  1.00  0.00     0.115 C 
HETATM   10  C1  UNL     1      -0.321  41.416 -12.469  1.00  0.00     0.026 C 
ENDBRANCH   7   9
ENDBRANCH   1   7
TORSDOF 2
ENDMDL
MODEL 2
REMARK VINA RESULT: -5.027713156      0.181      1.451
REMARK  2 active torsions:
REMARK  status: ('A' for Active; 'I' for Inactive)
REMARK    1  A    between atoms: C2_2  and  N1_3 
REMARK    2  A    between atoms: N1_3  and  C3_5 
ROOT
HETATM    1  C3  UNL     1       1.723  39.914 -11.106  1.00  0.00     0.013 A 
HETATM    2  C4  UNL     1       1.471  38.637 -11.095  1.00  0.00     0.076 A 
HETATM    3  C5  UNL     1       1.492  38.566  -9.643  1.00  0.00     0.268 A 
HETATM    4  F1  UNL     1       2.414  37.691  -9.074  1.00  0.00    -0.201 F 
HETATM    5  F2  UNL     1       0.169  38.328  -9.177  1.00  0.00    -0.201 F 
HETATM    6  C6  UNL     1       1.808  39.988  -9.664  1.00  0.00     0.140 A 
ENDROOT
BRANCH   1   7
HETATM    7  N1  UNL     1       1.885  40.893 -12.151  1.00  0.00    -0.393 N 
ATOM      8  H1  UNL     1       2.729  41.466 -12.169  1.00  0.00     0.159 HD
BRANCH   7   9
HETATM    9  C2  UNL     1       0.888  41.082 -13.170  1.00  0.00     0.115 C 
HETATM   10  C1  UNL     1      -0.415  41.416 -12.403  1.00  0.00     0.026 C 
ENDBRANCH   7   9
ENDBRANCH   1   7
TORSDOF 2
ENDMDL
MODEL 3
REMARK VINA RESULT: -4.994851781      1.420      1.897
REMARK  2 active torsions:
REMARK  status: ('A' for Active; 'I' for Inactive)
REMARK    1  A    between atoms: C2_2  and  N1_3 
REMARK    2  A    between atoms: N1_3  and  C3_5 
ROOT
HETATM    1  C3  UNL     1       1.294  39.776 -10.539  1.00  0.00     0.013 A 
HETATM    2  C4  UNL     1       1.372  38.509 -10.257  1.00  0.00     0.076 A 
HETATM    3  C5  UNL     1      -0.021  38.433  -9.849  1.00  0.00     0.268 A 
HETATM    4  F1  UNL     1      -0.269  38.004  -8.547  1.00  0.00    -0.201 F 
HETATM    5  F2  UNL     1      -0.739  37.668 -10.811  1.00  0.00    -0.201 F 
HETATM    6  C6  UNL     1      -0.093  39.860 -10.134  1.00  0.00     0.140 A 
ENDROOT
BRANCH   1   7
HETATM    7  N1  UNL     1       2.231  40.750 -11.041  1.00  0.00    -0.393 N 
ATOM      8  H1  UNL     1       3.105  40.904 -10.538  1.00  0.00     0.159 HD
BRANCH   7   9
HETATM    9  C2  UNL     1       1.964  41.510 -12.233  1.00  0.00     0.115 C 
HETATM   10  C1  UNL     1       1.593  40.458 -13.307  1.00  0.00     0.026 C 
ENDBRANCH   7   9
ENDBRANCH   1   7
TORSDOF 2
ENDMDL
MODEL 4
REMARK VINA RESULT: -4.938947300      3.298      4.044
REMARK  2 active torsions:
REMARK  status: ('A' for Active; 'I' for Inactive)
REMARK    1  A    between atoms: C2_2  and  N1_3 
REMARK    2  A    between atoms: N1_3  and  C3_5 
ROOT
HETATM    1  C3  UNL     1       1.096  41.383 -10.449  1.00  0.00     0.013 A 
HETATM    2  C4  UNL     1       0.328  40.983 -11.420  1.00  0.00     0.076 A 
HETATM    3  C5  UNL     1       1.422  40.956 -12.378  1.00  0.00     0.268 A 
HETATM    4  F1  UNL     1       1.279  41.753 -13.511  1.00  0.00    -0.201 F 
HETATM    5  F2  UNL     1       1.708  39.602 -12.708  1.00  0.00    -0.201 F 
HETATM    6  C6  UNL     1       2.268  41.437 -11.295  1.00  0.00     0.140 A 
ENDROOT
BRANCH   1   7
HETATM    7  N1  UNL     1       0.874  41.688  -9.057  1.00  0.00    -0.393 N 
ATOM      8  H1  UNL     1       0.816  40.924  -8.384  1.00  0.00     0.159 HD
BRANCH   7   9
HETATM    9  C2  UNL     1       0.733  43.043  -8.595  1.00  0.00     0.115 C 
HETATM   10  C1  UNL     1       0.244  42.922  -7.131  1.00  0.00     0.026 C 
ENDBRANCH   7   9
ENDBRANCH   1   7
TORSDOF 2
ENDMDL
MODEL 5
REMARK VINA RESULT: -4.912876953      3.020      4.096
REMARK  2 active torsions:
REMARK  status: ('A' for Active; 'I' for Inactive)
REMARK    1  A    between atoms: C2_2  and  N1_3 
REMARK    2  A    between atoms: N1_3  and  C3_5 
ROOT
HETATM    1  C3  UNL     1       1.390  40.340 -11.227  1.00  0.00     0.013 A 
HETATM    2  C4  UNL     1       0.672  40.085 -12.282  1.00  0.00     0.076 A 
HETATM    3  C5  UNL     1       1.409  41.028 -13.108  1.00  0.00     0.268 A 
HETATM    4  F1  UNL     1       0.670  42.050 -13.698  1.00  0.00    -0.201 F 
HETATM    5  F2  UNL     1       2.175  40.301 -14.061  1.00  0.00    -0.201 F 
HETATM    6  C6  UNL     1       2.185  41.335 -11.914  1.00  0.00     0.140 A 
ENDROOT
BRANCH   1   7
HETATM    7  N1  UNL     1       1.388  39.849  -9.872  1.00  0.00    -0.393 N 
ATOM      8  H1  UNL     1       1.406  40.516  -9.101  1.00  0.00     0.159 HD
BRANCH   7   9
HETATM    9  C2  UNL     1       1.361  38.440  -9.581  1.00  0.00     0.115 C 
HETATM   10  C1  UNL     1      -0.103  38.139  -9.176  1.00  0.00     0.026 C 
ENDBRANCH   7   9
ENDBRANCH   1   7
TORSDOF 2
ENDMDL
