MODEL 1
REMARK VINA RESULT: -6.532027231      0.000      0.000
REMARK  7 active torsions:
REMARK  status: ('A' for Active; 'I' for Inactive)
REMARK    1  A    between atoms: N1_1  and  C1_4 
REMARK    2  A    between atoms: C4_9  and  N3_10 
REMARK    3  A    between atoms: C5_11  and  C6_12 
REMARK    4  A    between atoms: C7_25  and  N10_26 
REMARK    5  A    between atoms: C8_29  and  C9_30 
REMARK    6  A    between atoms: N11_31  and  N12_33 
REMARK    7  A    between atoms: N12_33  and  C10_35 
ROOT
HETATM    1  C1  UNL     1     120.097  53.758  14.385  1.00  0.00     0.112 A 
HETATM    2  N2  UNL     1     121.360  54.126  13.971  1.00  0.00    -0.352 N 
ATOM      3  H2  UNL     1     122.021  53.390  13.720  1.00  0.00     0.166 HD
HETATM    4  C2  UNL     1     121.761  55.392  13.880  1.00  0.00     0.092 A 
HETATM    5  C3  UNL     1     120.859  56.377  14.221  1.00  0.00     0.049 A 
HETATM    6  C4  UNL     1     119.583  56.040  14.642  1.00  0.00     0.075 A 
HETATM    7  C8  UNL     1     119.176  54.724  14.732  1.00  0.00     0.052 A 
ENDROOT
BRANCH   6   8
HETATM    8  N3  UNL     1     118.697  57.089  14.979  1.00  0.00    -0.125 N 
HETATM    9  C5  UNL     1     117.999  57.819  14.062  1.00  0.00     0.191 A 
HETATM   10  N8  UNL     1     117.286  58.701  14.779  1.00  0.00    -0.267 N 
HETATM   11  N9  UNL     1     117.511  58.549  16.072  1.00  0.00    -0.130 N 
ATOM     12  H8  UNL     1     116.654  59.395  14.379  1.00  0.00     0.189 HD
HETATM   13  C7  UNL     1     118.393  57.543  16.212  1.00  0.00     0.699 A 
ATOM     14  H9  UNL     1     117.092  59.093  16.826  1.00  0.00     0.205 HD
BRANCH   9  15
HETATM   15  C6  UNL     1     118.047  57.643  12.616  1.00  0.00     0.184 A 
HETATM   16  N4  UNL     1     118.344  58.529  11.658  1.00  0.00    -0.266 N 
HETATM   17  N5  UNL     1     118.259  57.914  10.491  1.00  0.00    -0.226 N 
ATOM     18  H4  UNL     1     118.591  59.508  11.803  1.00  0.00     0.190 HD
HETATM   19  N6  UNL     1     117.916  56.667  10.702  1.00  0.00    -0.226 N 
ATOM     20  H5  UNL     1     118.432  58.339   9.580  1.00  0.00     0.210 HD
HETATM   21  N7  UNL     1     117.784  56.487  11.999  1.00  0.00    -0.266 N 
ATOM     22  H6  UNL     1     117.777  55.956   9.984  1.00  0.00     0.210 HD
ATOM     23  H7  UNL     1     117.524  55.613  12.456  1.00  0.00     0.190 HD
ENDBRANCH   9  15
BRANCH  13  24
HETATM   24  N10 UNL     1     118.899  57.049  17.307  1.00  0.00    -0.233 N 
ATOM     25 2H10 UNL     1     118.954  56.074  17.600  1.00  0.00     0.174 HD
ATOM     26 1H10 UNL     1     119.324  57.618  18.038  1.00  0.00     0.174 HD
ENDBRANCH  13  24
ENDBRANCH   6   8
BRANCH   7  27
HETATM   27  C9  UNL     1     117.844  54.433  15.172  1.00  0.00     0.124 C 
HETATM   28  N11 UNL     1     117.454  53.823  16.212  1.00  0.00    -0.308 N 
ATOM     29  H11 UNL     1     118.176  53.479  16.844  1.00  0.00     0.186 HD
BRANCH  28  30
HETATM   30  N12 UNL     1     116.148  53.580  16.568  1.00  0.00    -0.272 N 
ATOM     31  H12 UNL     1     115.504  54.371  16.594  1.00  0.00     0.190 HD
BRANCH  30  32
HETATM   32  C10 UNL     1     115.637  52.290  16.905  1.00  0.00     0.190 C 
HETATM   33  N13 UNL     1     114.648  52.038  17.696  1.00  0.00    -0.360 N 
HETATM   34  C11 UNL     1     114.410  50.621  17.803  1.00  0.00     0.142 C 
ATOM     35  H13 UNL     1     114.105  52.750  18.184  1.00  0.00     0.162 HD
HETATM   36  C12 UNL     1     115.196  50.012  16.650  1.00  0.00     0.142 C 
HETATM   37  N14 UNL     1     116.170  51.070  16.394  1.00  0.00    -0.360 N 
ATOM     38  H14 UNL     1     117.072  50.957  15.932  1.00  0.00     0.162 HD
ENDBRANCH  30  32
ENDBRANCH  28  30
ENDBRANCH   7  27
BRANCH   1  39
HETATM   39  N1  UNL     1     119.867  52.518  14.418  1.00  0.00    -0.385 N 
ATOM     40  H12 UNL     1     119.598  51.965  13.605  1.00  0.00     0.157 HD
ATOM     41  H11 UNL     1     119.965  52.071  15.330  1.00  0.00     0.157 HD
ENDBRANCH   1  39
TORSDOF 7
ENDMDL
MODEL 2
REMARK VINA RESULT: -6.360420526      2.348      3.893
REMARK  7 active torsions:
REMARK  status: ('A' for Active; 'I' for Inactive)
REMARK    1  A    between atoms: N1_1  and  C1_4 
REMARK    2  A    between atoms: C4_9  and  N3_10 
REMARK    3  A    between atoms: C5_11  and  C6_12 
REMARK    4  A    between atoms: C7_25  and  N10_26 
REMARK    5  A    between atoms: C8_29  and  C9_30 
REMARK    6  A    between atoms: N11_31  and  N12_33 
REMARK    7  A    between atoms: N12_33  and  C10_35 
ROOT
HETATM    1  C1  UNL     1     118.557  53.958  15.199  1.00  0.00     0.112 A 
HETATM    2  N2  UNL     1     119.506  53.110  14.667  1.00  0.00    -0.352 N 
ATOM      3  H2  UNL     1     119.397  52.107  14.816  1.00  0.00     0.166 HD
HETATM    4  C2  UNL     1     120.557  53.533  13.967  1.00  0.00     0.092 A 
HETATM    5  C3  UNL     1     120.693  54.891  13.773  1.00  0.00     0.049 A 
HETATM    6  C4  UNL     1     119.758  55.769  14.295  1.00  0.00     0.075 A 
HETATM    7  C8  UNL     1     118.672  55.321  15.018  1.00  0.00     0.052 A 
ENDROOT
BRANCH   6   8
HETATM    8  N3  UNL     1     119.945  57.152  14.065  1.00  0.00    -0.125 N 
HETATM    9  C5  UNL     1     119.642  57.775  12.889  1.00  0.00     0.191 A 
HETATM   10  N8  UNL     1     119.963  59.064  13.079  1.00  0.00    -0.267 N 
HETATM   11  N9  UNL     1     120.442  59.257  14.295  1.00  0.00    -0.130 N 
ATOM     12  H8  UNL     1     119.852  59.796  12.378  1.00  0.00     0.189 HD
HETATM   13  C7  UNL     1     120.436  58.067  14.924  1.00  0.00     0.699 A 
ATOM     14  H9  UNL     1     120.757  60.144  14.686  1.00  0.00     0.205 HD
BRANCH   9  15
HETATM   15  C6  UNL     1     119.087  57.135  11.703  1.00  0.00     0.184 A 
HETATM   16  N4  UNL     1     117.813  56.860  11.401  1.00  0.00    -0.266 N 
HETATM   17  N5  UNL     1     117.791  56.273  10.216  1.00  0.00    -0.226 N 
ATOM     18  H4  UNL     1     117.001  57.067  11.982  1.00  0.00     0.190 HD
HETATM   19  N6  UNL     1     119.023  56.177   9.777  1.00  0.00    -0.226 N 
ATOM     20  H5  UNL     1     116.957  55.950   9.726  1.00  0.00     0.210 HD
HETATM   21  N7  UNL     1     119.827  56.701  10.679  1.00  0.00    -0.266 N 
ATOM     22  H6  UNL     1     119.310  55.766   8.889  1.00  0.00     0.210 HD
ATOM     23  H7  UNL     1     120.842  56.765  10.607  1.00  0.00     0.190 HD
ENDBRANCH   9  15
BRANCH  13  24
HETATM   24  N10 UNL     1     120.820  57.786  16.137  1.00  0.00    -0.233 N 
ATOM     25 2H10 UNL     1     121.694  58.030  16.602  1.00  0.00     0.174 HD
ATOM     26 1H10 UNL     1     120.253  57.257  16.799  1.00  0.00     0.174 HD
ENDBRANCH  13  24
ENDBRANCH   6   8
BRANCH   7  27
HETATM   27  C9  UNL     1     117.735  56.273  15.535  1.00  0.00     0.124 C 
HETATM   28  N11 UNL     1     117.594  56.707  16.717  1.00  0.00    -0.308 N 
ATOM     29  H11 UNL     1     118.230  56.337  17.423  1.00  0.00     0.186 HD
BRANCH  28  30
HETATM   30  N12 UNL     1     116.663  57.628  17.138  1.00  0.00    -0.272 N 
ATOM     31  H12 UNL     1     116.159  58.158  16.428  1.00  0.00     0.190 HD
BRANCH  30  32
HETATM   32  C10 UNL     1     116.360  57.888  18.509  1.00  0.00     0.190 C 
HETATM   33  N13 UNL     1     116.496  59.015  19.125  1.00  0.00    -0.360 N 
HETATM   34  C11 UNL     1     116.093  58.912  20.505  1.00  0.00     0.142 C 
ATOM     35  H13 UNL     1     116.844  59.870  18.691  1.00  0.00     0.162 HD
HETATM   36  C12 UNL     1     115.326  57.598  20.582  1.00  0.00     0.142 C 
HETATM   37  N14 UNL     1     115.851  56.905  19.408  1.00  0.00    -0.360 N 
ATOM     38  H14 UNL     1     115.854  55.896  19.257  1.00  0.00     0.162 HD
ENDBRANCH  30  32
ENDBRANCH  28  30
ENDBRANCH   7  27
BRANCH   1  39
HETATM   39  N1  UNL     1     117.620  53.406  15.837  1.00  0.00    -0.385 N 
ATOM     40  H12 UNL     1     117.731  52.969  16.752  1.00  0.00     0.157 HD
ATOM     41  H11 UNL     1     116.706  53.412  15.382  1.00  0.00     0.157 HD
ENDBRANCH   1  39
TORSDOF 7
ENDMDL
MODEL 3
REMARK VINA RESULT: -6.177141641      4.037      6.519
REMARK  7 active torsions:
REMARK  status: ('A' for Active; 'I' for Inactive)
REMARK    1  A    between atoms: N1_1  and  C1_4 
REMARK    2  A    between atoms: C4_9  and  N3_10 
REMARK    3  A    between atoms: C5_11  and  C6_12 
REMARK    4  A    between atoms: C7_25  and  N10_26 
REMARK    5  A    between atoms: C8_29  and  C9_30 
REMARK    6  A    between atoms: N11_31  and  N12_33 
REMARK    7  A    between atoms: N12_33  and  C10_35 
ROOT
HETATM    1  C1  UNL     1     118.724  57.405  17.301  1.00  0.00     0.112 A 
HETATM    2  N2  UNL     1     119.375  58.364  16.554  1.00  0.00    -0.352 N 
ATOM      3  H2  UNL     1     119.704  58.111  15.622  1.00  0.00     0.166 HD
HETATM    4  C2  UNL     1     119.598  59.603  16.986  1.00  0.00     0.092 A 
HETATM    5  C3  UNL     1     119.150  59.933  18.248  1.00  0.00     0.049 A 
HETATM    6  C4  UNL     1     118.492  58.992  19.024  1.00  0.00     0.075 A 
HETATM    7  C8  UNL     1     118.266  57.710  18.566  1.00  0.00     0.052 A 
ENDROOT
BRANCH   6   8
HETATM    8  N3  UNL     1     118.053  59.382  20.310  1.00  0.00    -0.125 N 
HETATM    9  C5  UNL     1     118.867  59.453  21.402  1.00  0.00     0.191 A 
HETATM   10  N8  UNL     1     118.076  59.856  22.408  1.00  0.00    -0.267 N 
HETATM   11  N9  UNL     1     116.835  60.032  21.991  1.00  0.00    -0.130 N 
ATOM     12  H8  UNL     1     118.392  60.007  23.366  1.00  0.00     0.189 HD
HETATM   13  C7  UNL     1     116.806  59.738  20.678  1.00  0.00     0.699 A 
ATOM     14  H9  UNL     1     116.044  60.335  22.559  1.00  0.00     0.205 HD
BRANCH   9  15
HETATM   15  C6  UNL     1     120.293  59.148  21.425  1.00  0.00     0.184 A 
HETATM   16  N4  UNL     1     121.314  59.806  20.866  1.00  0.00    -0.266 N 
HETATM   17  N5  UNL     1     122.428  59.154  21.154  1.00  0.00    -0.226 N 
ATOM     18  H4  UNL     1     121.247  60.662  20.315  1.00  0.00     0.190 HD
HETATM   19  N6  UNL     1     122.120  58.106  21.878  1.00  0.00    -0.226 N 
ATOM     20  H5  UNL     1     123.368  59.423  20.863  1.00  0.00     0.210 HD
HETATM   21  N7  UNL     1     120.815  58.090  22.051  1.00  0.00    -0.266 N 
ATOM     22  H6  UNL     1     122.779  57.419  22.244  1.00  0.00     0.210 HD
ATOM     23  H7  UNL     1     120.292  57.388  22.575  1.00  0.00     0.190 HD
ENDBRANCH   9  15
BRANCH  13  24
HETATM   24  N10 UNL     1     115.794  59.773  19.858  1.00  0.00    -0.233 N 
ATOM     25 2H10 UNL     1     115.801  59.806  18.839  1.00  0.00     0.174 HD
ATOM     26 1H10 UNL     1     114.821  59.768  20.163  1.00  0.00     0.174 HD
ENDBRANCH  13  24
ENDBRANCH   6   8
BRANCH   7  27
HETATM   27  C9  UNL     1     117.580  56.777  19.410  1.00  0.00     0.124 C 
HETATM   28  N11 UNL     1     116.392  56.344  19.335  1.00  0.00    -0.308 N 
ATOM     29  H11 UNL     1     115.819  56.697  18.568  1.00  0.00     0.186 HD
BRANCH  28  30
HETATM   30  N12 UNL     1     115.801  55.443  20.189  1.00  0.00    -0.272 N 
ATOM     31  H12 UNL     1     115.572  55.757  21.132  1.00  0.00     0.190 HD
BRANCH  30  32
HETATM   32  C10 UNL     1     115.488  54.094  19.838  1.00  0.00     0.190 C 
HETATM   33  N13 UNL     1     114.340  53.516  19.959  1.00  0.00    -0.360 N 
HETATM   34  C11 UNL     1     114.389  52.150  19.505  1.00  0.00     0.142 C 
ATOM     35  H13 UNL     1     113.503  53.969  20.328  1.00  0.00     0.162 HD
HETATM   36  C12 UNL     1     115.695  52.052  18.727  1.00  0.00     0.142 C 
HETATM   37  N14 UNL     1     116.434  53.180  19.290  1.00  0.00    -0.360 N 
ATOM     38  H14 UNL     1     117.448  53.293  19.291  1.00  0.00     0.162 HD
ENDBRANCH  30  32
ENDBRANCH  28  30
ENDBRANCH   7  27
BRANCH   1  39
HETATM   39  N1  UNL     1     118.589  56.277  16.753  1.00  0.00    -0.385 N 
ATOM     40  H12 UNL     1     119.367  55.667  16.502  1.00  0.00     0.157 HD
ATOM     41  H11 UNL     1     117.630  55.985  16.562  1.00  0.00     0.157 HD
ENDBRANCH   1  39
TORSDOF 7
ENDMDL
MODEL 4
REMARK VINA RESULT: -6.166601944      1.079      1.349
REMARK  7 active torsions:
REMARK  status: ('A' for Active; 'I' for Inactive)
REMARK    1  A    between atoms: N1_1  and  C1_4 
REMARK    2  A    between atoms: C4_9  and  N3_10 
REMARK    3  A    between atoms: C5_11  and  C6_12 
REMARK    4  A    between atoms: C7_25  and  N10_26 
REMARK    5  A    between atoms: C8_29  and  C9_30 
REMARK    6  A    between atoms: N11_31  and  N12_33 
REMARK    7  A    between atoms: N12_33  and  C10_35 
ROOT
HETATM    1  C1  UNL     1     120.659  54.171  14.265  1.00  0.00     0.112 A 
HETATM    2  N2  UNL     1     121.894  54.655  13.885  1.00  0.00    -0.352 N 
ATOM      3  H2  UNL     1     122.630  53.984  13.663  1.00  0.00     0.166 HD
HETATM    4  C2  UNL     1     122.176  55.953  13.793  1.00  0.00     0.092 A 
HETATM    5  C3  UNL     1     121.173  56.850  14.097  1.00  0.00     0.049 A 
HETATM    6  C4  UNL     1     119.923  56.396  14.482  1.00  0.00     0.075 A 
HETATM    7  C8  UNL     1     119.640  55.048  14.573  1.00  0.00     0.052 A 
ENDROOT
BRANCH   6   8
HETATM    8  N3  UNL     1     118.931  57.358  14.781  1.00  0.00    -0.125 N 
HETATM    9  C5  UNL     1     118.127  57.938  13.843  1.00  0.00     0.191 A 
HETATM   10  N8  UNL     1     117.337  58.781  14.526  1.00  0.00    -0.267 N 
HETATM   11  N9  UNL     1     117.614  58.745  15.818  1.00  0.00    -0.130 N 
ATOM     12  H8  UNL     1     116.618  59.369  14.104  1.00  0.00     0.189 HD
HETATM   13  C7  UNL     1     118.611  57.859  15.991  1.00  0.00     0.699 A 
ATOM     14  H9  UNL     1     117.157  59.289  16.548  1.00  0.00     0.205 HD
BRANCH   9  15
HETATM   15  C6  UNL     1     118.155  57.668  12.411  1.00  0.00     0.184 A 
HETATM   16  N4  UNL     1     118.497  58.473  11.399  1.00  0.00    -0.266 N 
HETATM   17  N5  UNL     1     118.368  57.793  10.273  1.00  0.00    -0.226 N 
ATOM     18  H4  UNL     1     118.804  59.443  11.481  1.00  0.00     0.190 HD
HETATM   19  N6  UNL     1     117.953  56.583  10.563  1.00  0.00    -0.226 N 
ATOM     20  H5  UNL     1     118.560  58.148   9.336  1.00  0.00     0.210 HD
HETATM   21  N7  UNL     1     117.819  56.494  11.870  1.00  0.00    -0.266 N 
ATOM     22  H6  UNL     1     117.767  55.839   9.892  1.00  0.00     0.210 HD
ATOM     23  H7  UNL     1     117.510  55.668  12.382  1.00  0.00     0.190 HD
ENDBRANCH   9  15
BRANCH  13  24
HETATM   24  N10 UNL     1     119.201  57.503  17.097  1.00  0.00    -0.233 N 
ATOM     25 2H10 UNL     1     118.787  57.117  17.946  1.00  0.00     0.174 HD
ATOM     26 1H10 UNL     1     120.207  57.574  17.248  1.00  0.00     0.174 HD
ENDBRANCH  13  24
ENDBRANCH   6   8
BRANCH   7  27
HETATM   27  C9  UNL     1     118.329  54.634  14.976  1.00  0.00     0.124 C 
HETATM   28  N11 UNL     1     117.983  53.699  15.758  1.00  0.00    -0.308 N 
ATOM     29  H11 UNL     1     118.731  53.144  16.174  1.00  0.00     0.186 HD
BRANCH  28  30
HETATM   30  N12 UNL     1     116.694  53.360  16.098  1.00  0.00    -0.272 N 
ATOM     31  H12 UNL     1     116.027  53.197  15.343  1.00  0.00     0.190 HD
BRANCH  30  32
HETATM   32  C10 UNL     1     116.232  53.222  17.442  1.00  0.00     0.190 C 
HETATM   33  N13 UNL     1     116.617  53.915  18.461  1.00  0.00    -0.360 N 
HETATM   34  C11 UNL     1     115.938  53.504  19.663  1.00  0.00     0.142 C 
ATOM     35  H13 UNL     1     117.314  54.660  18.421  1.00  0.00     0.162 HD
HETATM   36  C12 UNL     1     114.772  52.656  19.173  1.00  0.00     0.142 C 
HETATM   37  N14 UNL     1     115.253  52.270  17.848  1.00  0.00    -0.360 N 
ATOM     38  H14 UNL     1     114.942  51.461  17.309  1.00  0.00     0.162 HD
ENDBRANCH  30  32
ENDBRANCH  28  30
ENDBRANCH   7  27
BRANCH   1  39
HETATM   39  N1  UNL     1     120.548  52.915  14.304  1.00  0.00    -0.385 N 
ATOM     40  H12 UNL     1     121.129  52.273  13.767  1.00  0.00     0.157 HD
ATOM     41  H11 UNL     1     119.821  52.551  14.921  1.00  0.00     0.157 HD
ENDBRANCH   1  39
TORSDOF 7
ENDMDL
MODEL 5
REMARK VINA RESULT: -6.138142698      4.092      6.804
REMARK  7 active torsions:
REMARK  status: ('A' for Active; 'I' for Inactive)
REMARK    1  A    between atoms: N1_1  and  C1_4 
REMARK    2  A    between atoms: C4_9  and  N3_10 
REMARK    3  A    between atoms: C5_11  and  C6_12 
REMARK    4  A    between atoms: C7_25  and  N10_26 
REMARK    5  A    between atoms: C8_29  and  C9_30 
REMARK    6  A    between atoms: N11_31  and  N12_33 
REMARK    7  A    between atoms: N12_33  and  C10_35 
ROOT
HETATM    1  C1  UNL     1     115.061  57.601  21.120  1.00  0.00     0.112 A 
HETATM    2  N2  UNL     1     114.936  58.821  21.753  1.00  0.00    -0.352 N 
ATOM      3  H2  UNL     1     114.296  58.892  22.545  1.00  0.00     0.166 HD
HETATM    4  C2  UNL     1     115.608  59.909  21.386  1.00  0.00     0.092 A 
HETATM    5  C3  UNL     1     116.470  59.800  20.314  1.00  0.00     0.049 A 
HETATM    6  C4  UNL     1     116.617  58.590  19.657  1.00  0.00     0.075 A 
HETATM    7  C8  UNL     1     115.915  57.467  20.046  1.00  0.00     0.052 A 
ENDROOT
BRANCH   6   8
HETATM    8  N3  UNL     1     117.513  58.532  18.565  1.00  0.00    -0.125 N 
HETATM    9  C5  UNL     1     118.871  58.523  18.696  1.00  0.00     0.191 A 
HETATM   10  N8  UNL     1     119.348  58.464  17.444  1.00  0.00    -0.267 N 
HETATM   11  N9  UNL     1     118.362  58.438  16.565  1.00  0.00    -0.130 N 
ATOM     12  H8  UNL     1     120.339  58.441  17.203  1.00  0.00     0.189 HD
HETATM   13  C7  UNL     1     117.207  58.481  17.253  1.00  0.00     0.699 A 
ATOM     14  H9  UNL     1     118.458  58.393  15.551  1.00  0.00     0.205 HD
BRANCH   9  15
HETATM   15  C6  UNL     1     119.607  58.567  19.954  1.00  0.00     0.184 A 
HETATM   16  N4  UNL     1     119.308  58.016  21.136  1.00  0.00    -0.266 N 
HETATM   17  N5  UNL     1     120.271  58.325  21.987  1.00  0.00    -0.226 N 
ATOM     18  H4  UNL     1     118.481  57.456  21.345  1.00  0.00     0.190 HD
HETATM   19  N6  UNL     1     121.160  59.056  21.361  1.00  0.00    -0.226 N 
ATOM     20  H5  UNL     1     120.314  58.042  22.967  1.00  0.00     0.210 HD
HETATM   21  N7  UNL     1     120.766  59.212  20.115  1.00  0.00    -0.266 N 
ATOM     22  H6  UNL     1     122.013  59.439  21.769  1.00  0.00     0.210 HD
ATOM     23  H7  UNL     1     121.261  59.736  19.393  1.00  0.00     0.190 HD
ENDBRANCH   9  15
BRANCH  13  24
HETATM   24  N10 UNL     1     115.986  58.475  16.797  1.00  0.00    -0.233 N 
ATOM     25 2H10 UNL     1     115.468  59.233  16.354  1.00  0.00     0.174 HD
ATOM     26 1H10 UNL     1     115.375  57.660  16.833  1.00  0.00     0.174 HD
ENDBRANCH  13  24
ENDBRANCH   6   8
BRANCH   7  27
HETATM   27  C9  UNL     1     116.106  56.240  19.331  1.00  0.00     0.124 C 
HETATM   28  N11 UNL     1     116.689  55.176  19.696  1.00  0.00    -0.308 N 
ATOM     29  H11 UNL     1     117.089  55.166  20.634  1.00  0.00     0.186 HD
BRANCH  28  30
HETATM   30  N12 UNL     1     116.833  54.031  18.946  1.00  0.00    -0.272 N 
ATOM     31  H12 UNL     1     117.674  53.934  18.377  1.00  0.00     0.190 HD
BRANCH  30  32
HETATM   32  C10 UNL     1     115.877  52.970  18.916  1.00  0.00     0.190 C 
HETATM   33  N13 UNL     1     114.709  52.973  19.466  1.00  0.00    -0.360 N 
HETATM   34  C11 UNL     1     114.015  51.732  19.232  1.00  0.00     0.142 C 
ATOM     35  H13 UNL     1     114.326  53.754  19.999  1.00  0.00     0.162 HD
HETATM   36  C12 UNL     1     114.805  51.057  18.118  1.00  0.00     0.142 C 
HETATM   37  N14 UNL     1     116.095  51.728  18.252  1.00  0.00    -0.360 N 
ATOM     38  H14 UNL     1     116.994  51.371  17.928  1.00  0.00     0.162 HD
ENDBRANCH  30  32
ENDBRANCH  28  30
ENDBRANCH   7  27
BRANCH   1  39
HETATM   39  N1  UNL     1     114.357  56.664  21.586  1.00  0.00    -0.385 N 
ATOM     40  H12 UNL     1     114.031  56.620  22.551  1.00  0.00     0.157 HD
ATOM     41  H11 UNL     1     114.116  55.919  20.932  1.00  0.00     0.157 HD
ENDBRANCH   1  39
TORSDOF 7
ENDMDL
