MODEL 1
REMARK VINA RESULT: -6.439859047      0.000      0.000
REMARK  7 active torsions:
REMARK  status: ('A' for Active; 'I' for Inactive)
REMARK       I    between atoms: N1_2  and  C2_4 
REMARK       I    between atoms: C2_4  and  N3_9 
REMARK    1  A    between atoms: N2_5  and  O1_7 
REMARK    2  A    between atoms: N3_9  and  O2_10 
REMARK       I    between atoms: N3_9  and  C8_31 
REMARK    3  A    between atoms: O2_10  and  C3_11 
REMARK    4  A    between atoms: C5_16  and  N6_17 
REMARK    5  A    between atoms: N7_20  and  C6_21 
REMARK    6  A    between atoms: C7_27  and  N10_28 
REMARK    7  A    between atoms: C8_31  and  O5_33 
ROOT
HETATM    1  C3  UNL     1     117.850  56.629  17.531  1.00  0.00     0.287 A 
HETATM    2  N4  UNL     1     118.853  57.465  17.218  1.00  0.00    -0.246 N 
ATOM      3  H4  UNL     1     119.204  57.624  16.274  1.00  0.00     0.191 HD
HETATM    4  N5  UNL     1     119.316  58.046  18.295  1.00  0.00    -0.125 N 
HETATM    5  C4  UNL     1     120.387  59.014  18.442  1.00  0.00     0.197 C 
HETATM    6  C5  UNL     1     118.604  57.580  19.319  1.00  0.00     0.704 A 
HETATM    7  N7  UNL     1     117.698  56.706  18.860  1.00  0.00    -0.085 N 
ENDROOT
BRANCH   1   8
HETATM    8  O2  UNL     1     117.113  55.836  16.633  1.00  0.00    -0.172 OA
BRANCH   8   9
HETATM    9  N3  UNL     1     117.546  54.595  16.203  1.00  0.00     0.023 N 
HETATM   10  C2  UNL     1     118.494  54.517  15.143  1.00  0.00     0.729 C 
HETATM   11  N1  UNL     1     119.030  55.637  14.459  1.00  0.00    -0.227 N 
HETATM   12  N2  UNL     1     118.927  53.350  14.730  1.00  0.00    -0.097 N 
HETATM   13  C1  UNL     1     118.102  56.415  13.668  1.00  0.00     0.165 C 
ATOM     14  H1  UNL     1     120.019  55.882  14.520  1.00  0.00     0.177 HD
ATOM     15  H2  UNL     1     118.573  52.511  15.190  1.00  0.00     0.213 HD
HETATM   16  C8  UNL     1     117.075  53.392  16.781  1.00  0.00     0.406 C 
HETATM   17  O4  UNL     1     116.240  53.458  17.709  1.00  0.00    -0.235 OA
BRANCH  12  18
HETATM   18  O1  UNL     1     119.817  53.201  13.725  1.00  0.00    -0.276 OA
ATOM     19  H1  UNL     1     119.639  52.697  12.939  1.00  0.00     0.245 HD
ENDBRANCH  12  18
BRANCH  16  20
HETATM   20  O5  UNL     1     117.505  52.156  16.354  1.00  0.00    -0.307 OA
HETATM   21  C9  UNL     1     116.709  50.974  16.531  1.00  0.00     0.215 C 
ENDBRANCH  16  20
ENDBRANCH   8   9
ENDBRANCH   1   8
BRANCH   7  22
HETATM   22  C6  UNL     1     116.746  55.986  19.669  1.00  0.00     0.200 A 
HETATM   23  N8  UNL     1     116.822  54.730  20.135  1.00  0.00    -0.221 N 
HETATM   24  O3  UNL     1     115.739  54.497  20.825  1.00  0.00    -0.153 OA
ATOM     25  H8  UNL     1     117.588  54.075  19.979  1.00  0.00     0.198 HD
HETATM   26  N9  UNL     1     114.956  55.524  20.840  1.00  0.00    -0.222 N 
HETATM   27  C7  UNL     1     115.558  56.497  20.115  1.00  0.00     0.168 A 
ATOM     28  H9  UNL     1     114.053  55.590  21.310  1.00  0.00     0.198 HD
BRANCH  27  29
HETATM   29  N10 UNL     1     115.138  57.690  19.866  1.00  0.00    -0.381 N 
ATOM     30 2H10 UNL     1     115.477  58.349  19.167  1.00  0.00     0.157 HD
ATOM     31 1H10 UNL     1     114.374  58.147  20.363  1.00  0.00     0.157 HD
ENDBRANCH  27  29
ENDBRANCH   7  22
BRANCH   6  32
HETATM   32  N6  UNL     1     118.766  57.925  20.582  1.00  0.00    -0.232 N 
ATOM     33  H62 UNL     1     118.332  57.466  21.383  1.00  0.00     0.174 HD
ATOM     34  H61 UNL     1     119.344  58.697  20.914  1.00  0.00     0.174 HD
ENDBRANCH   6  32
TORSDOF 7
ENDMDL
MODEL 2
REMARK VINA RESULT: -6.414399204      2.591      6.156
REMARK  7 active torsions:
REMARK  status: ('A' for Active; 'I' for Inactive)
REMARK       I    between atoms: N1_2  and  C2_4 
REMARK       I    between atoms: C2_4  and  N3_9 
REMARK    1  A    between atoms: N2_5  and  O1_7 
REMARK    2  A    between atoms: N3_9  and  O2_10 
REMARK       I    between atoms: N3_9  and  C8_31 
REMARK    3  A    between atoms: O2_10  and  C3_11 
REMARK    4  A    between atoms: C5_16  and  N6_17 
REMARK    5  A    between atoms: N7_20  and  C6_21 
REMARK    6  A    between atoms: C7_27  and  N10_28 
REMARK    7  A    between atoms: C8_31  and  O5_33 
ROOT
HETATM    1  C3  UNL     1     117.562  55.755  18.474  1.00  0.00     0.287 A 
HETATM    2  N4  UNL     1     117.096  54.496  18.480  1.00  0.00    -0.246 N 
ATOM      3  H4  UNL     1     116.843  53.973  19.317  1.00  0.00     0.191 HD
HETATM    4  N5  UNL     1     117.013  54.036  17.258  1.00  0.00    -0.125 N 
HETATM    5  C4  UNL     1     116.568  52.739  16.781  1.00  0.00     0.197 C 
HETATM    6  C5  UNL     1     117.432  55.008  16.450  1.00  0.00     0.704 A 
HETATM    7  N7  UNL     1     117.772  56.073  17.190  1.00  0.00    -0.085 N 
ENDROOT
BRANCH   1   8
HETATM    8  O2  UNL     1     117.782  56.569  19.601  1.00  0.00    -0.172 OA
BRANCH   8   9
HETATM    9  N3  UNL     1     116.953  57.625  19.932  1.00  0.00     0.023 N 
HETATM   10  C2  UNL     1     117.480  58.947  19.946  1.00  0.00     0.729 C 
HETATM   11  N1  UNL     1     118.830  59.278  19.660  1.00  0.00    -0.227 N 
HETATM   12  N2  UNL     1     116.707  59.964  20.245  1.00  0.00    -0.097 N 
HETATM   13  C1  UNL     1     119.824  58.793  20.591  1.00  0.00     0.165 C 
ATOM     14  H1  UNL     1     119.086  59.829  18.840  1.00  0.00     0.177 HD
ATOM     15  H2  UNL     1     115.727  59.780  20.458  1.00  0.00     0.213 HD
HETATM   16  C8  UNL     1     115.589  57.436  20.264  1.00  0.00     0.406 C 
HETATM   17  O4  UNL     1     115.124  56.276  20.255  1.00  0.00    -0.235 OA
BRANCH  12  18
HETATM   18  O1  UNL     1     117.143  61.242  20.286  1.00  0.00    -0.276 OA
ATOM     19  H1  UNL     1     117.631  61.604  21.017  1.00  0.00     0.245 HD
ENDBRANCH  12  18
BRANCH  16  20
HETATM   20  O5  UNL     1     114.763  58.487  20.593  1.00  0.00    -0.307 OA
HETATM   21  C9  UNL     1     113.864  58.421  21.712  1.00  0.00     0.215 C 
ENDBRANCH  16  20
ENDBRANCH   8   9
ENDBRANCH   1   8
BRANCH   7  22
HETATM   22  C6  UNL     1     118.278  57.321  16.674  1.00  0.00     0.200 A 
HETATM   23  N8  UNL     1     119.544  57.652  16.373  1.00  0.00    -0.221 N 
HETATM   24  O3  UNL     1     119.537  58.881  15.934  1.00  0.00    -0.153 OA
ATOM     25  H8  UNL     1     120.363  57.052  16.470  1.00  0.00     0.198 HD
HETATM   26  N9  UNL     1     118.345  59.377  15.927  1.00  0.00    -0.222 N 
HETATM   27  C7  UNL     1     117.510  58.416  16.392  1.00  0.00     0.168 A 
ATOM     28  H9  UNL     1     118.081  60.315  15.629  1.00  0.00     0.198 HD
BRANCH  27  29
HETATM   29  N10 UNL     1     116.232  58.471  16.553  1.00  0.00    -0.381 N 
ATOM     30 2H10 UNL     1     115.542  57.735  16.411  1.00  0.00     0.157 HD
ATOM     31 1H10 UNL     1     115.726  59.301  16.862  1.00  0.00     0.157 HD
ENDBRANCH  27  29
ENDBRANCH   7  22
BRANCH   6  32
HETATM   32  N6  UNL     1     117.498  54.934  15.135  1.00  0.00    -0.232 N 
ATOM     33  H62 UNL     1     118.274  54.542  14.601  1.00  0.00     0.174 HD
ATOM     34  H61 UNL     1     116.781  55.261  14.488  1.00  0.00     0.174 HD
ENDBRANCH   6  32
TORSDOF 7
ENDMDL
MODEL 3
REMARK VINA RESULT: -6.395883349      1.971      4.164
REMARK  7 active torsions:
REMARK  status: ('A' for Active; 'I' for Inactive)
REMARK       I    between atoms: N1_2  and  C2_4 
REMARK       I    between atoms: C2_4  and  N3_9 
REMARK    1  A    between atoms: N2_5  and  O1_7 
REMARK    2  A    between atoms: N3_9  and  O2_10 
REMARK       I    between atoms: N3_9  and  C8_31 
REMARK    3  A    between atoms: O2_10  and  C3_11 
REMARK    4  A    between atoms: C5_16  and  N6_17 
REMARK    5  A    between atoms: N7_20  and  C6_21 
REMARK    6  A    between atoms: C7_27  and  N10_28 
REMARK    7  A    between atoms: C8_31  and  O5_33 
ROOT
HETATM    1  C3  UNL     1     117.430  55.591  17.048  1.00  0.00     0.287 A 
HETATM    2  N4  UNL     1     117.767  55.527  15.749  1.00  0.00    -0.246 N 
ATOM      3  H4  UNL     1     118.076  54.683  15.269  1.00  0.00     0.191 HD
HETATM    4  N5  UNL     1     117.642  56.702  15.188  1.00  0.00    -0.125 N 
HETATM    5  C4  UNL     1     117.892  57.110  13.818  1.00  0.00     0.197 C 
HETATM    6  C5  UNL     1     117.220  57.538  16.135  1.00  0.00     0.704 A 
HETATM    7  N7  UNL     1     117.086  56.863  17.285  1.00  0.00    -0.085 N 
ENDROOT
BRANCH   1   8
HETATM    8  O2  UNL     1     117.440  54.524  17.965  1.00  0.00    -0.172 OA
BRANCH   8   9
HETATM    9  N3  UNL     1     116.507  53.504  17.935  1.00  0.00     0.023 N 
HETATM   10  C2  UNL     1     115.430  53.517  18.866  1.00  0.00     0.729 C 
HETATM   11  N1  UNL     1     115.241  54.506  19.864  1.00  0.00    -0.227 N 
HETATM   12  N2  UNL     1     114.527  52.565  18.845  1.00  0.00    -0.097 N 
HETATM   13  C1  UNL     1     116.240  54.569  20.908  1.00  0.00     0.165 C 
ATOM     14  H1  UNL     1     114.442  55.141  19.847  1.00  0.00     0.177 HD
ATOM     15  H2  UNL     1     114.617  51.829  18.145  1.00  0.00     0.213 HD
HETATM   16  C8  UNL     1     116.587  52.438  17.006  1.00  0.00     0.406 C 
HETATM   17  O4  UNL     1     117.533  52.423  16.189  1.00  0.00    -0.235 OA
BRANCH  12  18
HETATM   18  O1  UNL     1     113.486  52.509  19.704  1.00  0.00    -0.276 OA
ATOM     19  H1  UNL     1     113.194  51.706  20.119  1.00  0.00     0.245 HD
ENDBRANCH  12  18
BRANCH  16  20
HETATM   20  O5  UNL     1     115.659  51.422  16.975  1.00  0.00    -0.307 OA
HETATM   21  C9  UNL     1     115.907  50.191  16.279  1.00  0.00     0.215 C 
ENDBRANCH  16  20
ENDBRANCH   8   9
ENDBRANCH   1   8
BRANCH   7  22
HETATM   22  C6  UNL     1     116.654  57.428  18.540  1.00  0.00     0.200 A 
HETATM   23  N8  UNL     1     115.403  57.622  18.985  1.00  0.00    -0.221 N 
HETATM   24  O3  UNL     1     115.486  58.155  20.174  1.00  0.00    -0.153 OA
ATOM     25  H8  UNL     1     114.543  57.395  18.486  1.00  0.00     0.198 HD
HETATM   26  N9  UNL     1     116.714  58.323  20.536  1.00  0.00    -0.222 N 
HETATM   27  C7  UNL     1     117.493  57.872  19.523  1.00  0.00     0.168 A 
ATOM     28  H9  UNL     1     117.036  58.719  21.418  1.00  0.00     0.198 HD
BRANCH  27  29
HETATM   29  N10 UNL     1     118.780  57.843  19.452  1.00  0.00    -0.381 N 
ATOM     30 2H10 UNL     1     119.380  57.100  19.096  1.00  0.00     0.157 HD
ATOM     31 1H10 UNL     1     119.391  58.601  19.758  1.00  0.00     0.157 HD
ENDBRANCH  27  29
ENDBRANCH   7  22
BRANCH   6  32
HETATM   32  N6  UNL     1     116.974  58.823  15.966  1.00  0.00    -0.232 N 
ATOM     33  H62 UNL     1     117.615  59.501  15.556  1.00  0.00     0.174 HD
ATOM     34  H61 UNL     1     116.110  59.298  16.226  1.00  0.00     0.174 HD
ENDBRANCH   6  32
TORSDOF 7
ENDMDL
MODEL 4
REMARK VINA RESULT: -6.258299213      2.523      4.554
REMARK  7 active torsions:
REMARK  status: ('A' for Active; 'I' for Inactive)
REMARK       I    between atoms: N1_2  and  C2_4 
REMARK       I    between atoms: C2_4  and  N3_9 
REMARK    1  A    between atoms: N2_5  and  O1_7 
REMARK    2  A    between atoms: N3_9  and  O2_10 
REMARK       I    between atoms: N3_9  and  C8_31 
REMARK    3  A    between atoms: O2_10  and  C3_11 
REMARK    4  A    between atoms: C5_16  and  N6_17 
REMARK    5  A    between atoms: N7_20  and  C6_21 
REMARK    6  A    between atoms: C7_27  and  N10_28 
REMARK    7  A    between atoms: C8_31  and  O5_33 
ROOT
HETATM    1  C3  UNL     1     117.868  56.191  17.450  1.00  0.00     0.287 A 
HETATM    2  N4  UNL     1     117.632  54.872  17.361  1.00  0.00    -0.246 N 
ATOM      3  H4  UNL     1     118.016  54.260  16.642  1.00  0.00     0.191 HD
HETATM    4  N5  UNL     1     116.840  54.485  18.327  1.00  0.00    -0.125 N 
HETATM    5  C4  UNL     1     116.318  53.164  18.629  1.00  0.00     0.197 C 
HETATM    6  C5  UNL     1     116.557  55.566  19.051  1.00  0.00     0.704 A 
HETATM    7  N7  UNL     1     117.186  56.623  18.519  1.00  0.00    -0.085 N 
ENDROOT
BRANCH   1   8
HETATM    8  O2  UNL     1     118.673  56.955  16.586  1.00  0.00    -0.172 OA
BRANCH   8   9
HETATM    9  N3  UNL     1     118.209  57.464  15.387  1.00  0.00     0.023 N 
HETATM   10  C2  UNL     1     118.156  56.617  14.244  1.00  0.00     0.729 C 
HETATM   11  N1  UNL     1     118.572  55.261  14.227  1.00  0.00    -0.227 N 
HETATM   12  N2  UNL     1     117.707  57.077  13.100  1.00  0.00    -0.097 N 
HETATM   13  C1  UNL     1     119.983  55.017  14.434  1.00  0.00     0.165 C 
ATOM     14  H1  UNL     1     117.912  54.497  14.078  1.00  0.00     0.177 HD
ATOM     15  H2  UNL     1     117.394  58.046  13.059  1.00  0.00     0.213 HD
HETATM   16  C8  UNL     1     117.783  58.808  15.254  1.00  0.00     0.406 C 
HETATM   17  O4  UNL     1     117.831  59.555  16.255  1.00  0.00    -0.235 OA
BRANCH  12  18
HETATM   18  O1  UNL     1     117.638  56.333  11.975  1.00  0.00    -0.276 OA
ATOM     19  H1  UNL     1     116.822  56.125  11.536  1.00  0.00     0.245 HD
ENDBRANCH  12  18
BRANCH  16  20
HETATM   20  O5  UNL     1     117.320  59.315  14.061  1.00  0.00    -0.307 OA
HETATM   21  C9  UNL     1     118.088  60.250  13.287  1.00  0.00     0.215 C 
ENDBRANCH  16  20
ENDBRANCH   8   9
ENDBRANCH   1   8
BRANCH   7  22
HETATM   22  C6  UNL     1     117.119  57.974  19.020  1.00  0.00     0.200 A 
HETATM   23  N8  UNL     1     116.320  58.977  18.624  1.00  0.00    -0.221 N 
HETATM   24  O3  UNL     1     116.601  60.019  19.357  1.00  0.00    -0.153 OA
ATOM     25  H8  UNL     1     115.620  58.933  17.883  1.00  0.00     0.198 HD
HETATM   26  N9  UNL     1     117.535  59.762  20.211  1.00  0.00    -0.222 N 
HETATM   27  C7  UNL     1     117.896  58.469  20.031  1.00  0.00     0.168 A 
ATOM     28  H9  UNL     1     117.928  60.411  20.892  1.00  0.00     0.198 HD
BRANCH  27  29
HETATM   29  N10 UNL     1     118.789  57.788  20.665  1.00  0.00    -0.381 N 
ATOM     30 2H10 UNL     1     118.982  56.789  20.610  1.00  0.00     0.157 HD
ATOM     31 1H10 UNL     1     119.449  58.185  21.333  1.00  0.00     0.157 HD
ENDBRANCH  27  29
ENDBRANCH   7  22
BRANCH   6  32
HETATM   32  N6  UNL     1     115.785  55.590  20.119  1.00  0.00    -0.232 N 
ATOM     33  H62 UNL     1     114.919  56.121  20.213  1.00  0.00     0.174 HD
ATOM     34  H61 UNL     1     115.958  55.082  20.986  1.00  0.00     0.174 HD
ENDBRANCH   6  32
TORSDOF 7
ENDMDL
MODEL 5
REMARK VINA RESULT: -6.249457262      2.331      5.385
REMARK  7 active torsions:
REMARK  status: ('A' for Active; 'I' for Inactive)
REMARK       I    between atoms: N1_2  and  C2_4 
REMARK       I    between atoms: C2_4  and  N3_9 
REMARK    1  A    between atoms: N2_5  and  O1_7 
REMARK    2  A    between atoms: N3_9  and  O2_10 
REMARK       I    between atoms: N3_9  and  C8_31 
REMARK    3  A    between atoms: O2_10  and  C3_11 
REMARK    4  A    between atoms: C5_16  and  N6_17 
REMARK    5  A    between atoms: N7_20  and  C6_21 
REMARK    6  A    between atoms: C7_27  and  N10_28 
REMARK    7  A    between atoms: C8_31  and  O5_33 
ROOT
HETATM    1  C3  UNL     1     116.771  55.340  19.197  1.00  0.00     0.287 A 
HETATM    2  N4  UNL     1     116.017  55.963  20.117  1.00  0.00    -0.246 N 
ATOM      3  H4  UNL     1     116.167  56.917  20.444  1.00  0.00     0.191 HD
HETATM    4  N5  UNL     1     115.062  55.172  20.534  1.00  0.00    -0.125 N 
HETATM    5  C4  UNL     1     114.018  55.411  21.514  1.00  0.00     0.197 C 
HETATM    6  C5  UNL     1     115.199  54.022  19.877  1.00  0.00     0.704 A 
HETATM    7  N7  UNL     1     116.250  54.115  19.050  1.00  0.00    -0.085 N 
ENDROOT
BRANCH   1   8
HETATM    8  O2  UNL     1     117.885  55.879  18.527  1.00  0.00    -0.172 OA
BRANCH   8   9
HETATM    9  N3  UNL     1     118.125  57.239  18.453  1.00  0.00     0.023 N 
HETATM   10  C2  UNL     1     118.065  57.889  17.187  1.00  0.00     0.729 C 
HETATM   11  N1  UNL     1     117.792  57.235  15.959  1.00  0.00    -0.227 N 
HETATM   12  N2  UNL     1     118.278  59.180  17.097  1.00  0.00    -0.097 N 
HETATM   13  C1  UNL     1     118.779  56.280  15.503  1.00  0.00     0.165 C 
ATOM     14  H1  UNL     1     116.945  57.427  15.424  1.00  0.00     0.177 HD
ATOM     15  H2  UNL     1     118.478  59.698  17.953  1.00  0.00     0.213 HD
HETATM   16  C8  UNL     1     118.434  58.012  19.597  1.00  0.00     0.406 C 
HETATM   17  O4  UNL     1     118.490  57.444  20.710  1.00  0.00    -0.235 OA
BRANCH  12  18
HETATM   18  O1  UNL     1     118.246  59.859  15.930  1.00  0.00    -0.276 OA
ATOM     19  H1  UNL     1     118.000  60.774  15.865  1.00  0.00     0.245 HD
ENDBRANCH  12  18
BRANCH  16  20
HETATM   20  O5  UNL     1     118.673  59.366  19.525  1.00  0.00    -0.307 OA
HETATM   21  C9  UNL     1     118.204  60.273  20.535  1.00  0.00     0.215 C 
ENDBRANCH  16  20
ENDBRANCH   8   9
ENDBRANCH   1   8
BRANCH   7  22
HETATM   22  C6  UNL     1     116.719  53.069  18.175  1.00  0.00     0.200 A 
HETATM   23  N8  UNL     1     117.201  51.859  18.499  1.00  0.00    -0.221 N 
HETATM   24  O3  UNL     1     117.500  51.243  17.388  1.00  0.00    -0.153 OA
ATOM     25  H8  UNL     1     117.314  51.487  19.442  1.00  0.00     0.198 HD
HETATM   26  N9  UNL     1     117.244  51.974  16.355  1.00  0.00    -0.222 N 
HETATM   27  C7  UNL     1     116.744  53.148  16.811  1.00  0.00     0.168 A 
ATOM     28  H9  UNL     1     117.391  51.716  15.379  1.00  0.00     0.198 HD
BRANCH  27  29
HETATM   29  N10 UNL     1     116.351  54.171  16.132  1.00  0.00    -0.381 N 
ATOM     30 2H10 UNL     1     116.647  55.143  16.219  1.00  0.00     0.157 HD
ATOM     31 1H10 UNL     1     115.661  54.134  15.382  1.00  0.00     0.157 HD
ENDBRANCH  27  29
ENDBRANCH   7  22
BRANCH   6  32
HETATM   32  N6  UNL     1     114.424  52.964  20.018  1.00  0.00    -0.232 N 
ATOM     33  H62 UNL     1     114.460  52.301  20.792  1.00  0.00     0.174 HD
ATOM     34  H61 UNL     1     113.693  52.676  19.368  1.00  0.00     0.174 HD
ENDBRANCH   6  32
TORSDOF 7
ENDMDL
