MODEL 1
REMARK VINA RESULT: -6.212042975      0.000      0.000
REMARK  10 active torsions:
REMARK  status: ('A' for Active; 'I' for Inactive)
REMARK    1  A    between atoms: C2_2  and  N1_4 
REMARK    2  A    between atoms: N1_4  and  O1_6 
REMARK    3  A    between atoms: O1_6  and  C4_7 
REMARK    4  A    between atoms: C4_7  and  C5_9 
REMARK    5  A    between atoms: C6_12  and  C7_13 
REMARK    6  A    between atoms: C7_13  and  O4_15 
REMARK    7  A    between atoms: C9_17  and  C10_18 
REMARK    8  A    between atoms: C10_18  and  O6_20 
REMARK       I    between atoms: N3_22  and  C12_23 
REMARK       I    between atoms: C12_23  and  N5_28 
REMARK    9  A    between atoms: N4_24  and  O7_26 
REMARK   10  A    between atoms: N5_28  and  N6_30 
ROOT
HETATM    1  C5  UNL     1     115.935  56.787  18.716  1.00  0.00     0.311 C 
HETATM    2  N2  UNL     1     116.437  57.842  17.868  1.00  0.00    -0.353 N 
ATOM      3  H2  UNL     1     116.161  58.046  16.907  1.00  0.00     0.162 HD
HETATM    4  C6  UNL     1     117.414  58.552  18.667  1.00  0.00     0.140 C 
HETATM    5  C9  UNL     1     117.103  58.340  19.923  1.00  0.00     0.162 C 
HETATM    6  N3  UNL     1     115.928  57.488  19.981  1.00  0.00    -0.140 N 
HETATM    7  C12 UNL     1     115.038  57.430  21.068  1.00  0.00     0.721 C 
HETATM    8  N4  UNL     1     114.317  58.462  21.347  1.00  0.00    -0.097 N 
ATOM      9  H4  UNL     1     114.425  59.289  20.759  1.00  0.00     0.213 HD
HETATM   10  N5  UNL     1     114.870  56.295  21.897  1.00  0.00    -0.137 N 
ATOM     11  H5  UNL     1     115.516  56.096  22.661  1.00  0.00     0.205 HD
ENDROOT
BRANCH   1  12
HETATM   12  C4  UNL     1     116.936  55.693  18.689  1.00  0.00     0.324 C 
HETATM   13  O2  UNL     1     117.626  55.423  17.669  1.00  0.00    -0.259 OA
BRANCH  12  14
HETATM   14  O1  UNL     1     117.174  54.890  19.818  1.00  0.00    -0.196 OA
BRANCH  14  15
HETATM   15  N1  UNL     1     116.323  53.886  20.143  1.00  0.00    -0.263 N 
ATOM     16  H1  UNL     1     116.041  53.804  21.119  1.00  0.00     0.194 HD
BRANCH  15  17
HETATM   17  C2  UNL     1     115.797  52.943  19.228  1.00  0.00     0.019 C 
HETATM   18  C1  UNL     1     114.489  52.797  19.157  1.00  0.00     0.039 C 
HETATM   19  C3  UNL     1     116.682  52.135  18.365  1.00  0.00     0.069 C 
ENDBRANCH  15  17
ENDBRANCH  14  15
ENDBRANCH  12  14
ENDBRANCH   1  12
BRANCH   5  20
HETATM   20  C10 UNL     1     117.746  58.814  21.135  1.00  0.00     0.313 C 
HETATM   21  O5  UNL     1     117.220  59.782  21.802  1.00  0.00    -0.258 OA
BRANCH  20  22
HETATM   22  O6  UNL     1     118.906  58.342  21.701  1.00  0.00    -0.321 OA
HETATM   23  C11 UNL     1     120.103  59.084  21.787  1.00  0.00     0.213 C 
ENDBRANCH  20  22
ENDBRANCH   5  20
BRANCH   4  24
HETATM   24  C7  UNL     1     118.483  59.321  18.059  1.00  0.00     0.311 C 
HETATM   25  O3  UNL     1     119.111  58.865  17.043  1.00  0.00    -0.258 OA
BRANCH  24  26
HETATM   26  O4  UNL     1     118.921  60.550  18.474  1.00  0.00    -0.321 OA
HETATM   27  C8  UNL     1     120.266  60.948  18.568  1.00  0.00     0.213 C 
ENDBRANCH  24  26
ENDBRANCH   4  24
BRANCH   8  28
HETATM   28  O7  UNL     1     113.422  58.523  22.373  1.00  0.00    -0.276 OA
ATOM     29  H7  UNL     1     113.416  59.197  23.041  1.00  0.00     0.245 HD
ENDBRANCH   8  28
BRANCH  10  30
HETATM   30  N6  UNL     1     113.784  55.456  21.628  1.00  0.00    -0.331 N 
ATOM     31  H62 UNL     1     113.098  55.713  20.918  1.00  0.00     0.177 HD
ATOM     32  H61 UNL     1     113.713  54.593  22.166  1.00  0.00     0.177 HD
ENDBRANCH  10  30
TORSDOF 10
ENDMDL
MODEL 2
REMARK VINA RESULT: -6.161861972      0.893      1.193
REMARK  10 active torsions:
REMARK  status: ('A' for Active; 'I' for Inactive)
REMARK    1  A    between atoms: C2_2  and  N1_4 
REMARK    2  A    between atoms: N1_4  and  O1_6 
REMARK    3  A    between atoms: O1_6  and  C4_7 
REMARK    4  A    between atoms: C4_7  and  C5_9 
REMARK    5  A    between atoms: C6_12  and  C7_13 
REMARK    6  A    between atoms: C7_13  and  O4_15 
REMARK    7  A    between atoms: C9_17  and  C10_18 
REMARK    8  A    between atoms: C10_18  and  O6_20 
REMARK       I    between atoms: N3_22  and  C12_23 
REMARK       I    between atoms: C12_23  and  N5_28 
REMARK    9  A    between atoms: N4_24  and  O7_26 
REMARK   10  A    between atoms: N5_28  and  N6_30 
ROOT
HETATM    1  C5  UNL     1     115.891  56.826  18.650  1.00  0.00     0.311 C 
HETATM    2  N2  UNL     1     116.306  57.778  17.646  1.00  0.00    -0.353 N 
ATOM      3  H2  UNL     1     116.042  57.790  16.660  1.00  0.00     0.162 HD
HETATM    4  C6  UNL     1     117.173  58.713  18.331  1.00  0.00     0.140 C 
HETATM    5  C9  UNL     1     116.844  58.676  19.600  1.00  0.00     0.162 C 
HETATM    6  N3  UNL     1     115.765  57.720  19.780  1.00  0.00    -0.140 N 
HETATM    7  C12 UNL     1     114.850  57.741  20.847  1.00  0.00     0.721 C 
HETATM    8  N4  UNL     1     114.014  58.717  20.939  1.00  0.00    -0.097 N 
ATOM      9  H4  UNL     1     114.052  59.444  20.224  1.00  0.00     0.213 HD
HETATM   10  N5  UNL     1     114.777  56.745  21.851  1.00  0.00    -0.137 N 
ATOM     11  H5  UNL     1     115.414  56.748  22.648  1.00  0.00     0.205 HD
ENDROOT
BRANCH   1  12
HETATM   12  C4  UNL     1     117.005  55.862  18.821  1.00  0.00     0.324 C 
HETATM   13  O2  UNL     1     117.808  55.572  17.892  1.00  0.00    -0.259 OA
BRANCH  12  14
HETATM   14  O1  UNL     1     117.228  55.211  20.047  1.00  0.00    -0.196 OA
BRANCH  14  15
HETATM   15  N1  UNL     1     116.490  54.129  20.399  1.00  0.00    -0.263 N 
ATOM     16  H1  UNL     1     116.357  53.953  21.394  1.00  0.00     0.194 HD
BRANCH  15  17
HETATM   17  C2  UNL     1     115.891  53.227  19.488  1.00  0.00     0.019 C 
HETATM   18  C1  UNL     1     114.575  53.158  19.444  1.00  0.00     0.039 C 
HETATM   19  C3  UNL     1     116.709  52.378  18.600  1.00  0.00     0.069 C 
ENDBRANCH  15  17
ENDBRANCH  14  15
ENDBRANCH  12  14
ENDBRANCH   1  12
BRANCH   5  20
HETATM   20  C10 UNL     1     117.390  59.410  20.726  1.00  0.00     0.313 C 
HETATM   21  O5  UNL     1     118.500  59.033  21.259  1.00  0.00    -0.258 OA
BRANCH  20  22
HETATM   22  O6  UNL     1     116.853  60.519  21.337  1.00  0.00    -0.321 OA
HETATM   23  C11 UNL     1     116.803  60.705  22.734  1.00  0.00     0.213 C 
ENDBRANCH  20  22
ENDBRANCH   5  20
BRANCH   4  24
HETATM   24  C7  UNL     1     118.173  59.488  17.621  1.00  0.00     0.311 C 
HETATM   25  O3  UNL     1     118.029  59.743  16.377  1.00  0.00    -0.258 OA
BRANCH  24  26
HETATM   26  O4  UNL     1     119.319  60.004  18.163  1.00  0.00    -0.321 OA
HETATM   27  C8  UNL     1     120.514  59.294  18.376  1.00  0.00     0.213 C 
ENDBRANCH  24  26
ENDBRANCH   4  24
BRANCH   8  28
HETATM   28  O7  UNL     1     113.083  58.845  21.926  1.00  0.00    -0.276 OA
ATOM     29  H7  UNL     1     112.684  59.667  22.186  1.00  0.00     0.245 HD
ENDBRANCH   8  28
BRANCH  10  30
HETATM   30  N6  UNL     1     113.797  55.758  21.707  1.00  0.00    -0.331 N 
ATOM     31  H62 UNL     1     113.940  54.979  21.065  1.00  0.00     0.177 HD
ATOM     32  H61 UNL     1     112.949  55.853  22.265  1.00  0.00     0.177 HD
ENDBRANCH  10  30
TORSDOF 10
ENDMDL
MODEL 3
REMARK VINA RESULT: -5.998268409      2.625      5.362
REMARK  10 active torsions:
REMARK  status: ('A' for Active; 'I' for Inactive)
REMARK    1  A    between atoms: C2_2  and  N1_4 
REMARK    2  A    between atoms: N1_4  and  O1_6 
REMARK    3  A    between atoms: O1_6  and  C4_7 
REMARK    4  A    between atoms: C4_7  and  C5_9 
REMARK    5  A    between atoms: C6_12  and  C7_13 
REMARK    6  A    between atoms: C7_13  and  O4_15 
REMARK    7  A    between atoms: C9_17  and  C10_18 
REMARK    8  A    between atoms: C10_18  and  O6_20 
REMARK       I    between atoms: N3_22  and  C12_23 
REMARK       I    between atoms: C12_23  and  N5_28 
REMARK    9  A    between atoms: N4_24  and  O7_26 
REMARK   10  A    between atoms: N5_28  and  N6_30 
ROOT
HETATM    1  C5  UNL     1     117.396  57.479  19.173  1.00  0.00     0.311 C 
HETATM    2  N2  UNL     1     116.301  56.846  19.871  1.00  0.00    -0.353 N 
ATOM      3  H2  UNL     1     116.003  55.873  19.799  1.00  0.00     0.162 HD
HETATM    4  C6  UNL     1     115.715  57.883  20.695  1.00  0.00     0.140 C 
HETATM    5  C9  UNL     1     116.652  58.777  20.903  1.00  0.00     0.162 C 
HETATM    6  N3  UNL     1     117.864  58.358  20.221  1.00  0.00    -0.140 N 
HETATM    7  C12 UNL     1     119.161  58.767  20.577  1.00  0.00     0.721 C 
HETATM    8  N4  UNL     1     119.653  58.389  21.707  1.00  0.00    -0.097 N 
ATOM      9  H4  UNL     1     119.072  57.800  22.304  1.00  0.00     0.213 HD
HETATM   10  N5  UNL     1     119.988  59.583  19.767  1.00  0.00    -0.137 N 
ATOM     11  H5  UNL     1     119.878  60.597  19.750  1.00  0.00     0.205 HD
ENDROOT
BRANCH   1  12
HETATM   12  C4  UNL     1     116.811  58.228  18.035  1.00  0.00     0.324 C 
HETATM   13  O2  UNL     1     115.726  57.898  17.484  1.00  0.00    -0.259 OA
BRANCH  12  14
HETATM   14  O1  UNL     1     117.446  59.364  17.502  1.00  0.00    -0.196 OA
BRANCH  14  15
HETATM   15  N1  UNL     1     118.464  59.236  16.616  1.00  0.00    -0.263 N 
ATOM     16  H1  UNL     1     119.292  59.811  16.762  1.00  0.00     0.194 HD
BRANCH  15  17
HETATM   17  C2  UNL     1     118.462  58.361  15.504  1.00  0.00     0.019 C 
HETATM   18  C1  UNL     1     117.733  58.682  14.453  1.00  0.00     0.039 C 
HETATM   19  C3  UNL     1     119.253  57.114  15.506  1.00  0.00     0.069 C 
ENDBRANCH  15  17
ENDBRANCH  14  15
ENDBRANCH  12  14
ENDBRANCH   1  12
BRANCH   5  20
HETATM   20  C10 UNL     1     116.607  60.015  21.659  1.00  0.00     0.313 C 
HETATM   21  O5  UNL     1     115.992  60.052  22.791  1.00  0.00    -0.258 OA
BRANCH  20  22
HETATM   22  O6  UNL     1     117.163  61.223  21.314  1.00  0.00    -0.321 OA
HETATM   23  C11 UNL     1     118.046  61.952  22.137  1.00  0.00     0.213 C 
ENDBRANCH  20  22
ENDBRANCH   5  20
BRANCH   4  24
HETATM   24  C7  UNL     1     114.337  57.814  21.142  1.00  0.00     0.311 C 
HETATM   25  O3  UNL     1     113.487  58.684  20.751  1.00  0.00    -0.258 OA
BRANCH  24  26
HETATM   26  O4  UNL     1     113.815  56.869  21.984  1.00  0.00    -0.321 OA
HETATM   27  C8  UNL     1     113.895  55.477  21.798  1.00  0.00     0.213 C 
ENDBRANCH  24  26
ENDBRANCH   4  24
BRANCH   8  28
HETATM   28  O7  UNL     1     120.895  58.721  22.158  1.00  0.00    -0.276 OA
ATOM     29  H7  UNL     1     121.076  59.085  23.017  1.00  0.00     0.245 HD
ENDBRANCH   8  28
BRANCH  10  30
HETATM   30  N6  UNL     1     120.959  58.944  18.991  1.00  0.00    -0.331 N 
ATOM     31  H62 UNL     1     120.948  57.930  18.883  1.00  0.00     0.177 HD
ATOM     32  H61 UNL     1     121.666  59.530  18.547  1.00  0.00     0.177 HD
ENDBRANCH  10  30
TORSDOF 10
ENDMDL
MODEL 4
REMARK VINA RESULT: -5.892568494      1.157      1.510
REMARK  10 active torsions:
REMARK  status: ('A' for Active; 'I' for Inactive)
REMARK    1  A    between atoms: C2_2  and  N1_4 
REMARK    2  A    between atoms: N1_4  and  O1_6 
REMARK    3  A    between atoms: O1_6  and  C4_7 
REMARK    4  A    between atoms: C4_7  and  C5_9 
REMARK    5  A    between atoms: C6_12  and  C7_13 
REMARK    6  A    between atoms: C7_13  and  O4_15 
REMARK    7  A    between atoms: C9_17  and  C10_18 
REMARK    8  A    between atoms: C10_18  and  O6_20 
REMARK       I    between atoms: N3_22  and  C12_23 
REMARK       I    between atoms: C12_23  and  N5_28 
REMARK    9  A    between atoms: N4_24  and  O7_26 
REMARK   10  A    between atoms: N5_28  and  N6_30 
ROOT
HETATM    1  C5  UNL     1     115.932  56.763  18.626  1.00  0.00     0.311 C 
HETATM    2  N2  UNL     1     116.333  57.625  17.538  1.00  0.00    -0.353 N 
ATOM      3  H2  UNL     1     116.077  57.538  16.554  1.00  0.00     0.162 HD
HETATM    4  C6  UNL     1     117.176  58.639  18.137  1.00  0.00     0.140 C 
HETATM    5  C9  UNL     1     116.838  58.715  19.402  1.00  0.00     0.162 C 
HETATM    6  N3  UNL     1     115.779  57.756  19.666  1.00  0.00    -0.140 N 
HETATM    7  C12 UNL     1     114.856  57.858  20.721  1.00  0.00     0.721 C 
HETATM    8  N4  UNL     1     113.998  58.821  20.716  1.00  0.00    -0.097 N 
ATOM      9  H4  UNL     1     114.026  59.477  19.936  1.00  0.00     0.213 HD
HETATM   10  N5  UNL     1     114.796  56.960  21.814  1.00  0.00    -0.137 N 
ATOM     11  H5  UNL     1     115.427  57.052  22.610  1.00  0.00     0.205 HD
ENDROOT
BRANCH   1  12
HETATM   12  C4  UNL     1     117.064  55.844  18.893  1.00  0.00     0.324 C 
HETATM   13  O2  UNL     1     117.561  55.686  20.041  1.00  0.00    -0.259 OA
BRANCH  12  14
HETATM   14  O1  UNL     1     117.650  55.086  17.864  1.00  0.00    -0.196 OA
BRANCH  14  15
HETATM   15  N1  UNL     1     116.930  54.148  17.201  1.00  0.00    -0.263 N 
ATOM     16  H1  UNL     1     116.491  54.423  16.323  1.00  0.00     0.194 HD
BRANCH  15  17
HETATM   17  C2  UNL     1     116.743  52.815  17.637  1.00  0.00     0.019 C 
HETATM   18  C1  UNL     1     117.319  51.843  16.956  1.00  0.00     0.039 C 
HETATM   19  C3  UNL     1     115.924  52.504  18.825  1.00  0.00     0.069 C 
ENDBRANCH  15  17
ENDBRANCH  14  15
ENDBRANCH  12  14
ENDBRANCH   1  12
BRANCH   5  20
HETATM   20  C10 UNL     1     117.360  59.564  20.456  1.00  0.00     0.313 C 
HETATM   21  O5  UNL     1     117.102  60.826  20.450  1.00  0.00    -0.258 OA
BRANCH  20  22
HETATM   22  O6  UNL     1     118.137  59.183  21.524  1.00  0.00    -0.321 OA
HETATM   23  C11 UNL     1     119.382  58.530  21.403  1.00  0.00     0.213 C 
ENDBRANCH  20  22
ENDBRANCH   5  20
BRANCH   4  24
HETATM   24  C7  UNL     1     118.164  59.365  17.362  1.00  0.00     0.311 C 
HETATM   25  O3  UNL     1     117.908  59.724  16.162  1.00  0.00    -0.258 OA
BRANCH  24  26
HETATM   26  O4  UNL     1     119.412  59.727  17.794  1.00  0.00    -0.321 OA
HETATM   27  C8  UNL     1     120.533  58.881  17.854  1.00  0.00     0.213 C 
ENDBRANCH  24  26
ENDBRANCH   4  24
BRANCH   8  28
HETATM   28  O7  UNL     1     113.058  59.021  21.682  1.00  0.00    -0.276 OA
ATOM     29  H7  UNL     1     112.574  59.829  21.802  1.00  0.00     0.245 HD
ENDBRANCH   8  28
BRANCH  10  30
HETATM   30  N6  UNL     1     113.838  55.943  21.759  1.00  0.00    -0.331 N 
ATOM     31  H62 UNL     1     113.167  55.908  20.993  1.00  0.00     0.177 HD
ATOM     32  H61 UNL     1     113.844  55.252  22.509  1.00  0.00     0.177 HD
ENDBRANCH  10  30
TORSDOF 10
ENDMDL
MODEL 5
REMARK VINA RESULT: -5.668240982      2.084      6.182
REMARK  10 active torsions:
REMARK  status: ('A' for Active; 'I' for Inactive)
REMARK    1  A    between atoms: C2_2  and  N1_4 
REMARK    2  A    between atoms: N1_4  and  O1_6 
REMARK    3  A    between atoms: O1_6  and  C4_7 
REMARK    4  A    between atoms: C4_7  and  C5_9 
REMARK    5  A    between atoms: C6_12  and  C7_13 
REMARK    6  A    between atoms: C7_13  and  O4_15 
REMARK    7  A    between atoms: C9_17  and  C10_18 
REMARK    8  A    between atoms: C10_18  and  O6_20 
REMARK       I    between atoms: N3_22  and  C12_23 
REMARK       I    between atoms: C12_23  and  N5_28 
REMARK    9  A    between atoms: N4_24  and  O7_26 
REMARK   10  A    between atoms: N5_28  and  N6_30 
ROOT
HETATM    1  C5  UNL     1     116.829  59.305  19.849  1.00  0.00     0.311 C 
HETATM    2  N2  UNL     1     115.466  59.266  20.327  1.00  0.00    -0.353 N 
ATOM      3  H2  UNL     1     114.821  60.052  20.418  1.00  0.00     0.162 HD
HETATM    4  C6  UNL     1     115.208  57.879  20.652  1.00  0.00     0.140 C 
HETATM    5  C9  UNL     1     116.037  57.161  19.934  1.00  0.00     0.162 C 
HETATM    6  N3  UNL     1     116.859  58.050  19.132  1.00  0.00    -0.140 N 
HETATM    7  C12 UNL     1     117.500  57.681  17.936  1.00  0.00     0.721 C 
HETATM    8  N4  UNL     1     116.785  57.392  16.902  1.00  0.00    -0.097 N 
ATOM      9  H4  UNL     1     115.770  57.444  16.997  1.00  0.00     0.213 HD
HETATM   10  N5  UNL     1     118.905  57.604  17.778  1.00  0.00    -0.137 N 
ATOM     11  H5  UNL     1     119.428  56.784  18.087  1.00  0.00     0.205 HD
ENDROOT
BRANCH   1  12
HETATM   12  C4  UNL     1     117.710  59.289  21.042  1.00  0.00     0.324 C 
HETATM   13  O2  UNL     1     117.510  60.022  22.049  1.00  0.00    -0.259 OA
BRANCH  12  14
HETATM   14  O1  UNL     1     118.829  58.442  21.115  1.00  0.00    -0.196 OA
BRANCH  14  15
HETATM   15  N1  UNL     1     119.911  58.788  21.855  1.00  0.00    -0.263 N 
ATOM     16  H1  UNL     1     119.743  59.173  22.784  1.00  0.00     0.194 HD
BRANCH  15  17
HETATM   17  C2  UNL     1     121.255  58.654  21.434  1.00  0.00     0.019 C 
HETATM   18  C1  UNL     1     122.110  58.054  22.238  1.00  0.00     0.039 C 
HETATM   19  C3  UNL     1     121.704  59.170  20.125  1.00  0.00     0.069 C 
ENDBRANCH  15  17
ENDBRANCH  14  15
ENDBRANCH  12  14
ENDBRANCH   1  12
BRANCH   5  20
HETATM   20  C10 UNL     1     116.206  55.721  19.868  1.00  0.00     0.313 C 
HETATM   21  O5  UNL     1     117.222  55.168  20.435  1.00  0.00    -0.258 OA
BRANCH  20  22
HETATM   22  O6  UNL     1     115.381  54.814  19.247  1.00  0.00    -0.321 OA
HETATM   23  C11 UNL     1     115.541  53.414  19.327  1.00  0.00     0.213 C 
ENDBRANCH  20  22
ENDBRANCH   5  20
BRANCH   4  24
HETATM   24  C7  UNL     1     114.185  57.497  21.607  1.00  0.00     0.311 C 
HETATM   25  O3  UNL     1     113.901  58.263  22.590  1.00  0.00    -0.258 OA
BRANCH  24  26
HETATM   26  O4  UNL     1     113.449  56.343  21.574  1.00  0.00    -0.321 OA
HETATM   27  C8  UNL     1     113.841  55.109  22.122  1.00  0.00     0.213 C 
ENDBRANCH  24  26
ENDBRANCH   4  24
BRANCH   8  28
HETATM   28  O7  UNL     1     117.292  57.023  15.692  1.00  0.00    -0.276 OA
ATOM     29  H7  UNL     1     118.053  57.420  15.285  1.00  0.00     0.245 HD
ENDBRANCH   8  28
BRANCH  10  30
HETATM   30  N6  UNL     1     119.547  58.693  17.181  1.00  0.00    -0.331 N 
ATOM     31  H62 UNL     1     119.192  59.086  16.310  1.00  0.00     0.177 HD
ATOM     32  H61 UNL     1     120.370  59.068  17.652  1.00  0.00     0.177 HD
ENDBRANCH  10  30
TORSDOF 10
ENDMDL
