MODEL 1
REMARK VINA RESULT: -6.714893427      0.000      0.000
REMARK  7 active torsions:
REMARK  status: ('A' for Active; 'I' for Inactive)
REMARK    1  A    between atoms: O1_2  and  C2_3 
REMARK    2  A    between atoms: C2_3  and  S1_4 
REMARK    3  A    between atoms: S1_4  and  C3_5 
REMARK    4  A    between atoms: C4_9  and  O2_10 
REMARK    5  A    between atoms: C4_9  and  C6_12 
REMARK    6  A    between atoms: C6_12  and  O4_14 
REMARK    7  A    between atoms: O4_14  and  N2_15 
ROOT
HETATM    1  C3  UNL     1     115.333  56.185  20.731  1.00  0.00     0.324 C 
HETATM    2  N1  UNL     1     115.745  56.970  19.552  1.00  0.00    -0.013 N 
ATOM      3  H11 UNL     1     114.947  57.339  19.036  1.00  0.00     0.283 HD
ATOM      4  H12 UNL     1     116.136  56.382  18.814  1.00  0.00     0.283 HD
HETATM    5  C4  UNL     1     116.679  58.034  19.972  1.00  0.00     0.318 C 
HETATM    6  C7  UNL     1     116.338  58.570  21.340  1.00  0.00     0.087 C 
HETATM    7  C8  UNL     1     114.859  58.475  21.633  1.00  0.00     0.087 C 
HETATM    8  C9  UNL     1     114.411  57.061  21.454  1.00  0.00     0.167 C 
HETATM    9  O5  UNL     1     113.345  56.756  21.911  1.00  0.00    -0.295 OA
ENDROOT
BRANCH   1  10
HETATM   10  S1  UNL     1     114.959  54.526  20.420  1.00  0.00    -0.070 SA
BRANCH  10  11
HETATM   11  C2  UNL     1     115.670  53.623  19.099  1.00  0.00     0.218 C 
HETATM   12  C10 UNL     1     116.668  54.443  18.268  1.00  0.00     0.192 C 
HETATM   13  N3  UNL     1     116.962  53.658  17.085  1.00  0.00    -0.358 N 
HETATM   14  C11 UNL     1     117.209  52.393  17.319  1.00  0.00     0.200 C 
ATOM     15  H3  UNL     1     116.976  54.058  16.147  1.00  0.00     0.162 HD
HETATM   16  N4  UNL     1     117.509  51.545  16.221  1.00  0.00    -0.062 NA
HETATM   17  N5  UNL     1     117.167  51.923  18.664  1.00  0.00    -0.274 N 
HETATM   18  N6  UNL     1     116.504  52.558  19.699  1.00  0.00    -0.086 NA
ATOM     19  H5  UNL     1     117.661  51.057  18.878  1.00  0.00     0.185 HD
BRANCH  11  20
HETATM   20  O1  UNL     1     114.802  52.930  18.260  1.00  0.00    -0.357 OA
HETATM   21  C1  UNL     1     113.735  52.450  19.026  1.00  0.00     0.205 C 
ENDBRANCH  11  20
ENDBRANCH  10  11
ENDBRANCH   1  10
BRANCH   5  22
HETATM   22  O2  UNL     1     117.920  57.490  19.886  1.00  0.00    -0.352 OA
HETATM   23  C5  UNL     1     118.955  58.086  20.528  1.00  0.00     0.205 C 
ENDBRANCH   5  22
BRANCH   5  24
HETATM   24  C6  UNL     1     116.503  59.155  19.019  1.00  0.00     0.344 C 
HETATM   25  O3  UNL     1     116.235  60.305  19.446  1.00  0.00    -0.258 OA
BRANCH  24  26
HETATM   26  O4  UNL     1     116.619  59.008  17.646  1.00  0.00    -0.202 OA
BRANCH  26  27
HETATM   27  N2  UNL     1     117.866  58.833  17.099  1.00  0.00    -0.302 N 
ATOM     28  H22 UNL     1     118.244  57.891  16.998  1.00  0.00     0.184 HD
ATOM     29  H21 UNL     1     118.394  59.654  16.802  1.00  0.00     0.184 HD
ENDBRANCH  26  27
ENDBRANCH  24  26
ENDBRANCH   5  24
TORSDOF 7
ENDMDL
MODEL 2
REMARK VINA RESULT: -6.713494330      2.230      6.596
REMARK  7 active torsions:
REMARK  status: ('A' for Active; 'I' for Inactive)
REMARK    1  A    between atoms: O1_2  and  C2_3 
REMARK    2  A    between atoms: C2_3  and  S1_4 
REMARK    3  A    between atoms: S1_4  and  C3_5 
REMARK    4  A    between atoms: C4_9  and  O2_10 
REMARK    5  A    between atoms: C4_9  and  C6_12 
REMARK    6  A    between atoms: C6_12  and  O4_14 
REMARK    7  A    between atoms: O4_14  and  N2_15 
ROOT
HETATM    1  C3  UNL     1     115.883  53.772  18.886  1.00  0.00     0.324 C 
HETATM    2  N1  UNL     1     116.681  52.781  18.139  1.00  0.00    -0.013 N 
ATOM      3  H11 UNL     1     116.891  51.955  18.699  1.00  0.00     0.283 HD
ATOM      4  H12 UNL     1     117.638  53.096  17.980  1.00  0.00     0.283 HD
HETATM    5  C4  UNL     1     115.988  52.441  16.880  1.00  0.00     0.318 C 
HETATM    6  C7  UNL     1     114.489  52.455  17.044  1.00  0.00     0.087 C 
HETATM    7  C8  UNL     1     114.070  52.097  18.450  1.00  0.00     0.087 C 
HETATM    8  C9  UNL     1     114.751  53.011  19.416  1.00  0.00     0.167 C 
HETATM    9  O5  UNL     1     114.324  53.052  20.536  1.00  0.00    -0.295 OA
ENDROOT
BRANCH   1  10
HETATM   10  S1  UNL     1     116.793  54.858  19.874  1.00  0.00    -0.070 SA
BRANCH  10  11
HETATM   11  C2  UNL     1     116.614  56.598  19.789  1.00  0.00     0.218 C 
HETATM   12  C10 UNL     1     115.380  57.120  20.541  1.00  0.00     0.192 C 
HETATM   13  N3  UNL     1     115.226  58.511  20.164  1.00  0.00    -0.358 N 
HETATM   14  C11 UNL     1     116.336  59.209  20.190  1.00  0.00     0.200 C 
ATOM     15  H3  UNL     1     114.328  58.916  19.900  1.00  0.00     0.162 HD
HETATM   16  N4  UNL     1     116.284  60.582  19.837  1.00  0.00    -0.062 NA
HETATM   17  N5  UNL     1     117.545  58.558  20.572  1.00  0.00    -0.274 N 
HETATM   18  N6  UNL     1     117.751  57.190  20.528  1.00  0.00    -0.086 NA
ATOM     19  H5  UNL     1     118.314  59.143  20.901  1.00  0.00     0.185 HD
BRANCH  11  20
HETATM   20  O1  UNL     1     116.693  57.187  18.530  1.00  0.00    -0.357 OA
HETATM   21  C1  UNL     1     117.840  56.708  17.890  1.00  0.00     0.205 C 
ENDBRANCH  11  20
ENDBRANCH  10  11
ENDBRANCH   1  10
BRANCH   5  22
HETATM   22  O2  UNL     1     116.450  53.321  15.956  1.00  0.00    -0.352 OA
HETATM   23  C5  UNL     1     117.748  53.711  15.998  1.00  0.00     0.205 C 
ENDBRANCH   5  22
BRANCH   5  24
HETATM   24  C6  UNL     1     116.367  51.047  16.548  1.00  0.00     0.344 C 
HETATM   25  O3  UNL     1     117.578  50.731  16.454  1.00  0.00    -0.258 OA
BRANCH  24  26
HETATM   26  O4  UNL     1     115.439  50.041  16.330  1.00  0.00    -0.202 OA
BRANCH  26  27
HETATM   27  N2  UNL     1     115.681  49.115  15.346  1.00  0.00    -0.302 N 
ATOM     28  H22 UNL     1     116.555  49.156  14.821  1.00  0.00     0.184 HD
ATOM     29  H21 UNL     1     114.979  48.398  15.158  1.00  0.00     0.184 HD
ENDBRANCH  26  27
ENDBRANCH  24  26
ENDBRANCH   5  24
TORSDOF 7
ENDMDL
MODEL 3
REMARK VINA RESULT: -6.619871987      2.063      6.210
REMARK  7 active torsions:
REMARK  status: ('A' for Active; 'I' for Inactive)
REMARK    1  A    between atoms: O1_2  and  C2_3 
REMARK    2  A    between atoms: C2_3  and  S1_4 
REMARK    3  A    between atoms: S1_4  and  C3_5 
REMARK    4  A    between atoms: C4_9  and  O2_10 
REMARK    5  A    between atoms: C4_9  and  C6_12 
REMARK    6  A    between atoms: C6_12  and  O4_14 
REMARK    7  A    between atoms: O4_14  and  N2_15 
ROOT
HETATM    1  C3  UNL     1     115.763  53.607  18.997  1.00  0.00     0.324 C 
HETATM    2  N1  UNL     1     116.834  52.910  18.259  1.00  0.00    -0.013 N 
ATOM      3  H11 UNL     1     117.129  52.054  18.728  1.00  0.00     0.283 HD
ATOM      4  H12 UNL     1     117.721  53.412  18.300  1.00  0.00     0.283 HD
HETATM    5  C4  UNL     1     116.393  52.664  16.871  1.00  0.00     0.318 C 
HETATM    6  C7  UNL     1     114.913  52.385  16.793  1.00  0.00     0.087 C 
HETATM    7  C8  UNL     1     114.394  51.732  18.053  1.00  0.00     0.087 C 
HETATM    8  C9  UNL     1     114.746  52.581  19.230  1.00  0.00     0.167 C 
HETATM    9  O5  UNL     1     114.176  52.361  20.262  1.00  0.00    -0.295 OA
ENDROOT
BRANCH   1  10
HETATM   10  S1  UNL     1     116.300  54.660  20.258  1.00  0.00    -0.070 SA
BRANCH  10  11
HETATM   11  C2  UNL     1     116.216  56.405  20.139  1.00  0.00     0.218 C 
HETATM   12  C10 UNL     1     117.537  57.104  20.495  1.00  0.00     0.192 C 
HETATM   13  N3  UNL     1     117.239  58.518  20.604  1.00  0.00    -0.358 N 
HETATM   14  C11 UNL     1     116.502  58.996  19.632  1.00  0.00     0.200 C 
ATOM     15  H3  UNL     1     117.576  59.095  21.375  1.00  0.00     0.162 HD
HETATM   16  N4  UNL     1     116.159  60.373  19.653  1.00  0.00    -0.062 NA
HETATM   17  N5  UNL     1     116.078  58.114  18.596  1.00  0.00    -0.274 N 
HETATM   18  N6  UNL     1     116.017  56.736  18.711  1.00  0.00    -0.086 NA
ATOM     19  H5  UNL     1     115.799  58.528  17.706  1.00  0.00     0.185 HD
BRANCH  11  20
HETATM   20  O1  UNL     1     115.153  57.038  20.778  1.00  0.00    -0.357 OA
HETATM   21  C1  UNL     1     114.420  56.073  21.476  1.00  0.00     0.205 C 
ENDBRANCH  11  20
ENDBRANCH  10  11
ENDBRANCH   1  10
BRANCH   5  22
HETATM   22  O2  UNL     1     116.788  53.753  16.162  1.00  0.00    -0.352 OA
HETATM   23  C5  UNL     1     117.601  54.668  16.744  1.00  0.00     0.205 C 
ENDBRANCH   5  22
BRANCH   5  24
HETATM   24  C6  UNL     1     117.083  51.433  16.418  1.00  0.00     0.344 C 
HETATM   25  O3  UNL     1     116.413  50.442  16.039  1.00  0.00    -0.258 OA
BRANCH  24  26
HETATM   26  O4  UNL     1     118.463  51.306  16.386  1.00  0.00    -0.202 OA
BRANCH  26  27
HETATM   27  N2  UNL     1     119.161  51.888  15.357  1.00  0.00    -0.302 N 
ATOM     28  H22 UNL     1     118.751  52.675  14.853  1.00  0.00     0.184 HD
ATOM     29  H21 UNL     1     120.081  51.520  15.114  1.00  0.00     0.184 HD
ENDBRANCH  26  27
ENDBRANCH  24  26
ENDBRANCH   5  24
TORSDOF 7
ENDMDL
MODEL 4
REMARK VINA RESULT: -6.320606636      2.338      3.180
REMARK  7 active torsions:
REMARK  status: ('A' for Active; 'I' for Inactive)
REMARK    1  A    between atoms: O1_2  and  C2_3 
REMARK    2  A    between atoms: C2_3  and  S1_4 
REMARK    3  A    between atoms: S1_4  and  C3_5 
REMARK    4  A    between atoms: C4_9  and  O2_10 
REMARK    5  A    between atoms: C4_9  and  C6_12 
REMARK    6  A    between atoms: C6_12  and  O4_14 
REMARK    7  A    between atoms: O4_14  and  N2_15 
ROOT
HETATM    1  C3  UNL     1     117.652  56.374  18.674  1.00  0.00     0.324 C 
HETATM    2  N1  UNL     1     116.904  57.105  17.632  1.00  0.00    -0.013 N 
ATOM      3  H11 UNL     1     116.301  57.826  18.026  1.00  0.00     0.283 HD
ATOM      4  H12 UNL     1     116.180  56.529  17.201  1.00  0.00     0.283 HD
HETATM    5  C4  UNL     1     117.851  57.649  16.638  1.00  0.00     0.318 C 
HETATM    6  C7  UNL     1     119.154  58.066  17.274  1.00  0.00     0.087 C 
HETATM    7  C8  UNL     1     118.968  58.508  18.707  1.00  0.00     0.087 C 
HETATM    8  C9  UNL     1     118.288  57.421  19.475  1.00  0.00     0.167 C 
HETATM    9  O5  UNL     1     118.315  57.488  20.672  1.00  0.00    -0.295 OA
ENDROOT
BRANCH   1  10
HETATM   10  S1  UNL     1     116.806  55.056  19.403  1.00  0.00    -0.070 SA
BRANCH  10  11
HETATM   11  C2  UNL     1     116.312  53.633  18.511  1.00  0.00     0.218 C 
HETATM   12  C10 UNL     1     116.768  53.645  17.044  1.00  0.00     0.192 C 
HETATM   13  N3  UNL     1     116.074  52.555  16.388  1.00  0.00    -0.358 N 
HETATM   14  C11 UNL     1     116.081  51.426  17.052  1.00  0.00     0.200 C 
ATOM     15  H3  UNL     1     115.617  52.658  15.482  1.00  0.00     0.162 HD
HETATM   16  N4  UNL     1     115.426  50.301  16.487  1.00  0.00    -0.062 NA
HETATM   17  N5  UNL     1     116.745  51.376  18.312  1.00  0.00    -0.274 N 
HETATM   18  N6  UNL     1     117.034  52.480  19.094  1.00  0.00    -0.086 NA
ATOM     19  H5  UNL     1     117.028  50.460  18.662  1.00  0.00     0.185 HD
BRANCH  11  20
HETATM   20  O1  UNL     1     114.973  53.261  18.593  1.00  0.00    -0.357 OA
HETATM   21  C1  UNL     1     114.519  53.525  19.890  1.00  0.00     0.205 C 
ENDBRANCH  11  20
ENDBRANCH  10  11
ENDBRANCH   1  10
BRANCH   5  22
HETATM   22  O2  UNL     1     117.983  56.687  15.690  1.00  0.00    -0.352 OA
HETATM   23  C5  UNL     1     119.223  56.292  15.309  1.00  0.00     0.205 C 
ENDBRANCH   5  22
BRANCH   5  24
HETATM   24  C6  UNL     1     117.232  58.880  16.091  1.00  0.00     0.344 C 
HETATM   25  O3  UNL     1     116.138  59.290  16.550  1.00  0.00    -0.258 OA
BRANCH  24  26
HETATM   26  O4  UNL     1     117.804  59.627  15.074  1.00  0.00    -0.202 OA
BRANCH  26  27
HETATM   27  N2  UNL     1     117.714  59.171  13.782  1.00  0.00    -0.302 N 
ATOM     28  H22 UNL     1     116.833  58.782  13.447  1.00  0.00     0.184 HD
ATOM     29  H21 UNL     1     118.535  59.231  13.179  1.00  0.00     0.184 HD
ENDBRANCH  26  27
ENDBRANCH  24  26
ENDBRANCH   5  24
TORSDOF 7
ENDMDL
MODEL 5
REMARK VINA RESULT: -6.307545951      2.389      6.566
REMARK  7 active torsions:
REMARK  status: ('A' for Active; 'I' for Inactive)
REMARK    1  A    between atoms: O1_2  and  C2_3 
REMARK    2  A    between atoms: C2_3  and  S1_4 
REMARK    3  A    between atoms: S1_4  and  C3_5 
REMARK    4  A    between atoms: C4_9  and  O2_10 
REMARK    5  A    between atoms: C4_9  and  C6_12 
REMARK    6  A    between atoms: C6_12  and  O4_14 
REMARK    7  A    between atoms: O4_14  and  N2_15 
ROOT
HETATM    1  C3  UNL     1     117.323  55.184  17.849  1.00  0.00     0.324 C 
HETATM    2  N1  UNL     1     116.111  54.657  18.504  1.00  0.00    -0.013 N 
ATOM      3  H11 UNL     1     115.268  54.843  17.962  1.00  0.00     0.283 HD
ATOM      4  H12 UNL     1     115.865  55.184  19.342  1.00  0.00     0.283 HD
HETATM    5  C4  UNL     1     116.290  53.217  18.783  1.00  0.00     0.318 C 
HETATM    6  C7  UNL     1     117.107  52.537  17.714  1.00  0.00     0.087 C 
HETATM    7  C8  UNL     1     116.940  53.199  16.366  1.00  0.00     0.087 C 
HETATM    8  C9  UNL     1     117.268  54.652  16.486  1.00  0.00     0.167 C 
HETATM    9  O5  UNL     1     117.459  55.263  15.472  1.00  0.00    -0.295 OA
ENDROOT
BRANCH   1  10
HETATM   10  S1  UNL     1     117.669  56.848  18.164  1.00  0.00    -0.070 SA
BRANCH  10  11
HETATM   11  C2  UNL     1     116.938  57.737  19.483  1.00  0.00     0.218 C 
HETATM   12  C10 UNL     1     116.833  59.246  19.215  1.00  0.00     0.192 C 
HETATM   13  N3  UNL     1     116.462  59.863  20.473  1.00  0.00    -0.358 N 
HETATM   14  C11 UNL     1     115.492  59.256  21.112  1.00  0.00     0.200 C 
ATOM     15  H3  UNL     1     116.917  60.702  20.833  1.00  0.00     0.162 HD
HETATM   16  N4  UNL     1     115.059  59.789  22.355  1.00  0.00    -0.062 NA
HETATM   17  N5  UNL     1     114.914  58.089  20.533  1.00  0.00    -0.274 N 
HETATM   18  N6  UNL     1     115.528  57.299  19.577  1.00  0.00    -0.086 NA
ATOM     19  H5  UNL     1     113.982  57.817  20.845  1.00  0.00     0.185 HD
BRANCH  11  20
HETATM   20  O1  UNL     1     117.442  57.511  20.761  1.00  0.00    -0.357 OA
HETATM   21  C1  UNL     1     118.811  57.795  20.753  1.00  0.00     0.205 C 
ENDBRANCH  11  20
ENDBRANCH  10  11
ENDBRANCH   1  10
BRANCH   5  22
HETATM   22  O2  UNL     1     116.838  53.148  20.024  1.00  0.00    -0.352 OA
HETATM   23  C5  UNL     1     116.783  54.231  20.837  1.00  0.00     0.205 C 
ENDBRANCH   5  22
BRANCH   5  24
HETATM   24  C6  UNL     1     114.941  52.605  18.742  1.00  0.00     0.344 C 
HETATM   25  O3  UNL     1     114.038  53.025  19.506  1.00  0.00    -0.258 OA
BRANCH  24  26
HETATM   26  O4  UNL     1     114.606  51.566  17.888  1.00  0.00    -0.202 OA
BRANCH  26  27
HETATM   27  N2  UNL     1     114.196  50.371  18.423  1.00  0.00    -0.302 N 
ATOM     28  H22 UNL     1     114.789  49.894  19.102  1.00  0.00     0.184 HD
ATOM     29  H21 UNL     1     113.299  49.981  18.131  1.00  0.00     0.184 HD
ENDBRANCH  26  27
ENDBRANCH  24  26
ENDBRANCH   5  24
TORSDOF 7
ENDMDL
