MODEL 1
REMARK VINA RESULT: -6.169286866      0.000      0.000
REMARK  11 active torsions:
REMARK  status: ('A' for Active; 'I' for Inactive)
REMARK    1  A    between atoms: C2_2  and  C3_3 
REMARK    2  A    between atoms: C3_3  and  C4_4 
REMARK    3  A    between atoms: C4_4  and  O1_5 
REMARK    4  A    between atoms: C6_8  and  O2_9 
REMARK    5  A    between atoms: C8_15  and  O3_16 
REMARK    6  A    between atoms: C9_18  and  C10_19 
REMARK    7  A    between atoms: C10_19  and  O4_20 
REMARK    8  A    between atoms: C11_23  and  C12_24 
REMARK    9  A    between atoms: C11_23  and  C13_27 
REMARK   10  A    between atoms: C12_24  and  O6_25 
REMARK   11  A    between atoms: C13_27  and  O7_28 
ROOT
HETATM    1  C4  UNL     1       7.657 -29.100 -25.647  1.00  0.00     0.112 C 
HETATM    2  C5  UNL     1       8.562 -28.063 -26.153  1.00  0.00     0.087 C 
HETATM    3  C6  UNL     1       8.519 -27.054 -24.982  1.00  0.00     0.142 C 
HETATM    4  C7  UNL     1       9.849 -26.648 -24.445  1.00  0.00     0.279 C 
HETATM    5  N1  UNL     1       9.723 -27.639 -23.366  1.00  0.00    -0.036 N 
ATOM      6  H11 UNL     1       9.931 -27.367 -22.405  1.00  0.00     0.281 HD
ATOM      7  H12 UNL     1      10.395 -28.403 -23.302  1.00  0.00     0.281 HD
HETATM    8  C8  UNL     1       8.366 -27.914 -23.751  1.00  0.00     0.265 C 
HETATM    9  C9  UNL     1       8.093 -29.332 -24.219  1.00  0.00     0.114 C 
ENDROOT
BRANCH   1  10
HETATM   10  C3  UNL     1       7.353 -30.318 -26.434  1.00  0.00     0.145 A 
HETATM   11  O5  UNL     1       6.167 -30.495 -27.080  1.00  0.00    -0.340 OA
HETATM   12  C11 UNL     1       5.361 -31.397 -26.454  1.00  0.00     0.156 A 
HETATM   13  S1  UNL     1       6.802 -31.692 -25.342  1.00  0.00    -0.086 SA
BRANCH  10  14
HETATM   14  C2  UNL     1       8.631 -30.628 -27.212  1.00  0.00     0.048 C 
HETATM   15  C1  UNL     1       9.331 -31.872 -26.941  1.00  0.00     0.009 C 
ENDBRANCH  10  14
BRANCH  12  16
HETATM   16  C12 UNL     1       4.916 -32.650 -27.156  1.00  0.00     0.216 C 
BRANCH  16  17
HETATM   17  O6  UNL     1       4.076 -32.527 -28.220  1.00  0.00    -0.397 OA
ATOM     18  H6  UNL     1       3.355 -33.140 -28.295  1.00  0.00     0.209 HD
ENDBRANCH  16  17
ENDBRANCH  12  16
BRANCH  12  19
HETATM   19  C13 UNL     1       4.123 -30.873 -25.735  1.00  0.00     0.216 C 
BRANCH  19  20
HETATM   20  O7  UNL     1       3.636 -29.824 -26.547  1.00  0.00    -0.397 OA
ATOM     21  H7  UNL     1       3.858 -29.025 -26.084  1.00  0.00     0.209 HD
ENDBRANCH  19  20
ENDBRANCH  12  19
ENDBRANCH   1  10
BRANCH   1  22
HETATM   22  O1  UNL     1       6.391 -28.434 -25.501  1.00  0.00    -0.385 OA
ATOM     23  H1  UNL     1       6.614 -27.534 -25.294  1.00  0.00     0.210 HD
ENDBRANCH   1  22
BRANCH   9  24
HETATM   24  C10 UNL     1       9.268 -30.230 -24.065  1.00  0.00     0.176 C 
BRANCH  24  25
HETATM   25  O4  UNL     1       9.331 -30.661 -22.734  1.00  0.00    -0.400 OA
ATOM     26  H4  UNL     1       8.694 -31.354 -22.609  1.00  0.00     0.209 HD
ENDBRANCH  24  25
ENDBRANCH   9  24
BRANCH   3  27
HETATM   27  O2  UNL     1       7.616 -26.038 -25.143  1.00  0.00    -0.383 OA
ATOM     28  H2  UNL     1       7.873 -25.380 -25.779  1.00  0.00     0.210 HD
ENDBRANCH   3  27
BRANCH   8  29
HETATM   29  O3  UNL     1       7.380 -27.387 -22.918  1.00  0.00    -0.362 OA
ATOM     30  H3  UNL     1       7.162 -28.010 -22.235  1.00  0.00     0.212 HD
ENDBRANCH   8  29
TORSDOF 11
ENDMDL
MODEL 2
REMARK VINA RESULT: -5.583843291      8.600      9.867
REMARK  11 active torsions:
REMARK  status: ('A' for Active; 'I' for Inactive)
REMARK    1  A    between atoms: C2_2  and  C3_3 
REMARK    2  A    between atoms: C3_3  and  C4_4 
REMARK    3  A    between atoms: C4_4  and  O1_5 
REMARK    4  A    between atoms: C6_8  and  O2_9 
REMARK    5  A    between atoms: C8_15  and  O3_16 
REMARK    6  A    between atoms: C9_18  and  C10_19 
REMARK    7  A    between atoms: C10_19  and  O4_20 
REMARK    8  A    between atoms: C11_23  and  C12_24 
REMARK    9  A    between atoms: C11_23  and  C13_27 
REMARK   10  A    between atoms: C12_24  and  O6_25 
REMARK   11  A    between atoms: C13_27  and  O7_28 
ROOT
HETATM    1  C4  UNL     1       4.955 -32.044 -16.879  1.00  0.00     0.112 C 
HETATM    2  C5  UNL     1       5.209 -32.011 -15.435  1.00  0.00     0.087 C 
HETATM    3  C6  UNL     1       6.671 -31.506 -15.417  1.00  0.00     0.142 C 
HETATM    4  C7  UNL     1       6.921 -30.319 -14.552  1.00  0.00     0.279 C 
HETATM    5  N1  UNL     1       6.816 -29.435 -15.721  1.00  0.00    -0.036 N 
ATOM      6  H11 UNL     1       7.520 -28.713 -15.874  1.00  0.00     0.281 HD
ATOM      7  H12 UNL     1       6.077 -28.733 -15.759  1.00  0.00     0.281 HD
HETATM    8  C8  UNL     1       6.761 -30.573 -16.600  1.00  0.00     0.265 C 
HETATM    9  C9  UNL     1       5.477 -30.724 -17.395  1.00  0.00     0.114 C 
ENDROOT
BRANCH   1  10
HETATM   10  C3  UNL     1       3.650 -32.481 -17.429  1.00  0.00     0.145 A 
HETATM   11  O5  UNL     1       2.603 -31.625 -17.593  1.00  0.00    -0.340 OA
HETATM   12  C11 UNL     1       1.624 -31.814 -16.665  1.00  0.00     0.156 A 
HETATM   13  S1  UNL     1       2.617 -33.273 -16.129  1.00  0.00    -0.086 SA
BRANCH  10  14
HETATM   14  C2  UNL     1       3.990 -33.409 -18.593  1.00  0.00     0.048 C 
HETATM   15  C1  UNL     1       3.119 -34.541 -18.863  1.00  0.00     0.009 C 
ENDBRANCH  10  14
BRANCH  12  16
HETATM   16  C12 UNL     1       0.230 -32.194 -17.082  1.00  0.00     0.216 C 
BRANCH  16  17
HETATM   17  O6  UNL     1      -0.383 -31.443 -18.037  1.00  0.00    -0.397 OA
ATOM     18  H6  UNL     1      -0.990 -31.875 -18.626  1.00  0.00     0.209 HD
ENDBRANCH  16  17
ENDBRANCH  12  16
BRANCH  12  19
HETATM   19  C13 UNL     1       1.449 -30.755 -15.582  1.00  0.00     0.216 C 
BRANCH  19  20
HETATM   20  O7  UNL     1       1.114 -29.568 -16.273  1.00  0.00    -0.397 OA
ATOM     21  H7  UNL     1       0.605 -29.055 -15.657  1.00  0.00     0.209 HD
ENDBRANCH  19  20
ENDBRANCH  12  19
ENDBRANCH   1  10
BRANCH   1  22
HETATM   22  O1  UNL     1       5.904 -32.996 -17.390  1.00  0.00    -0.385 OA
ATOM     23  H1  UNL     1       6.327 -32.551 -18.115  1.00  0.00     0.210 HD
ENDBRANCH   1  22
BRANCH   9  24
HETATM   24  C10 UNL     1       4.548 -29.576 -17.221  1.00  0.00     0.176 C 
BRANCH  24  25
HETATM   25  O4  UNL     1       4.951 -28.540 -18.073  1.00  0.00    -0.400 OA
ATOM     26  H4  UNL     1       5.685 -28.843 -18.594  1.00  0.00     0.209 HD
ENDBRANCH  24  25
ENDBRANCH   9  24
BRANCH   3  27
HETATM   27  O2  UNL     1       7.611 -32.498 -15.339  1.00  0.00    -0.383 OA
ATOM     28  H2  UNL     1       7.360 -33.237 -14.797  1.00  0.00     0.210 HD
ENDBRANCH   3  27
BRANCH   8  29
HETATM   29  O3  UNL     1       7.920 -30.833 -17.329  1.00  0.00    -0.362 OA
ATOM     30  H3  UNL     1       8.026 -31.769 -17.450  1.00  0.00     0.212 HD
ENDBRANCH   8  29
TORSDOF 11
ENDMDL
MODEL 3
REMARK VINA RESULT: -5.156523111      1.547      2.128
REMARK  11 active torsions:
REMARK  status: ('A' for Active; 'I' for Inactive)
REMARK    1  A    between atoms: C2_2  and  C3_3 
REMARK    2  A    between atoms: C3_3  and  C4_4 
REMARK    3  A    between atoms: C4_4  and  O1_5 
REMARK    4  A    between atoms: C6_8  and  O2_9 
REMARK    5  A    between atoms: C8_15  and  O3_16 
REMARK    6  A    between atoms: C9_18  and  C10_19 
REMARK    7  A    between atoms: C10_19  and  O4_20 
REMARK    8  A    between atoms: C11_23  and  C12_24 
REMARK    9  A    between atoms: C11_23  and  C13_27 
REMARK   10  A    between atoms: C12_24  and  O6_25 
REMARK   11  A    between atoms: C13_27  and  O7_28 
ROOT
HETATM    1  C4  UNL     1       7.873 -28.695 -24.630  1.00  0.00     0.112 C 
HETATM    2  C5  UNL     1       6.888 -27.610 -24.572  1.00  0.00     0.087 C 
HETATM    3  C6  UNL     1       7.549 -26.683 -23.525  1.00  0.00     0.142 C 
HETATM    4  C7  UNL     1       7.714 -25.264 -23.948  1.00  0.00     0.279 C 
HETATM    5  N1  UNL     1       9.107 -25.533 -24.333  1.00  0.00    -0.036 N 
ATOM      6  H11 UNL     1       9.845 -24.894 -24.036  1.00  0.00     0.281 HD
ATOM      7  H12 UNL     1       9.393 -25.421 -25.306  1.00  0.00     0.281 HD
HETATM    8  C8  UNL     1       9.031 -26.850 -23.760  1.00  0.00     0.265 C 
HETATM    9  C9  UNL     1       9.209 -27.999 -24.735  1.00  0.00     0.114 C 
ENDROOT
BRANCH   1  10
HETATM   10  C3  UNL     1       7.685 -29.867 -25.517  1.00  0.00     0.145 A 
HETATM   11  O5  UNL     1       6.789 -29.872 -26.543  1.00  0.00    -0.340 OA
HETATM   12  C11 UNL     1       5.688 -30.626 -26.271  1.00  0.00     0.156 A 
HETATM   13  S1  UNL     1       6.584 -31.117 -24.735  1.00  0.00    -0.086 SA
BRANCH  10  14
HETATM   14  C2  UNL     1       9.092 -30.386 -25.808  1.00  0.00     0.048 C 
HETATM   15  C1  UNL     1       9.241 -31.650 -26.510  1.00  0.00     0.009 C 
ENDBRANCH  10  14
BRANCH  12  16
HETATM   16  C12 UNL     1       5.334 -31.810 -27.128  1.00  0.00     0.216 C 
BRANCH  16  17
HETATM   17  O6  UNL     1       4.228 -32.533 -26.801  1.00  0.00    -0.397 OA
ATOM     18  H6  UNL     1       3.411 -32.324 -27.238  1.00  0.00     0.209 HD
ENDBRANCH  16  17
ENDBRANCH  12  16
BRANCH  12  19
HETATM   19  C13 UNL     1       4.370 -29.903 -26.013  1.00  0.00     0.216 C 
BRANCH  19  20
HETATM   20  O7  UNL     1       3.906 -29.509 -27.288  1.00  0.00    -0.397 OA
ATOM     21  H7  UNL     1       3.288 -30.181 -27.548  1.00  0.00     0.209 HD
ENDBRANCH  19  20
ENDBRANCH  12  19
ENDBRANCH   1  10
BRANCH   1  22
HETATM   22  O1  UNL     1       7.888 -29.240 -23.300  1.00  0.00    -0.385 OA
ATOM     23  H1  UNL     1       8.781 -29.540 -23.172  1.00  0.00     0.210 HD
ENDBRANCH   1  22
BRANCH   9  24
HETATM   24  C10 UNL     1       9.571 -27.547 -26.105  1.00  0.00     0.176 C 
BRANCH  24  25
HETATM   25  O4  UNL     1      10.822 -26.921 -26.055  1.00  0.00    -0.400 OA
ATOM     26  H4  UNL     1      11.406 -27.361 -26.662  1.00  0.00     0.209 HD
ENDBRANCH  24  25
ENDBRANCH   9  24
BRANCH   3  27
HETATM   27  O2  UNL     1       7.102 -26.866 -22.244  1.00  0.00    -0.383 OA
ATOM     28  H2  UNL     1       6.466 -26.223 -21.954  1.00  0.00     0.210 HD
ENDBRANCH   3  27
BRANCH   8  29
HETATM   29  O3  UNL     1       9.693 -27.022 -22.545  1.00  0.00    -0.362 OA
ATOM     30  H3  UNL     1       9.796 -27.947 -22.358  1.00  0.00     0.212 HD
ENDBRANCH   8  29
TORSDOF 11
ENDMDL
MODEL 4
REMARK VINA RESULT: -5.143516982      1.637      2.408
REMARK  11 active torsions:
REMARK  status: ('A' for Active; 'I' for Inactive)
REMARK    1  A    between atoms: C2_2  and  C3_3 
REMARK    2  A    between atoms: C3_3  and  C4_4 
REMARK    3  A    between atoms: C4_4  and  O1_5 
REMARK    4  A    between atoms: C6_8  and  O2_9 
REMARK    5  A    between atoms: C8_15  and  O3_16 
REMARK    6  A    between atoms: C9_18  and  C10_19 
REMARK    7  A    between atoms: C10_19  and  O4_20 
REMARK    8  A    between atoms: C11_23  and  C12_24 
REMARK    9  A    between atoms: C11_23  and  C13_27 
REMARK   10  A    between atoms: C12_24  and  O6_25 
REMARK   11  A    between atoms: C13_27  and  O7_28 
ROOT
HETATM    1  C4  UNL     1       8.114 -28.708 -25.700  1.00  0.00     0.112 C 
HETATM    2  C5  UNL     1       8.595 -28.946 -24.335  1.00  0.00     0.087 C 
HETATM    3  C6  UNL     1       8.836 -27.493 -23.862  1.00  0.00     0.142 C 
HETATM    4  C7  UNL     1       8.178 -27.128 -22.576  1.00  0.00     0.279 C 
HETATM    5  N1  UNL     1       7.061 -26.518 -23.311  1.00  0.00    -0.036 N 
ATOM      6  H11 UNL     1       6.726 -25.592 -23.044  1.00  0.00     0.281 HD
ATOM      7  H12 UNL     1       6.120 -26.896 -23.204  1.00  0.00     0.281 HD
HETATM    8  C8  UNL     1       7.761 -26.690 -24.555  1.00  0.00     0.265 C 
HETATM    9  C9  UNL     1       7.089 -27.606 -25.562  1.00  0.00     0.114 C 
ENDROOT
BRANCH   1  10
HETATM   10  C3  UNL     1       7.742 -29.826 -26.598  1.00  0.00     0.145 A 
HETATM   11  O5  UNL     1       6.455 -30.251 -26.742  1.00  0.00    -0.340 OA
HETATM   12  C11 UNL     1       6.226 -31.438 -26.116  1.00  0.00     0.156 A 
HETATM   13  S1  UNL     1       8.041 -31.451 -25.791  1.00  0.00    -0.086 SA
BRANCH  10  14
HETATM   14  C2  UNL     1       8.560 -29.613 -27.871  1.00  0.00     0.048 C 
HETATM   15  C1  UNL     1       9.246 -30.751 -28.460  1.00  0.00     0.009 C 
ENDBRANCH  10  14
BRANCH  12  16
HETATM   16  C12 UNL     1       5.776 -32.645 -26.893  1.00  0.00     0.216 C 
BRANCH  16  17
HETATM   17  O6  UNL     1       4.557 -32.604 -27.497  1.00  0.00    -0.397 OA
ATOM     18  H6  UNL     1       4.336 -31.834 -28.008  1.00  0.00     0.209 HD
ENDBRANCH  16  17
ENDBRANCH  12  16
BRANCH  12  19
HETATM   19  C13 UNL     1       5.371 -31.429 -24.852  1.00  0.00     0.216 C 
BRANCH  19  20
HETATM   20  O7  UNL     1       4.081 -31.041 -25.279  1.00  0.00    -0.397 OA
ATOM     21  H7  UNL     1       4.010 -30.121 -25.056  1.00  0.00     0.209 HD
ENDBRANCH  19  20
ENDBRANCH  12  19
ENDBRANCH   1  10
BRANCH   1  22
HETATM   22  O1  UNL     1       9.212 -28.056 -26.361  1.00  0.00    -0.385 OA
ATOM     23  H1  UNL     1       9.947 -28.160 -25.767  1.00  0.00     0.210 HD
ENDBRANCH   1  22
BRANCH   9  24
HETATM   24  C10 UNL     1       5.742 -28.059 -25.126  1.00  0.00     0.176 C 
BRANCH  24  25
HETATM   25  O4  UNL     1       4.935 -28.220 -26.259  1.00  0.00    -0.400 OA
ATOM     26  H4  UNL     1       5.390 -27.859 -27.011  1.00  0.00     0.209 HD
ENDBRANCH  24  25
ENDBRANCH   9  24
BRANCH   3  27
HETATM   27  O2  UNL     1      10.125 -27.056 -24.008  1.00  0.00    -0.383 OA
ATOM     28  H2  UNL     1      10.594 -27.450 -24.735  1.00  0.00     0.210 HD
ENDBRANCH   3  27
BRANCH   8  29
HETATM   29  O3  UNL     1       8.308 -25.534 -25.109  1.00  0.00    -0.362 OA
ATOM     30  H3  UNL     1       7.643 -24.860 -25.180  1.00  0.00     0.212 HD
ENDBRANCH   8  29
TORSDOF 11
ENDMDL
MODEL 5
REMARK VINA RESULT: -5.115246931      1.942      3.353
REMARK  11 active torsions:
REMARK  status: ('A' for Active; 'I' for Inactive)
REMARK    1  A    between atoms: C2_2  and  C3_3 
REMARK    2  A    between atoms: C3_3  and  C4_4 
REMARK    3  A    between atoms: C4_4  and  O1_5 
REMARK    4  A    between atoms: C6_8  and  O2_9 
REMARK    5  A    between atoms: C8_15  and  O3_16 
REMARK    6  A    between atoms: C9_18  and  C10_19 
REMARK    7  A    between atoms: C10_19  and  O4_20 
REMARK    8  A    between atoms: C11_23  and  C12_24 
REMARK    9  A    between atoms: C11_23  and  C13_27 
REMARK   10  A    between atoms: C12_24  and  O6_25 
REMARK   11  A    between atoms: C13_27  and  O7_28 
ROOT
HETATM    1  C4  UNL     1       7.772 -27.923 -25.119  1.00  0.00     0.112 C 
HETATM    2  C5  UNL     1       9.053 -28.065 -24.417  1.00  0.00     0.087 C 
HETATM    3  C6  UNL     1       9.415 -26.579 -24.187  1.00  0.00     0.142 C 
HETATM    4  C7  UNL     1       9.740 -26.216 -22.779  1.00  0.00     0.279 C 
HETATM    5  N1  UNL     1       8.367 -25.730 -22.580  1.00  0.00    -0.036 N 
ATOM      6  H11 UNL     1       8.211 -24.825 -22.137  1.00  0.00     0.281 HD
ATOM      7  H12 UNL     1       7.768 -26.180 -21.887  1.00  0.00     0.281 HD
HETATM    8  C8  UNL     1       8.084 -25.896 -23.980  1.00  0.00     0.265 C 
HETATM    9  C9  UNL     1       7.000 -26.904 -24.314  1.00  0.00     0.114 C 
ENDROOT
BRANCH   1  10
HETATM   10  C3  UNL     1       7.001 -29.104 -25.574  1.00  0.00     0.145 A 
HETATM   11  O5  UNL     1       7.188 -30.347 -25.046  1.00  0.00    -0.340 OA
HETATM   12  C11 UNL     1       7.857 -31.177 -25.892  1.00  0.00     0.156 A 
HETATM   13  S1  UNL     1       7.716 -29.806 -27.117  1.00  0.00    -0.086 SA
BRANCH  10  14
HETATM   14  C2  UNL     1       5.563 -28.614 -25.731  1.00  0.00     0.048 C 
HETATM   15  C1  UNL     1       4.583 -29.503 -26.333  1.00  0.00     0.009 C 
ENDBRANCH  10  14
BRANCH  12  16
HETATM   16  C12 UNL     1       7.224 -32.450 -26.384  1.00  0.00     0.216 C 
BRANCH  16  17
HETATM   17  O6  UNL     1       5.897 -32.642 -26.146  1.00  0.00    -0.397 OA
ATOM     18  H6  UNL     1       5.545 -32.351 -25.313  1.00  0.00     0.209 HD
ENDBRANCH  16  17
ENDBRANCH  12  16
BRANCH  12  19
HETATM   19  C13 UNL     1       9.295 -31.549 -25.544  1.00  0.00     0.216 C 
BRANCH  19  20
HETATM   20  O7  UNL     1       9.368 -31.469 -24.135  1.00  0.00    -0.397 OA
ATOM     21  H7  UNL     1      10.280 -31.627 -23.922  1.00  0.00     0.209 HD
ENDBRANCH  19  20
ENDBRANCH  12  19
ENDBRANCH   1  10
BRANCH   1  22
HETATM   22  O1  UNL     1       8.099 -27.212 -26.325  1.00  0.00    -0.385 OA
ATOM     23  H1  UNL     1       8.530 -26.419 -26.029  1.00  0.00     0.210 HD
ENDBRANCH   1  22
BRANCH   9  24
HETATM   24  C10 UNL     1       6.322 -27.448 -23.108  1.00  0.00     0.176 C 
BRANCH  24  25
HETATM   25  O4  UNL     1       5.570 -26.425 -22.517  1.00  0.00    -0.400 OA
ATOM     26  H4  UNL     1       5.473 -26.614 -21.591  1.00  0.00     0.209 HD
ENDBRANCH  24  25
ENDBRANCH   9  24
BRANCH   3  27
HETATM   27  O2  UNL     1      10.242 -26.044 -25.138  1.00  0.00    -0.383 OA
ATOM     28  H2  UNL     1      10.284 -25.095 -25.134  1.00  0.00     0.210 HD
ENDBRANCH   3  27
BRANCH   8  29
HETATM   29  O3  UNL     1       8.026 -24.723 -24.730  1.00  0.00    -0.362 OA
ATOM     30  H3  UNL     1       8.116 -24.921 -25.655  1.00  0.00     0.212 HD
ENDBRANCH   8  29
TORSDOF 11
ENDMDL
