MODEL 1
REMARK VINA RESULT: -5.757358112      0.000      0.000
REMARK  7 active torsions:
REMARK  status: ('A' for Active; 'I' for Inactive)
REMARK    1  A    between atoms: C2_3  and  C3_4 
REMARK    2  A    between atoms: C3_4  and  N2_5 
REMARK    3  A    between atoms: C3_4  and  N3_9 
REMARK    4  A    between atoms: N4_14  and  C5_15 
REMARK    5  A    between atoms: C6_18  and  N6_19 
REMARK    6  A    between atoms: C8_26  and  C9_27 
REMARK    7  A    between atoms: N9_28  and  N10_30 
ROOT
HETATM    1  C5  UNL     1       2.291 -32.485 -17.861  1.00  0.00     0.146 A 
HETATM    2  N5  UNL     1       1.251 -31.761 -18.405  1.00  0.00    -0.175 N 
ATOM      3  H5  UNL     1       0.422 -32.258 -18.733  1.00  0.00     0.186 HD
HETATM    4  C6  UNL     1       1.295 -30.435 -18.517  1.00  0.00     0.678 A 
HETATM    5  N7  UNL     1       2.366 -29.726 -18.100  1.00  0.00    -0.178 N 
ATOM      6  H7  UNL     1       2.386 -28.710 -18.192  1.00  0.00     0.185 HD
HETATM    7  C7  UNL     1       3.393 -30.379 -17.568  1.00  0.00     0.147 A 
HETATM    8  N8  UNL     1       4.524 -29.676 -17.124  1.00  0.00    -0.081 NA
HETATM    9  C8  UNL     1       3.375 -31.780 -17.437  1.00  0.00     0.068 A 
ENDROOT
BRANCH   1  10
HETATM   10  N4  UNL     1       2.158 -33.894 -17.782  1.00  0.00    -0.257 N 
HETATM   11  C4  UNL     1       2.539 -34.762 -18.747  1.00  0.00     0.132 A 
HETATM   12  C2  UNL     1       2.238 -36.058 -18.375  1.00  0.00     0.089 A 
HETATM   13  N1  UNL     1       1.666 -35.982 -17.170  1.00  0.00    -0.302 N 
HETATM   14  C1  UNL     1       1.154 -37.084 -16.336  1.00  0.00     0.161 C 
HETATM   15  C11 UNL     1       1.629 -34.687 -16.835  1.00  0.00     0.334 A 
HETATM   16  O1  UNL     1       1.148 -34.263 -15.751  1.00  0.00    -0.246 OA
BRANCH  12  17
HETATM   17  C3  UNL     1       2.492 -37.302 -19.133  1.00  0.00     0.429 C 
BRANCH  17  18
HETATM   18  N2  UNL     1       3.735 -37.208 -19.853  1.00  0.00    -0.045 N 
ATOM     19  H23 UNL     1       4.283 -36.399 -19.558  1.00  0.00     0.277 HD
ATOM     20  H22 UNL     1       4.388 -37.942 -19.580  1.00  0.00     0.277 HD
ATOM     21  H21 UNL     1       3.565 -37.206 -20.859  1.00  0.00     0.277 HD
ENDBRANCH  17  18
BRANCH  17  22
HETATM   22  N3  UNL     1       1.442 -37.516 -20.120  1.00  0.00    -0.045 N 
ATOM     23  H33 UNL     1       0.943 -36.653 -20.338  1.00  0.00     0.277 HD
ATOM     24  H32 UNL     1       1.824 -37.707 -21.046  1.00  0.00     0.277 HD
ATOM     25  H31 UNL     1       0.809 -38.254 -19.810  1.00  0.00     0.277 HD
ENDBRANCH  17  22
ENDBRANCH  12  17
ENDBRANCH   1  10
BRANCH   9  26
HETATM   26  C9  UNL     1       4.519 -32.448 -16.852  1.00  0.00     0.126 C 
HETATM   27  N9  UNL     1       5.641 -32.611 -17.439  1.00  0.00    -0.309 N 
ATOM     28  H9  UNL     1       5.768 -32.255 -18.386  1.00  0.00     0.186 HD
BRANCH  27  29
HETATM   29  N10 UNL     1       6.686 -33.261 -16.812  1.00  0.00    -0.276 N 
HETATM   30  C10 UNL     1       7.792 -32.653 -16.603  1.00  0.00     0.215 C 
HETATM   31  N11 UNL     1       7.941 -31.304 -17.020  1.00  0.00    -0.065 NA
HETATM   32  N12 UNL     1       8.899 -33.264 -15.966  1.00  0.00    -0.065 NA
ATOM     33  H10 UNL     1       6.574 -34.230 -16.514  1.00  0.00     0.189 HD
ENDBRANCH  27  29
ENDBRANCH   9  26
BRANCH   4  34
HETATM   34  N6  UNL     1       0.291 -29.807 -19.035  1.00  0.00    -0.234 N 
ATOM     35  H62 UNL     1       0.337 -29.525 -20.014  1.00  0.00     0.174 HD
ATOM     36  H61 UNL     1      -0.526 -29.605 -18.459  1.00  0.00     0.174 HD
ENDBRANCH   4  34
TORSDOF 7
ENDMDL
MODEL 2
REMARK VINA RESULT: -5.537480264      2.717      3.779
REMARK  7 active torsions:
REMARK  status: ('A' for Active; 'I' for Inactive)
REMARK    1  A    between atoms: C2_3  and  C3_4 
REMARK    2  A    between atoms: C3_4  and  N2_5 
REMARK    3  A    between atoms: C3_4  and  N3_9 
REMARK    4  A    between atoms: N4_14  and  C5_15 
REMARK    5  A    between atoms: C6_18  and  N6_19 
REMARK    6  A    between atoms: C8_26  and  C9_27 
REMARK    7  A    between atoms: N9_28  and  N10_30 
ROOT
HETATM    1  C5  UNL     1       5.496 -32.160 -17.554  1.00  0.00     0.146 A 
HETATM    2  N5  UNL     1       5.045 -30.950 -18.037  1.00  0.00    -0.175 N 
ATOM      3  H5  UNL     1       4.412 -30.942 -18.836  1.00  0.00     0.186 HD
HETATM    4  C6  UNL     1       5.412 -29.791 -17.492  1.00  0.00     0.678 A 
HETATM    5  N7  UNL     1       6.248 -29.741 -16.433  1.00  0.00    -0.178 N 
ATOM      6  H7  UNL     1       6.520 -28.846 -16.027  1.00  0.00     0.185 HD
HETATM    7  C7  UNL     1       6.709 -30.881 -15.932  1.00  0.00     0.147 A 
HETATM    8  N8  UNL     1       7.580 -30.869 -14.831  1.00  0.00    -0.081 NA
HETATM    9  C8  UNL     1       6.339 -32.121 -16.486  1.00  0.00     0.068 A 
ENDROOT
BRANCH   1  10
HETATM   10  N4  UNL     1       5.054 -33.344 -18.195  1.00  0.00    -0.257 N 
HETATM   11  C4  UNL     1       3.888 -33.979 -17.932  1.00  0.00     0.132 A 
HETATM   12  C2  UNL     1       3.777 -35.121 -18.701  1.00  0.00     0.089 A 
HETATM   13  N1  UNL     1       4.887 -35.186 -19.443  1.00  0.00    -0.302 N 
HETATM   14  C1  UNL     1       5.262 -36.218 -20.427  1.00  0.00     0.161 C 
HETATM   15  C11 UNL     1       5.632 -34.121 -19.128  1.00  0.00     0.334 A 
HETATM   16  O1  UNL     1       6.752 -33.877 -19.650  1.00  0.00    -0.246 OA
BRANCH  12  17
HETATM   17  C3  UNL     1       2.663 -36.092 -18.726  1.00  0.00     0.429 C 
BRANCH  17  18
HETATM   18  N2  UNL     1       1.562 -35.575 -19.496  1.00  0.00    -0.045 N 
ATOM     19  H23 UNL     1       1.831 -35.387 -20.463  1.00  0.00     0.277 HD
ATOM     20  H22 UNL     1       0.854 -36.288 -19.672  1.00  0.00     0.277 HD
ATOM     21  H21 UNL     1       1.167 -34.750 -19.044  1.00  0.00     0.277 HD
ENDBRANCH  17  18
BRANCH  17  22
HETATM   22  N3  UNL     1       2.167 -36.328 -17.378  1.00  0.00    -0.045 N 
ATOM     23  H33 UNL     1       1.563 -35.571 -17.057  1.00  0.00     0.277 HD
ATOM     24  H32 UNL     1       1.484 -37.086 -17.350  1.00  0.00     0.277 HD
ATOM     25  H31 UNL     1       2.944 -36.493 -16.737  1.00  0.00     0.277 HD
ENDBRANCH  17  22
ENDBRANCH  12  17
ENDBRANCH   1  10
BRANCH   9  26
HETATM   26  C9  UNL     1       6.868 -33.338 -15.906  1.00  0.00     0.126 C 
HETATM   27  N9  UNL     1       7.979 -33.873 -16.234  1.00  0.00    -0.309 N 
ATOM     28  H9  UNL     1       8.555 -33.434 -16.952  1.00  0.00     0.186 HD
BRANCH  27  29
HETATM   29  N10 UNL     1       8.414 -35.038 -15.633  1.00  0.00    -0.276 N 
HETATM   30  C10 UNL     1       9.603 -35.117 -15.164  1.00  0.00     0.215 C 
HETATM   31  N11 UNL     1      10.472 -34.000 -15.265  1.00  0.00    -0.065 NA
HETATM   32  N12 UNL     1      10.108 -36.281 -14.537  1.00  0.00    -0.065 NA
ATOM     33  H10 UNL     1       7.786 -35.839 -15.563  1.00  0.00     0.189 HD
ENDBRANCH  27  29
ENDBRANCH   9  26
BRANCH   4  34
HETATM   34  N6  UNL     1       4.959 -28.686 -17.986  1.00  0.00    -0.234 N 
ATOM     35  H62 UNL     1       5.192 -28.442 -18.949  1.00  0.00     0.174 HD
ATOM     36  H61 UNL     1       4.378 -28.079 -17.407  1.00  0.00     0.174 HD
ENDBRANCH   4  34
TORSDOF 7
ENDMDL
MODEL 3
REMARK VINA RESULT: -5.500358664      2.092      5.120
REMARK  7 active torsions:
REMARK  status: ('A' for Active; 'I' for Inactive)
REMARK    1  A    between atoms: C2_3  and  C3_4 
REMARK    2  A    between atoms: C3_4  and  N2_5 
REMARK    3  A    between atoms: C3_4  and  N3_9 
REMARK    4  A    between atoms: N4_14  and  C5_15 
REMARK    5  A    between atoms: C6_18  and  N6_19 
REMARK    6  A    between atoms: C8_26  and  C9_27 
REMARK    7  A    between atoms: N9_28  and  N10_30 
ROOT
HETATM    1  C5  UNL     1       4.665 -34.542 -18.791  1.00  0.00     0.146 A 
HETATM    2  N5  UNL     1       4.461 -35.380 -19.867  1.00  0.00    -0.175 N 
ATOM      3  H5  UNL     1       3.577 -35.327 -20.374  1.00  0.00     0.186 HD
HETATM    4  C6  UNL     1       5.381 -36.257 -20.265  1.00  0.00     0.678 A 
HETATM    5  N7  UNL     1       6.568 -36.370 -19.632  1.00  0.00    -0.178 N 
ATOM      6  H7  UNL     1       7.264 -37.047 -19.947  1.00  0.00     0.185 HD
HETATM    7  C7  UNL     1       6.812 -35.584 -18.590  1.00  0.00     0.147 A 
HETATM    8  N8  UNL     1       8.035 -35.673 -17.907  1.00  0.00    -0.081 NA
HETATM    9  C8  UNL     1       5.859 -34.648 -18.147  1.00  0.00     0.068 A 
ENDROOT
BRANCH   1  10
HETATM   10  N4  UNL     1       3.630 -33.640 -18.438  1.00  0.00    -0.257 N 
HETATM   11  C4  UNL     1       3.782 -32.302 -18.304  1.00  0.00     0.132 A 
HETATM   12  C2  UNL     1       2.591 -31.719 -17.915  1.00  0.00     0.089 A 
HETATM   13  N1  UNL     1       1.701 -32.711 -17.811  1.00  0.00    -0.302 N 
HETATM   14  C1  UNL     1       0.282 -32.621 -17.421  1.00  0.00     0.161 C 
HETATM   15  C11 UNL     1       2.338 -33.844 -18.127  1.00  0.00     0.334 A 
HETATM   16  O1  UNL     1       1.785 -34.975 -18.130  1.00  0.00    -0.246 OA
BRANCH  12  17
HETATM   17  C3  UNL     1       2.322 -30.287 -17.665  1.00  0.00     0.429 C 
BRANCH  17  18
HETATM   18  N2  UNL     1       1.664 -29.693 -18.799  1.00  0.00    -0.045 N 
ATOM     19  H23 UNL     1       2.108 -29.962 -19.678  1.00  0.00     0.277 HD
ATOM     20  H22 UNL     1       0.744 -30.101 -18.962  1.00  0.00     0.277 HD
ATOM     21  H21 UNL     1       1.616 -28.679 -18.692  1.00  0.00     0.277 HD
ENDBRANCH  17  18
BRANCH  17  22
HETATM   22  N3  UNL     1       3.570 -29.564 -17.467  1.00  0.00    -0.045 N 
ATOM     23  H33 UNL     1       4.094 -29.921 -16.667  1.00  0.00     0.277 HD
ATOM     24  H32 UNL     1       4.251 -29.774 -18.198  1.00  0.00     0.277 HD
ATOM     25  H31 UNL     1       3.391 -28.563 -17.389  1.00  0.00     0.277 HD
ENDBRANCH  17  22
ENDBRANCH  12  17
ENDBRANCH   1  10
BRANCH   9  26
HETATM   26  C9  UNL     1       6.169 -33.812 -17.005  1.00  0.00     0.126 C 
HETATM   27  N9  UNL     1       7.066 -32.905 -16.994  1.00  0.00    -0.309 N 
ATOM     28  H9  UNL     1       7.619 -32.735 -17.834  1.00  0.00     0.186 HD
BRANCH  27  29
HETATM   29  N10 UNL     1       7.303 -32.150 -15.862  1.00  0.00    -0.276 N 
HETATM   30  C10 UNL     1       7.078 -30.890 -15.869  1.00  0.00     0.215 C 
HETATM   31  N11 UNL     1       6.585 -30.271 -17.047  1.00  0.00    -0.065 NA
HETATM   32  N12 UNL     1       7.300 -30.061 -14.742  1.00  0.00    -0.065 NA
ATOM     33  H10 UNL     1       7.657 -32.598 -15.018  1.00  0.00     0.189 HD
ENDBRANCH  27  29
ENDBRANCH   9  26
BRANCH   4  34
HETATM   34  N6  UNL     1       5.136 -37.018 -21.279  1.00  0.00    -0.234 N 
ATOM     35  H62 UNL     1       5.736 -36.952 -22.103  1.00  0.00     0.174 HD
ATOM     36  H61 UNL     1       4.352 -37.670 -21.241  1.00  0.00     0.174 HD
ENDBRANCH   4  34
TORSDOF 7
ENDMDL
MODEL 4
REMARK VINA RESULT: -5.328817998      1.278      1.980
REMARK  7 active torsions:
REMARK  status: ('A' for Active; 'I' for Inactive)
REMARK    1  A    between atoms: C2_3  and  C3_4 
REMARK    2  A    between atoms: C3_4  and  N2_5 
REMARK    3  A    between atoms: C3_4  and  N3_9 
REMARK    4  A    between atoms: N4_14  and  C5_15 
REMARK    5  A    between atoms: C6_18  and  N6_19 
REMARK    6  A    between atoms: C8_26  and  C9_27 
REMARK    7  A    between atoms: N9_28  and  N10_30 
ROOT
HETATM    1  C5  UNL     1       2.438 -32.498 -18.014  1.00  0.00     0.146 A 
HETATM    2  N5  UNL     1       1.399 -31.747 -18.521  1.00  0.00    -0.175 N 
ATOM      3  H5  UNL     1       0.591 -32.227 -18.920  1.00  0.00     0.186 HD
HETATM    4  C6  UNL     1       1.416 -30.416 -18.508  1.00  0.00     0.678 A 
HETATM    5  N7  UNL     1       2.458 -29.728 -17.993  1.00  0.00    -0.178 N 
ATOM      6  H7  UNL     1       2.457 -28.708 -17.990  1.00  0.00     0.185 HD
HETATM    7  C7  UNL     1       3.483 -30.407 -17.492  1.00  0.00     0.147 A 
HETATM    8  N8  UNL     1       4.584 -29.727 -16.949  1.00  0.00    -0.081 NA
HETATM    9  C8  UNL     1       3.493 -31.815 -17.492  1.00  0.00     0.068 A 
ENDROOT
BRANCH   1  10
HETATM   10  N4  UNL     1       2.335 -33.910 -18.071  1.00  0.00    -0.257 N 
HETATM   11  C4  UNL     1       1.434 -34.649 -17.382  1.00  0.00     0.132 A 
HETATM   12  C2  UNL     1       1.625 -35.994 -17.630  1.00  0.00     0.089 A 
HETATM   13  N1  UNL     1       2.653 -36.080 -18.479  1.00  0.00    -0.302 N 
HETATM   14  C1  UNL     1       3.259 -37.296 -19.051  1.00  0.00     0.161 C 
HETATM   15  C11 UNL     1       3.060 -34.831 -18.729  1.00  0.00     0.334 A 
HETATM   16  O1  UNL     1       4.018 -34.553 -19.496  1.00  0.00    -0.246 OA
BRANCH  12  17
HETATM   17  C3  UNL     1       0.856 -37.135 -17.085  1.00  0.00     0.429 C 
BRANCH  17  18
HETATM   18  N2  UNL     1      -0.248 -37.456 -17.951  1.00  0.00    -0.045 N 
ATOM     19  H23 UNL     1      -0.706 -38.325 -17.674  1.00  0.00     0.277 HD
ATOM     20  H22 UNL     1      -1.034 -36.820 -17.816  1.00  0.00     0.277 HD
ATOM     21  H21 UNL     1       0.057 -37.480 -18.924  1.00  0.00     0.277 HD
ENDBRANCH  17  18
BRANCH  17  22
HETATM   22  N3  UNL     1       0.295 -36.792 -15.786  1.00  0.00    -0.045 N 
ATOM     23  H33 UNL     1       0.874 -37.136 -15.019  1.00  0.00     0.277 HD
ATOM     24  H32 UNL     1       0.366 -35.793 -15.592  1.00  0.00     0.277 HD
ATOM     25  H31 UNL     1      -0.667 -37.126 -15.716  1.00  0.00     0.277 HD
ENDBRANCH  17  22
ENDBRANCH  12  17
ENDBRANCH   1  10
BRANCH   9  26
HETATM   26  C9  UNL     1       4.634 -32.512 -16.936  1.00  0.00     0.126 C 
HETATM   27  N9  UNL     1       5.731 -32.715 -17.555  1.00  0.00    -0.309 N 
ATOM     28  H9  UNL     1       5.839 -32.373 -18.510  1.00  0.00     0.186 HD
BRANCH  27  29
HETATM   29  N10 UNL     1       6.775 -33.390 -16.954  1.00  0.00    -0.276 N 
HETATM   30  C10 UNL     1       7.850 -32.771 -16.642  1.00  0.00     0.215 C 
HETATM   31  N11 UNL     1       7.966 -31.383 -16.917  1.00  0.00    -0.065 NA
HETATM   32  N12 UNL     1       8.954 -33.406 -16.024  1.00  0.00    -0.065 NA
ATOM     33  H10 UNL     1       6.688 -34.388 -16.758  1.00  0.00     0.189 HD
ENDBRANCH  27  29
ENDBRANCH   9  26
BRANCH   4  34
HETATM   34  N6  UNL     1       0.414 -29.763 -18.997  1.00  0.00    -0.234 N 
ATOM     35  H62 UNL     1       0.346 -28.759 -18.823  1.00  0.00     0.174 HD
ATOM     36  H61 UNL     1      -0.289 -30.258 -19.546  1.00  0.00     0.174 HD
ENDBRANCH   4  34
TORSDOF 7
ENDMDL
MODEL 5
REMARK VINA RESULT: -5.269902800      1.996      4.784
REMARK  7 active torsions:
REMARK  status: ('A' for Active; 'I' for Inactive)
REMARK    1  A    between atoms: C2_3  and  C3_4 
REMARK    2  A    between atoms: C3_4  and  N2_5 
REMARK    3  A    between atoms: C3_4  and  N3_9 
REMARK    4  A    between atoms: N4_14  and  C5_15 
REMARK    5  A    between atoms: C6_18  and  N6_19 
REMARK    6  A    between atoms: C8_26  and  C9_27 
REMARK    7  A    between atoms: N9_28  and  N10_30 
ROOT
HETATM    1  C5  UNL     1       3.682 -33.858 -18.604  1.00  0.00     0.146 A 
HETATM    2  N5  UNL     1       3.493 -35.128 -19.106  1.00  0.00    -0.175 N 
ATOM      3  H5  UNL     1       2.569 -35.554 -19.036  1.00  0.00     0.186 HD
HETATM    4  C6  UNL     1       4.480 -35.815 -19.678  1.00  0.00     0.678 A 
HETATM    5  N7  UNL     1       5.723 -35.301 -19.798  1.00  0.00    -0.178 N 
ATOM      6  H7  UNL     1       6.469 -35.839 -20.238  1.00  0.00     0.185 HD
HETATM    7  C7  UNL     1       5.954 -34.079 -19.330  1.00  0.00     0.147 A 
HETATM    8  N8  UNL     1       7.233 -33.511 -19.435  1.00  0.00    -0.081 NA
HETATM    9  C8  UNL     1       4.930 -33.329 -18.720  1.00  0.00     0.068 A 
ENDROOT
BRANCH   1  10
HETATM   10  N4  UNL     1       2.575 -33.200 -18.011  1.00  0.00    -0.257 N 
HETATM   11  C4  UNL     1       2.205 -31.924 -18.268  1.00  0.00     0.132 A 
HETATM   12  C2  UNL     1       1.110 -31.577 -17.500  1.00  0.00     0.089 A 
HETATM   13  N1  UNL     1       0.808 -32.651 -16.765  1.00  0.00    -0.302 N 
HETATM   14  C1  UNL     1      -0.275 -32.800 -15.776  1.00  0.00     0.161 C 
HETATM   15  C11 UNL     1       1.690 -33.605 -17.084  1.00  0.00     0.334 A 
HETATM   16  O1  UNL     1       1.687 -34.754 -16.570  1.00  0.00    -0.246 OA
BRANCH  12  17
HETATM   17  C3  UNL     1       0.391 -30.285 -17.478  1.00  0.00     0.429 C 
BRANCH  17  18
HETATM   18  N2  UNL     1       0.718 -29.507 -18.644  1.00  0.00    -0.045 N 
ATOM     19  H23 UNL     1       1.432 -29.960 -19.214  1.00  0.00     0.277 HD
ATOM     20  H22 UNL     1      -0.042 -29.506 -19.325  1.00  0.00     0.277 HD
ATOM     21  H21 UNL     1       0.989 -28.560 -18.376  1.00  0.00     0.277 HD
ENDBRANCH  17  18
BRANCH  17  22
HETATM   22  N3  UNL     1       0.791 -29.503 -16.316  1.00  0.00    -0.045 N 
ATOM     23  H33 UNL     1       0.768 -28.501 -16.507  1.00  0.00     0.277 HD
ATOM     24  H32 UNL     1       0.088 -29.531 -15.578  1.00  0.00     0.277 HD
ATOM     25  H31 UNL     1       1.706 -29.806 -15.983  1.00  0.00     0.277 HD
ENDBRANCH  17  22
ENDBRANCH  12  17
ENDBRANCH   1  10
BRANCH   9  26
HETATM   26  C9  UNL     1       5.230 -32.002 -18.223  1.00  0.00     0.126 C 
HETATM   27  N9  UNL     1       5.726 -31.754 -17.074  1.00  0.00    -0.309 N 
ATOM     28  H9  UNL     1       5.935 -32.525 -16.440  1.00  0.00     0.186 HD
BRANCH  27  29
HETATM   29  N10 UNL     1       5.983 -30.457 -16.673  1.00  0.00    -0.276 N 
HETATM   30  C10 UNL     1       6.880 -30.220 -15.791  1.00  0.00     0.215 C 
HETATM   31  N11 UNL     1       7.610 -31.298 -15.226  1.00  0.00    -0.065 NA
HETATM   32  N12 UNL     1       7.190 -28.915 -15.339  1.00  0.00    -0.065 NA
ATOM     33  H10 UNL     1       5.455 -29.686 -17.081  1.00  0.00     0.189 HD
ENDBRANCH  27  29
ENDBRANCH   9  26
BRANCH   4  34
HETATM   34  N6  UNL     1       4.247 -37.003 -20.131  1.00  0.00    -0.234 N 
ATOM     35  H62 UNL     1       3.630 -37.621 -19.604  1.00  0.00     0.174 HD
ATOM     36  H61 UNL     1       4.682 -37.301 -21.005  1.00  0.00     0.174 HD
ENDBRANCH   4  34
TORSDOF 7
ENDMDL
