MODEL 1
REMARK VINA RESULT: -9.371707162      0.000      0.000
REMARK  11 active torsions:
REMARK  status: ('A' for Active; 'I' for Inactive)
REMARK    1  A    between atoms: C3_3  and  O1_4 
REMARK    2  A    between atoms: C8_11  and  C9_12 
REMARK    3  A    between atoms: C9_12  and  N2_13 
REMARK    4  A    between atoms: N2_13  and  C10_14 
REMARK    5  A    between atoms: N2_13  and  C11_16 
REMARK    6  A    between atoms: C11_16  and  C12_17 
REMARK    7  A    between atoms: C15_20  and  C16_21 
REMARK    8  A    between atoms: C16_21  and  C17_22 
REMARK    9  A    between atoms: C16_21  and  N3_26 
REMARK   10  A    between atoms: C17_22  and  C18_23 
REMARK       I    between atoms: N3_26  and  C21_27 
REMARK   11  A    between atoms: C21_27  and  C22_29 
ROOT
HETATM    1  C12 UNL     1      46.439  10.369   0.896  1.00  0.00     0.004 C 
HETATM    2  C13 UNL     1      46.043  11.087   2.158  1.00  0.00     0.007 C 
HETATM    3  C14 UNL     1      44.997  12.185   1.840  1.00  0.00     0.012 C 
HETATM    4  C15 UNL     1      45.094  12.438   0.396  1.00  0.00     0.046 C 
HETATM    5  C29 UNL     1      44.596  11.267  -0.399  1.00  0.00     0.012 C 
HETATM    6  C30 UNL     1      45.201   9.981   0.176  1.00  0.00     0.007 C 
ENDROOT
BRANCH   1   7
HETATM    7  C11 UNL     1      47.397   9.242   1.240  1.00  0.00     0.130 C 
BRANCH   7   8
HETATM    8  N2  UNL     1      48.597   9.323   0.477  1.00  0.00    -0.355 N 
BRANCH   8   9
HETATM    9  C9  UNL     1      49.347   8.107   0.161  1.00  0.00     0.164 C 
BRANCH   9  10
HETATM   10  C8  UNL     1      49.758   7.447   1.451  1.00  0.00    -0.030 A 
HETATM   11  C6  UNL     1      49.244   6.156   1.692  1.00  0.00    -0.026 A 
HETATM   12  C5  UNL     1      49.658   5.545   2.869  1.00  0.00     0.058 A 
HETATM   13  C7  UNL     1      48.330   5.519   0.772  1.00  0.00     0.051 C 
HETATM   14  N1  UNL     1      49.226   4.311   3.170  1.00  0.00    -0.330 N 
HETATM   15  C33 UNL     1      50.539   6.217   3.740  1.00  0.00     0.064 A 
HETATM   16  C3  UNL     1      49.682   3.758   4.350  1.00  0.00     0.152 A 
HETATM   17  C4  UNL     1      48.358   3.583   2.328  1.00  0.00     0.158 C 
HETATM   18  C2  UNL     1      50.531   4.375   5.213  1.00  0.00     0.040 A 
HETATM   19  C1  UNL     1      50.964   3.686   6.449  1.00  0.00     0.057 C 
HETATM   20  C34 UNL     1      50.965   5.615   4.910  1.00  0.00     0.196 A 
HETATM   21  O4  UNL     1      51.761   6.243   5.681  1.00  0.00    -0.287 OA
HETATM   22  C32 UNL     1      51.004   7.482   3.444  1.00  0.00     0.051 A 
HETATM   23  C31 UNL     1      50.613   8.095   2.301  1.00  0.00     0.034 A 
HETATM   24 CL1  UNL     1      52.102   8.251   4.585  1.00  0.00    -0.083 Cl
BRANCH  16  25
HETATM   25  O1  UNL     1      49.201   2.457   4.634  1.00  0.00    -0.345 OA
ATOM     26  H1  UNL     1      48.279   2.256   4.530  1.00  0.00     0.219 HD
ENDBRANCH  16  25
ENDBRANCH   9  10
ENDBRANCH   8   9
BRANCH   8  27
HETATM   27  C10 UNL     1      49.086  10.577   0.024  1.00  0.00     0.351 C 
HETATM   28  O2  UNL     1      50.063  10.687  -0.766  1.00  0.00    -0.284 OA
ENDBRANCH   8  27
ENDBRANCH   7   8
ENDBRANCH   1   7
BRANCH   4  29
HETATM   29  C16 UNL     1      44.571  13.768  -0.144  1.00  0.00     0.070 C 
BRANCH  29  30
HETATM   30  C17 UNL     1      45.044  13.874  -1.544  1.00  0.00     0.072 C 
BRANCH  30  31
HETATM   31  C18 UNL     1      44.622  15.014  -2.380  1.00  0.00    -0.016 C 
HETATM   32  C19 UNL     1      43.193  15.155  -2.718  1.00  0.00     0.010 C 
HETATM   33  C20 UNL     1      45.524  15.156  -3.629  1.00  0.00     0.010 C 
ENDBRANCH  30  31
ENDBRANCH  29  30
BRANCH  29  34
HETATM   34  N3  UNL     1      44.507  14.858   0.683  1.00  0.00    -0.378 NA
HETATM   35  C21 UNL     1      44.442  15.946   1.503  1.00  0.00     0.323 C 
HETATM   36  O3  UNL     1      44.091  17.129   1.274  1.00  0.00    -0.255 OA
BRANCH  35  37
HETATM   37  C22 UNL     1      44.857  15.783   2.974  1.00  0.00     0.296 C 
HETATM   38  N4  UNL     1      44.785  17.072   3.611  1.00  0.00    -0.057 N 
HETATM   39  C23 UNL     1      45.620  17.022   4.825  1.00  0.00     0.187 C 
ATOM     40  H42 UNL     1      45.040  17.837   2.987  1.00  0.00     0.278 HD
ATOM     41  H41 UNL     1      43.827  17.366   3.801  1.00  0.00     0.278 HD
HETATM   42  C24 UNL     1      47.007  17.425   4.337  1.00  0.00     0.033 C 
HETATM   43  C28 UNL     1      45.748  15.593   5.330  1.00  0.00     0.033 C 
HETATM   44  C25 UNL     1      47.186  16.690   3.014  1.00  0.00     0.009 C 
HETATM   45  C26 UNL     1      46.341  15.408   2.995  1.00  0.00     0.027 C 
HETATM   46  C27 UNL     1      46.565  14.756   4.340  1.00  0.00     0.009 C 
ENDBRANCH  35  37
ENDBRANCH  29  34
ENDBRANCH   4  29
TORSDOF 11
ENDMDL
MODEL 2
REMARK VINA RESULT: -9.153892342      2.262      3.541
REMARK  11 active torsions:
REMARK  status: ('A' for Active; 'I' for Inactive)
REMARK    1  A    between atoms: C3_3  and  O1_4 
REMARK    2  A    between atoms: C8_11  and  C9_12 
REMARK    3  A    between atoms: C9_12  and  N2_13 
REMARK    4  A    between atoms: N2_13  and  C10_14 
REMARK    5  A    between atoms: N2_13  and  C11_16 
REMARK    6  A    between atoms: C11_16  and  C12_17 
REMARK    7  A    between atoms: C15_20  and  C16_21 
REMARK    8  A    between atoms: C16_21  and  C17_22 
REMARK    9  A    between atoms: C16_21  and  N3_26 
REMARK   10  A    between atoms: C17_22  and  C18_23 
REMARK       I    between atoms: N3_26  and  C21_27 
REMARK   11  A    between atoms: C21_27  and  C22_29 
ROOT
HETATM    1  C12 UNL     1      48.204   9.167   0.781  1.00  0.00     0.004 C 
HETATM    2  C13 UNL     1      46.858   8.778   0.233  1.00  0.00     0.007 C 
HETATM    3  C14 UNL     1      45.906  10.001   0.239  1.00  0.00     0.012 C 
HETATM    4  C15 UNL     1      46.492  10.973   1.172  1.00  0.00     0.046 C 
HETATM    5  C29 UNL     1      47.769  11.548   0.632  1.00  0.00     0.012 C 
HETATM    6  C30 UNL     1      48.641  10.408   0.096  1.00  0.00     0.007 C 
ENDROOT
BRANCH   1   7
HETATM    7  C11 UNL     1      49.146   7.980   0.687  1.00  0.00     0.130 C 
BRANCH   7   8
HETATM    8  N2  UNL     1      49.682   7.635   1.962  1.00  0.00    -0.355 N 
BRANCH   8   9
HETATM    9  C9  UNL     1      50.812   6.709   2.053  1.00  0.00     0.164 C 
BRANCH   9  10
HETATM   10  C8  UNL     1      50.392   5.515   2.867  1.00  0.00    -0.030 A 
HETATM   11  C6  UNL     1      51.106   5.282   4.061  1.00  0.00    -0.026 A 
HETATM   12  C5  UNL     1      50.686   4.197   4.820  1.00  0.00     0.058 A 
HETATM   13  C7  UNL     1      52.215   6.117   4.458  1.00  0.00     0.051 C 
HETATM   14  N1  UNL     1      51.303   3.911   5.977  1.00  0.00    -0.330 N 
HETATM   15  C33 UNL     1      49.608   3.403   4.380  1.00  0.00     0.064 A 
HETATM   16  C3  UNL     1      50.831   2.824   6.686  1.00  0.00     0.152 A 
HETATM   17  C4  UNL     1      52.376   4.680   6.476  1.00  0.00     0.158 C 
HETATM   18  C2  UNL     1      49.795   2.038   6.294  1.00  0.00     0.040 A 
HETATM   19  C1  UNL     1      49.365   0.901   7.138  1.00  0.00     0.057 C 
HETATM   20  C34 UNL     1      49.175   2.326   5.132  1.00  0.00     0.196 A 
HETATM   21  O4  UNL     1      48.199   1.624   4.712  1.00  0.00    -0.287 OA
HETATM   22  C32 UNL     1      48.953   3.686   3.199  1.00  0.00     0.051 A 
HETATM   23  C31 UNL     1      49.346   4.740   2.444  1.00  0.00     0.034 A 
HETATM   24 CL1  UNL     1      47.615   2.646   2.722  1.00  0.00    -0.083 Cl
BRANCH  16  25
HETATM   25  O1  UNL     1      51.510   2.553   7.900  1.00  0.00    -0.345 OA
ATOM     26  H1  UNL     1      52.098   3.200   8.272  1.00  0.00     0.219 HD
ENDBRANCH  16  25
ENDBRANCH   9  10
ENDBRANCH   8   9
BRANCH   8  27
HETATM   27  C10 UNL     1      49.126   8.171   3.152  1.00  0.00     0.351 C 
HETATM   28  O2  UNL     1      49.804   8.821   3.994  1.00  0.00    -0.284 OA
ENDBRANCH   8  27
ENDBRANCH   7   8
ENDBRANCH   1   7
BRANCH   4  29
HETATM   29  C16 UNL     1      45.582  12.043   1.770  1.00  0.00     0.070 C 
BRANCH  29  30
HETATM   30  C17 UNL     1      44.608  12.411   0.715  1.00  0.00     0.072 C 
BRANCH  30  31
HETATM   31  C18 UNL     1      44.927  13.490  -0.239  1.00  0.00    -0.016 C 
HETATM   32  C19 UNL     1      44.284  14.806  -0.062  1.00  0.00     0.010 C 
HETATM   33  C20 UNL     1      44.825  12.993  -1.700  1.00  0.00     0.010 C 
ENDBRANCH  30  31
ENDBRANCH  29  30
BRANCH  29  34
HETATM   34  N3  UNL     1      46.102  12.973   2.631  1.00  0.00    -0.378 NA
HETATM   35  C21 UNL     1      46.621  13.897   3.491  1.00  0.00     0.323 C 
HETATM   36  O3  UNL     1      47.200  13.758   4.594  1.00  0.00    -0.255 OA
BRANCH  35  37
HETATM   37  C22 UNL     1      46.512  15.385   3.123  1.00  0.00     0.296 C 
HETATM   38  N4  UNL     1      47.375  16.133   3.999  1.00  0.00    -0.057 N 
HETATM   39  C23 UNL     1      46.921  17.536   3.989  1.00  0.00     0.187 C 
ATOM     40  H42 UNL     1      47.422  15.739   4.938  1.00  0.00     0.278 HD
ATOM     41  H41 UNL     1      48.362  16.034   3.761  1.00  0.00     0.278 HD
HETATM   42  C24 UNL     1      45.873  17.594   5.095  1.00  0.00     0.033 C 
HETATM   43  C28 UNL     1      46.188  17.854   2.694  1.00  0.00     0.033 C 
HETATM   44  C25 UNL     1      45.058  16.317   4.930  1.00  0.00     0.009 C 
HETATM   45  C26 UNL     1      45.094  15.843   3.470  1.00  0.00     0.027 C 
HETATM   46  C27 UNL     1      44.865  17.084   2.636  1.00  0.00     0.009 C 
ENDBRANCH  35  37
ENDBRANCH  29  34
ENDBRANCH   4  29
TORSDOF 11
ENDMDL
MODEL 3
REMARK VINA RESULT: -9.086110722      1.245      1.329
REMARK  11 active torsions:
REMARK  status: ('A' for Active; 'I' for Inactive)
REMARK    1  A    between atoms: C3_3  and  O1_4 
REMARK    2  A    between atoms: C8_11  and  C9_12 
REMARK    3  A    between atoms: C9_12  and  N2_13 
REMARK    4  A    between atoms: N2_13  and  C10_14 
REMARK    5  A    between atoms: N2_13  and  C11_16 
REMARK    6  A    between atoms: C11_16  and  C12_17 
REMARK    7  A    between atoms: C15_20  and  C16_21 
REMARK    8  A    between atoms: C16_21  and  C17_22 
REMARK    9  A    between atoms: C16_21  and  N3_26 
REMARK   10  A    between atoms: C17_22  and  C18_23 
REMARK       I    between atoms: N3_26  and  C21_27 
REMARK   11  A    between atoms: C21_27  and  C22_29 
ROOT
HETATM    1  C12 UNL     1      47.241  11.121   0.619  1.00  0.00     0.004 C 
HETATM    2  C13 UNL     1      46.624  11.428   1.957  1.00  0.00     0.007 C 
HETATM    3  C14 UNL     1      45.290  12.192   1.765  1.00  0.00     0.012 C 
HETATM    4  C15 UNL     1      45.319  12.734   0.400  1.00  0.00     0.046 C 
HETATM    5  C29 UNL     1      45.225  11.640  -0.625  1.00  0.00     0.012 C 
HETATM    6  C30 UNL     1      46.197  10.517  -0.245  1.00  0.00     0.007 C 
ENDROOT
BRANCH   1   7
HETATM    7  C11 UNL     1      48.501  10.298   0.825  1.00  0.00     0.130 C 
BRANCH   7   8
HETATM    8  N2  UNL     1      48.278   8.920   0.542  1.00  0.00    -0.355 N 
BRANCH   8   9
HETATM    9  C9  UNL     1      47.756   8.034   1.583  1.00  0.00     0.164 C 
BRANCH   9  10
HETATM   10  C8  UNL     1      48.916   7.428   2.327  1.00  0.00    -0.030 A 
HETATM   11  C6  UNL     1      49.136   6.048   2.136  1.00  0.00    -0.026 A 
HETATM   12  C5  UNL     1      50.230   5.508   2.801  1.00  0.00     0.058 A 
HETATM   13  C7  UNL     1      48.263   5.247   1.309  1.00  0.00     0.051 C 
HETATM   14  N1  UNL     1      50.518   4.204   2.666  1.00  0.00    -0.330 N 
HETATM   15  C33 UNL     1      51.041   6.330   3.609  1.00  0.00     0.064 A 
HETATM   16  C3  UNL     1      51.623   3.733   3.346  1.00  0.00     0.152 A 
HETATM   17  C4  UNL     1      49.753   3.336   1.857  1.00  0.00     0.158 C 
HETATM   18  C2  UNL     1      52.427   4.496   4.133  1.00  0.00     0.040 A 
HETATM   19  C1  UNL     1      53.594   3.888   4.811  1.00  0.00     0.057 C 
HETATM   20  C34 UNL     1      52.137   5.805   4.268  1.00  0.00     0.196 A 
HETATM   21  O4  UNL     1      52.854   6.569   4.992  1.00  0.00    -0.287 OA
HETATM   22  C32 UNL     1      50.768   7.675   3.754  1.00  0.00     0.051 A 
HETATM   23  C31 UNL     1      49.706   8.222   3.113  1.00  0.00     0.034 A 
HETATM   24 CL1  UNL     1      51.831   8.632   4.780  1.00  0.00    -0.083 Cl
BRANCH  16  25
HETATM   25  O1  UNL     1      51.893   2.353   3.180  1.00  0.00    -0.345 OA
ATOM     26  H1  UNL     1      51.992   1.988   2.309  1.00  0.00     0.219 HD
ENDBRANCH  16  25
ENDBRANCH   9  10
ENDBRANCH   8   9
BRANCH   8  27
HETATM   27  C10 UNL     1      48.569   8.387  -0.742  1.00  0.00     0.351 C 
HETATM   28  O2  UNL     1      47.792   7.600  -1.349  1.00  0.00    -0.284 OA
ENDBRANCH   8  27
ENDBRANCH   7   8
ENDBRANCH   1   7
BRANCH   4  29
HETATM   29  C16 UNL     1      44.411  13.915   0.069  1.00  0.00     0.070 C 
BRANCH  29  30
HETATM   30  C17 UNL     1      44.391  14.037  -1.408  1.00  0.00     0.072 C 
BRANCH  30  31
HETATM   31  C18 UNL     1      44.192  15.356  -2.037  1.00  0.00    -0.016 C 
HETATM   32  C19 UNL     1      42.815  15.852  -2.224  1.00  0.00     0.010 C 
HETATM   33  C20 UNL     1      45.030  15.492  -3.330  1.00  0.00     0.010 C 
ENDBRANCH  30  31
ENDBRANCH  29  30
BRANCH  29  34
HETATM   34  N3  UNL     1      44.404  15.016   0.885  1.00  0.00    -0.378 NA
HETATM   35  C21 UNL     1      44.395  16.114   1.694  1.00  0.00     0.323 C 
HETATM   36  O3  UNL     1      44.066  17.302   1.464  1.00  0.00    -0.255 OA
BRANCH  35  37
HETATM   37  C22 UNL     1      44.859  15.956   3.151  1.00  0.00     0.296 C 
HETATM   38  N4  UNL     1      44.972  17.266   3.735  1.00  0.00    -0.057 N 
HETATM   39  C23 UNL     1      45.854  17.160   4.913  1.00  0.00     0.187 C 
ATOM     40  H42 UNL     1      45.286  17.971   3.069  1.00  0.00     0.278 HD
ATOM     41  H41 UNL     1      44.067  17.681   3.955  1.00  0.00     0.278 HD
HETATM   42  C24 UNL     1      47.254  17.374   4.348  1.00  0.00     0.033 C 
HETATM   43  C28 UNL     1      45.835  15.746   5.472  1.00  0.00     0.033 C 
HETATM   44  C25 UNL     1      47.279  16.575   3.050  1.00  0.00     0.009 C 
HETATM   45  C26 UNL     1      46.287  15.405   3.122  1.00  0.00     0.027 C 
HETATM   46  C27 UNL     1      46.496  14.780   4.483  1.00  0.00     0.009 C 
ENDBRANCH  35  37
ENDBRANCH  29  34
ENDBRANCH   4  29
TORSDOF 11
ENDMDL
MODEL 4
REMARK VINA RESULT: -9.059329681      1.849      2.231
REMARK  11 active torsions:
REMARK  status: ('A' for Active; 'I' for Inactive)
REMARK    1  A    between atoms: C3_3  and  O1_4 
REMARK    2  A    between atoms: C8_11  and  C9_12 
REMARK    3  A    between atoms: C9_12  and  N2_13 
REMARK    4  A    between atoms: N2_13  and  C10_14 
REMARK    5  A    between atoms: N2_13  and  C11_16 
REMARK    6  A    between atoms: C11_16  and  C12_17 
REMARK    7  A    between atoms: C15_20  and  C16_21 
REMARK    8  A    between atoms: C16_21  and  C17_22 
REMARK    9  A    between atoms: C16_21  and  N3_26 
REMARK   10  A    between atoms: C17_22  and  C18_23 
REMARK       I    between atoms: N3_26  and  C21_27 
REMARK   11  A    between atoms: C21_27  and  C22_29 
ROOT
HETATM    1  C12 UNL     1      46.898  11.670   0.125  1.00  0.00     0.004 C 
HETATM    2  C13 UNL     1      46.237  11.740   1.475  1.00  0.00     0.007 C 
HETATM    3  C14 UNL     1      44.940  12.585   1.391  1.00  0.00     0.012 C 
HETATM    4  C15 UNL     1      45.047  13.378   0.159  1.00  0.00     0.046 C 
HETATM    5  C29 UNL     1      44.956  12.509  -1.061  1.00  0.00     0.012 C 
HETATM    6  C30 UNL     1      45.869  11.292  -0.875  1.00  0.00     0.007 C 
ENDROOT
BRANCH   1   7
HETATM    7  C11 UNL     1      48.117  10.768   0.210  1.00  0.00     0.130 C 
BRANCH   7   8
HETATM    8  N2  UNL     1      48.028   9.681  -0.707  1.00  0.00    -0.355 N 
BRANCH   8   9
HETATM    9  C9  UNL     1      47.665   8.347  -0.227  1.00  0.00     0.164 C 
BRANCH   9  10
HETATM   10  C8  UNL     1      48.862   7.740   0.457  1.00  0.00    -0.030 A 
HETATM   11  C6  UNL     1      48.753   7.523   1.845  1.00  0.00    -0.026 A 
HETATM   12  C5  UNL     1      49.850   6.931   2.458  1.00  0.00     0.058 A 
HETATM   13  C7  UNL     1      47.573   7.909   2.585  1.00  0.00     0.051 C 
HETATM   14  N1  UNL     1      49.826   6.678   3.776  1.00  0.00    -0.330 N 
HETATM   15  C33 UNL     1      50.984   6.588   1.694  1.00  0.00     0.064 A 
HETATM   16  C3  UNL     1      50.945   6.080   4.319  1.00  0.00     0.152 A 
HETATM   17  C4  UNL     1      48.712   6.983   4.588  1.00  0.00     0.158 C 
HETATM   18  C2  UNL     1      52.055   5.735   3.615  1.00  0.00     0.040 A 
HETATM   19  C1  UNL     1      53.198   5.090   4.299  1.00  0.00     0.057 C 
HETATM   20  C34 UNL     1      52.078   5.989   2.291  1.00  0.00     0.196 A 
HETATM   21  O4  UNL     1      53.091   5.690   1.579  1.00  0.00    -0.287 OA
HETATM   22  C32 UNL     1      51.026   6.830   0.336  1.00  0.00     0.051 A 
HETATM   23  C31 UNL     1      49.966   7.406  -0.281  1.00  0.00     0.034 A 
HETATM   24 CL1  UNL     1      52.479   6.370  -0.545  1.00  0.00    -0.083 Cl
BRANCH  16  25
HETATM   25  O1  UNL     1      50.882   5.832   5.712  1.00  0.00    -0.345 OA
ATOM     26  H1  UNL     1      50.550   6.499   6.301  1.00  0.00     0.219 HD
ENDBRANCH  16  25
ENDBRANCH   9  10
ENDBRANCH   8   9
BRANCH   8  27
HETATM   27  C10 UNL     1      48.300   9.872  -2.087  1.00  0.00     0.351 C 
HETATM   28  O2  UNL     1      47.974   9.035  -2.972  1.00  0.00    -0.284 OA
ENDBRANCH   8  27
ENDBRANCH   7   8
ENDBRANCH   1   7
BRANCH   4  29
HETATM   29  C16 UNL     1      44.198  14.641   0.034  1.00  0.00     0.070 C 
BRANCH  29  30
HETATM   30  C17 UNL     1      44.086  14.937  -1.413  1.00  0.00     0.072 C 
BRANCH  30  31
HETATM   31  C18 UNL     1      43.309  16.105  -1.869  1.00  0.00    -0.016 C 
HETATM   32  C19 UNL     1      42.015  15.878  -2.541  1.00  0.00     0.010 C 
HETATM   33  C20 UNL     1      44.198  17.097  -2.656  1.00  0.00     0.010 C 
ENDBRANCH  30  31
ENDBRANCH  29  30
BRANCH  29  34
HETATM   34  N3  UNL     1      44.318  15.636   0.969  1.00  0.00    -0.378 NA
HETATM   35  C21 UNL     1      44.436  16.628   1.897  1.00  0.00     0.323 C 
HETATM   36  O3  UNL     1      44.197  17.858   1.821  1.00  0.00    -0.255 OA
BRANCH  35  37
HETATM   37  C22 UNL     1      44.948  16.265   3.300  1.00  0.00     0.296 C 
HETATM   38  N4  UNL     1      45.297  17.483   3.984  1.00  0.00    -0.057 N 
HETATM   39  C23 UNL     1      46.213  17.134   5.086  1.00  0.00     0.187 C 
ATOM     40  H42 UNL     1      45.680  18.192   3.360  1.00  0.00     0.278 HD
ATOM     41  H41 UNL     1      44.480  18.006   4.299  1.00  0.00     0.278 HD
HETATM   42  C24 UNL     1      47.596  17.186   4.447  1.00  0.00     0.033 C 
HETATM   43  C28 UNL     1      46.003  15.692   5.523  1.00  0.00     0.033 C 
HETATM   44  C25 UNL     1      47.425  16.518   3.088  1.00  0.00     0.009 C 
HETATM   45  C26 UNL     1      46.268  15.510   3.127  1.00  0.00     0.027 C 
HETATM   46  C27 UNL     1      46.451  14.735   4.413  1.00  0.00     0.009 C 
ENDBRANCH  35  37
ENDBRANCH  29  34
ENDBRANCH   4  29
TORSDOF 11
ENDMDL
MODEL 5
REMARK VINA RESULT: -9.048660637      1.803      2.817
REMARK  11 active torsions:
REMARK  status: ('A' for Active; 'I' for Inactive)
REMARK    1  A    between atoms: C3_3  and  O1_4 
REMARK    2  A    between atoms: C8_11  and  C9_12 
REMARK    3  A    between atoms: C9_12  and  N2_13 
REMARK    4  A    between atoms: N2_13  and  C10_14 
REMARK    5  A    between atoms: N2_13  and  C11_16 
REMARK    6  A    between atoms: C11_16  and  C12_17 
REMARK    7  A    between atoms: C15_20  and  C16_21 
REMARK    8  A    between atoms: C16_21  and  C17_22 
REMARK    9  A    between atoms: C16_21  and  N3_26 
REMARK   10  A    between atoms: C17_22  and  C18_23 
REMARK       I    between atoms: N3_26  and  C21_27 
REMARK   11  A    between atoms: C21_27  and  C22_29 
ROOT
HETATM    1  C12 UNL     1      47.583  10.194   1.532  1.00  0.00     0.004 C 
HETATM    2  C13 UNL     1      48.275  11.108   0.557  1.00  0.00     0.007 C 
HETATM    3  C14 UNL     1      47.439  12.396   0.349  1.00  0.00     0.012 C 
HETATM    4  C15 UNL     1      46.081  12.083   0.813  1.00  0.00     0.046 C 
HETATM    5  C29 UNL     1      46.041  11.899   2.303  1.00  0.00     0.012 C 
HETATM    6  C30 UNL     1      47.202  10.991   2.723  1.00  0.00     0.007 C 
ENDROOT
BRANCH   1   7
HETATM    7  C11 UNL     1      48.458   8.979   1.788  1.00  0.00     0.130 C 
BRANCH   7   8
HETATM    8  N2  UNL     1      48.349   8.025   0.735  1.00  0.00    -0.355 N 
BRANCH   8   9
HETATM    9  C9  UNL     1      49.457   7.109   0.462  1.00  0.00     0.164 C 
BRANCH   9  10
HETATM   10  C8  UNL     1      49.520   6.086   1.565  1.00  0.00    -0.030 A 
HETATM   11  C6  UNL     1      50.518   6.273   2.544  1.00  0.00    -0.026 A 
HETATM   12  C5  UNL     1      50.543   5.341   3.574  1.00  0.00     0.058 A 
HETATM   13  C7  UNL     1      51.464   7.362   2.466  1.00  0.00     0.051 C 
HETATM   14  N1  UNL     1      51.454   5.451   4.554  1.00  0.00    -0.330 N 
HETATM   15  C33 UNL     1      49.608   4.287   3.595  1.00  0.00     0.064 A 
HETATM   16  C3  UNL     1      51.419   4.498   5.551  1.00  0.00     0.152 A 
HETATM   17  C4  UNL     1      52.404   6.495   4.594  1.00  0.00     0.158 C 
HETATM   18  C2  UNL     1      50.533   3.470   5.605  1.00  0.00     0.040 A 
HETATM   19  C1  UNL     1      50.580   2.507   6.728  1.00  0.00     0.057 C 
HETATM   20  C34 UNL     1      49.618   3.360   4.621  1.00  0.00     0.196 A 
HETATM   21  O4  UNL     1      48.762   2.416   4.617  1.00  0.00    -0.287 OA
HETATM   22  C32 UNL     1      48.657   4.162   2.603  1.00  0.00     0.051 A 
HETATM   23  C31 UNL     1      48.614   5.060   1.590  1.00  0.00     0.034 A 
HETATM   24 CL1  UNL     1      47.524   2.817   2.705  1.00  0.00    -0.083 Cl
BRANCH  16  25
HETATM   25  O1  UNL     1      52.397   4.647   6.565  1.00  0.00    -0.345 OA
ATOM     26  H1  UNL     1      52.820   5.487   6.700  1.00  0.00     0.219 HD
ENDBRANCH  16  25
ENDBRANCH   9  10
ENDBRANCH   8   9
BRANCH   8  27
HETATM   27  C10 UNL     1      47.178   7.956  -0.064  1.00  0.00     0.351 C 
HETATM   28  O2  UNL     1      47.194   8.100  -1.317  1.00  0.00    -0.284 OA
ENDBRANCH   8  27
ENDBRANCH   7   8
ENDBRANCH   1   7
BRANCH   4  29
HETATM   29  C16 UNL     1      44.925  12.942   0.305  1.00  0.00     0.070 C 
BRANCH  29  30
HETATM   30  C17 UNL     1      44.887  12.777  -1.167  1.00  0.00     0.072 C 
BRANCH  30  31
HETATM   31  C18 UNL     1      44.606  11.453  -1.753  1.00  0.00    -0.016 C 
HETATM   32  C19 UNL     1      44.220  10.347  -0.855  1.00  0.00     0.010 C 
HETATM   33  C20 UNL     1      45.720  11.029  -2.738  1.00  0.00     0.010 C 
ENDBRANCH  30  31
ENDBRANCH  29  30
BRANCH  29  34
HETATM   34  N3  UNL     1      44.658  14.145   0.905  1.00  0.00    -0.378 NA
HETATM   35  C21 UNL     1      44.391  15.343   1.499  1.00  0.00     0.323 C 
HETATM   36  O3  UNL     1      43.875  16.391   1.041  1.00  0.00    -0.255 OA
BRANCH  35  37
HETATM   37  C22 UNL     1      44.759  15.527   2.980  1.00  0.00     0.296 C 
HETATM   38  N4  UNL     1      44.605  16.918   3.316  1.00  0.00    -0.057 N 
HETATM   39  C23 UNL     1      45.396  17.179   4.533  1.00  0.00     0.187 C 
ATOM     40  H42 UNL     1      44.847  17.541   2.546  1.00  0.00     0.278 HD
ATOM     41  H41 UNL     1      43.628  17.196   3.412  1.00  0.00     0.278 HD
HETATM   42  C24 UNL     1      46.780  17.537   4.005  1.00  0.00     0.033 C 
HETATM   43  C28 UNL     1      45.570  15.903   5.343  1.00  0.00     0.033 C 
HETATM   44  C25 UNL     1      47.041  16.542   2.881  1.00  0.00     0.009 C 
HETATM   45  C26 UNL     1      46.256  15.244   3.121  1.00  0.00     0.027 C 
HETATM   46  C27 UNL     1      46.460  14.914   4.583  1.00  0.00     0.009 C 
ENDBRANCH  35  37
ENDBRANCH  29  34
ENDBRANCH   4  29
TORSDOF 11
ENDMDL
