MODEL 1
REMARK VINA RESULT: -6.623678705      0.000      0.000
REMARK  12 active torsions:
REMARK  status: ('A' for Active; 'I' for Inactive)
REMARK    1  A    between atoms: C2_2  and  N1_3 
REMARK    2  A    between atoms: N1_3  and  C4_5 
REMARK    3  A    between atoms: C4_5  and  C5_6 
REMARK    4  A    between atoms: C5_6  and  C8_9 
REMARK    5  A    between atoms: C8_9  and  C9_10 
REMARK    6  A    between atoms: C9_10  and  C10_12 
REMARK    7  A    between atoms: C12_14  and  O2_15 
REMARK    8  A    between atoms: C21_25  and  C23_27 
REMARK    9  A    between atoms: C24_29  and  C25_30 
REMARK   10  A    between atoms: C25_30  and  O3_31 
REMARK   11  A    between atoms: C26_33  and  O4_34 
REMARK   12  A    between atoms: O4_34  and  S1_35 
ROOT
HETATM    1  C10 UNL     1      46.174  10.098  -1.304  1.00  0.00     0.091 C 
HETATM    2  C11 UNL     1      46.771  11.233  -2.166  1.00  0.00     0.049 C 
HETATM    3  C12 UNL     1      46.891  10.640  -3.546  1.00  0.00     0.123 C 
HETATM    4  C13 UNL     1      46.972   9.142  -3.517  1.00  0.00     0.066 C 
HETATM    5  C14 UNL     1      47.607   8.607  -2.278  1.00  0.00    -0.073 C 
HETATM    6  C15 UNL     1      47.222   9.088  -1.051  1.00  0.00    -0.057 C 
HETATM    7  C16 UNL     1      47.899   8.600   0.131  1.00  0.00    -0.015 C 
HETATM    8  C17 UNL     1      48.694   9.821   0.690  1.00  0.00     0.020 C 
HETATM    9  C18 UNL     1      47.075   8.172   1.297  1.00  0.00     0.014 C 
HETATM   10  C19 UNL     1      47.792   7.651   2.473  1.00  0.00     0.007 C 
HETATM   11  C20 UNL     1      49.232   7.252   2.310  1.00  0.00     0.005 C 
HETATM   12  C21 UNL     1      49.596   6.437   3.532  1.00  0.00    -0.006 C 
HETATM   13  C22 UNL     1      48.780   7.035   4.738  1.00  0.00     0.018 C 
HETATM   14  C24 UNL     1      49.232   5.011   3.488  1.00  0.00     0.050 C 
HETATM   15  C26 UNL     1      48.506   4.551   2.249  1.00  0.00     0.153 C 
HETATM   16  C27 UNL     1      48.594   5.309   1.005  1.00  0.00     0.044 C 
HETATM   17  C28 UNL     1      49.336   6.628   0.991  1.00  0.00    -0.033 C 
HETATM   18  C29 UNL     1      50.742   6.236   0.541  1.00  0.00     0.016 C 
HETATM   19  C30 UNL     1      48.886   7.515  -0.129  1.00  0.00     0.007 C 
HETATM   20  C31 UNL     1      48.355   6.649  -1.259  1.00  0.00     0.011 C 
HETATM   21  C32 UNL     1      48.607   7.544  -2.495  1.00  0.00     0.035 C 
ENDROOT
BRANCH   1  22
HETATM   22  C9  UNL     1      45.370  10.702  -0.276  1.00  0.00     0.154 C 
HETATM   23  O1  UNL     1      44.541   9.981   0.293  1.00  0.00    -0.293 OA
BRANCH  22  24
HETATM   24  C8  UNL     1      45.458  12.097   0.133  1.00  0.00     0.034 C 
BRANCH  24  25
HETATM   25  C5  UNL     1      45.924  12.587   1.397  1.00  0.00    -0.000 C 
HETATM   26  C6  UNL     1      45.973  11.428   2.469  1.00  0.00     0.021 C 
HETATM   27  C7  UNL     1      47.497  12.724   1.153  1.00  0.00     0.021 C 
BRANCH  25  28
HETATM   28  C4  UNL     1      45.591  13.797   2.113  1.00  0.00     0.284 C 
BRANCH  28  29
HETATM   29  N1  UNL     1      46.594  14.575   2.805  1.00  0.00     0.084 N 
HETATM   30  C3  UNL     1      46.527  14.362   4.276  1.00  0.00     0.309 C 
BRANCH  29  31
HETATM   31  C2  UNL     1      46.202  16.013   2.725  1.00  0.00     0.267 C 
HETATM   32  C1  UNL     1      47.286  16.917   3.211  1.00  0.00     0.037 C 
ENDBRANCH  29  31
ENDBRANCH  28  29
ENDBRANCH  25  28
ENDBRANCH  24  25
ENDBRANCH  22  24
ENDBRANCH   1  22
BRANCH   3  33
HETATM   33  O2  UNL     1      48.047  11.139  -4.136  1.00  0.00    -0.395 OA
ATOM     34  H2  UNL     1      48.343  10.513  -4.786  1.00  0.00     0.210 HD
ENDBRANCH   3  33
BRANCH  12  35
HETATM   35  C23 UNL     1      50.961   6.799   4.078  1.00  0.00     0.232 C 
HETATM   36  F1  UNL     1      51.635   7.829   3.592  1.00  0.00    -0.255 F 
ENDBRANCH  12  35
BRANCH  15  37
HETATM   37  O4  UNL     1      48.916   3.201   2.073  1.00  0.00    -0.251 OA
BRANCH  37  38
HETATM   38  S1  UNL     1      47.696   2.101   2.144  1.00  0.00     0.251 S 
HETATM   39  O5  UNL     1      48.061   0.767   1.546  1.00  0.00    -0.572 OA
HETATM   40  O6  UNL     1      47.390   1.836   3.602  1.00  0.00    -0.572 OA
HETATM   41  O7  UNL     1      46.272   2.592   1.428  1.00  0.00    -0.572 OA
ENDBRANCH  37  38
ENDBRANCH  15  37
BRANCH  14  42
HETATM   42  C25 UNL     1      50.233   4.011   3.995  1.00  0.00     0.172 C 
BRANCH  42  43
HETATM   43  O3  UNL     1      49.886   3.084   4.884  1.00  0.00    -0.400 OA
ATOM     44  H3  UNL     1      50.212   3.115   5.775  1.00  0.00     0.209 HD
ENDBRANCH  42  43
ENDBRANCH  14  42
TORSDOF 12
ENDMDL
MODEL 2
REMARK VINA RESULT: -6.242080505      2.103      3.435
REMARK  12 active torsions:
REMARK  status: ('A' for Active; 'I' for Inactive)
REMARK    1  A    between atoms: C2_2  and  N1_3 
REMARK    2  A    between atoms: N1_3  and  C4_5 
REMARK    3  A    between atoms: C4_5  and  C5_6 
REMARK    4  A    between atoms: C5_6  and  C8_9 
REMARK    5  A    between atoms: C8_9  and  C9_10 
REMARK    6  A    between atoms: C9_10  and  C10_12 
REMARK    7  A    between atoms: C12_14  and  O2_15 
REMARK    8  A    between atoms: C21_25  and  C23_27 
REMARK    9  A    between atoms: C24_29  and  C25_30 
REMARK   10  A    between atoms: C25_30  and  O3_31 
REMARK   11  A    between atoms: C26_33  and  O4_34 
REMARK   12  A    between atoms: O4_34  and  S1_35 
ROOT
HETATM    1  C10 UNL     1      48.799   8.045   0.223  1.00  0.00     0.091 C 
HETATM    2  C11 UNL     1      49.587   8.589  -0.989  1.00  0.00     0.049 C 
HETATM    3  C12 UNL     1      48.988   7.888  -2.180  1.00  0.00     0.123 C 
HETATM    4  C13 UNL     1      48.331   6.591  -1.806  1.00  0.00     0.066 C 
HETATM    5  C14 UNL     1      48.958   5.929  -0.625  1.00  0.00    -0.073 C 
HETATM    6  C15 UNL     1      49.240   6.663   0.500  1.00  0.00    -0.057 C 
HETATM    7  C16 UNL     1      49.908   6.012   1.606  1.00  0.00    -0.015 C 
HETATM    8  C17 UNL     1      51.322   6.667   1.683  1.00  0.00     0.020 C 
HETATM    9  C18 UNL     1      49.368   6.213   2.981  1.00  0.00     0.014 C 
HETATM   10  C19 UNL     1      50.050   5.512   4.081  1.00  0.00     0.007 C 
HETATM   11  C20 UNL     1      50.989   4.389   3.737  1.00  0.00     0.005 C 
HETATM   12  C21 UNL     1      51.252   3.636   5.023  1.00  0.00    -0.006 C 
HETATM   13  C22 UNL     1      51.231   4.697   6.185  1.00  0.00     0.018 C 
HETATM   14  C24 UNL     1      50.243   2.630   5.399  1.00  0.00     0.050 C 
HETATM   15  C26 UNL     1      49.056   2.508   4.478  1.00  0.00     0.153 C 
HETATM   16  C27 UNL     1      49.129   2.970   3.095  1.00  0.00     0.044 C 
HETATM   17  C28 UNL     1      50.378   3.677   2.615  1.00  0.00    -0.033 C 
HETATM   18  C29 UNL     1      51.208   2.549   2.003  1.00  0.00     0.016 C 
HETATM   19  C30 UNL     1      50.111   4.547   1.426  1.00  0.00     0.007 C 
HETATM   20  C31 UNL     1      48.917   3.991   0.668  1.00  0.00     0.011 C 
HETATM   21  C32 UNL     1      49.195   4.480  -0.773  1.00  0.00     0.035 C 
ENDROOT
BRANCH   1  22
HETATM   22  C9  UNL     1      48.738   9.087   1.213  1.00  0.00     0.154 C 
HETATM   23  O1  UNL     1      49.812   9.543   1.623  1.00  0.00    -0.293 OA
BRANCH  22  24
HETATM   24  C8  UNL     1      47.506   9.633   1.766  1.00  0.00     0.034 C 
BRANCH  24  25
HETATM   25  C5  UNL     1      46.834  10.826   1.340  1.00  0.00    -0.000 C 
HETATM   26  C6  UNL     1      47.698  11.611   0.275  1.00  0.00     0.021 C 
HETATM   27  C7  UNL     1      45.725  10.256   0.342  1.00  0.00     0.021 C 
BRANCH  25  28
HETATM   28  C4  UNL     1      46.118  11.821   2.103  1.00  0.00     0.284 C 
BRANCH  28  29
HETATM   29  N1  UNL     1      46.175  13.226   1.768  1.00  0.00     0.084 N 
HETATM   30  C3  UNL     1      46.448  14.060   2.970  1.00  0.00     0.309 C 
BRANCH  29  31
HETATM   31  C2  UNL     1      44.792  13.680   1.437  1.00  0.00     0.267 C 
HETATM   32  C1  UNL     1      44.596  13.856  -0.032  1.00  0.00     0.037 C 
ENDBRANCH  29  31
ENDBRANCH  28  29
ENDBRANCH  25  28
ENDBRANCH  24  25
ENDBRANCH  22  24
ENDBRANCH   1  22
BRANCH   3  33
HETATM   33  O2  UNL     1      50.005   7.626  -3.091  1.00  0.00    -0.395 OA
ATOM     34  H2  UNL     1      49.782   6.835  -3.567  1.00  0.00     0.210 HD
ENDBRANCH   3  33
BRANCH  12  35
HETATM   35  C23 UNL     1      52.710   3.264   5.182  1.00  0.00     0.232 C 
HETATM   36  F1  UNL     1      53.665   4.023   4.668  1.00  0.00    -0.255 F 
ENDBRANCH  12  35
BRANCH  15  37
HETATM   37  O4  UNL     1      48.681   1.139   4.556  1.00  0.00    -0.251 OA
BRANCH  37  38
HETATM   38  S1  UNL     1      47.326   0.751   3.708  1.00  0.00     0.251 S 
HETATM   39  O5  UNL     1      47.616   0.023   2.422  1.00  0.00    -0.572 OA
HETATM   40  O6  UNL     1      46.504  -0.201   4.551  1.00  0.00    -0.572 OA
HETATM   41  O7  UNL     1      46.342   2.045   3.336  1.00  0.00    -0.572 OA
ENDBRANCH  37  38
ENDBRANCH  15  37
BRANCH  14  42
HETATM   42  C25 UNL     1      50.726   1.307   5.923  1.00  0.00     0.172 C 
BRANCH  42  43
HETATM   43  O3  UNL     1      50.385   0.886   7.139  1.00  0.00    -0.400 OA
ATOM     44  H3  UNL     1      50.432  -0.034   7.368  1.00  0.00     0.209 HD
ENDBRANCH  42  43
ENDBRANCH  14  42
TORSDOF 12
ENDMDL
MODEL 3
REMARK VINA RESULT: -6.213012299      5.105      9.103
REMARK  12 active torsions:
REMARK  status: ('A' for Active; 'I' for Inactive)
REMARK    1  A    between atoms: C2_2  and  N1_3 
REMARK    2  A    between atoms: N1_3  and  C4_5 
REMARK    3  A    between atoms: C4_5  and  C5_6 
REMARK    4  A    between atoms: C5_6  and  C8_9 
REMARK    5  A    between atoms: C8_9  and  C9_10 
REMARK    6  A    between atoms: C9_10  and  C10_12 
REMARK    7  A    between atoms: C12_14  and  O2_15 
REMARK    8  A    between atoms: C21_25  and  C23_27 
REMARK    9  A    between atoms: C24_29  and  C25_30 
REMARK   10  A    between atoms: C25_30  and  O3_31 
REMARK   11  A    between atoms: C26_33  and  O4_34 
REMARK   12  A    between atoms: O4_34  and  S1_35 
ROOT
HETATM    1  C10 UNL     1      51.633   2.769   5.516  1.00  0.00     0.091 C 
HETATM    2  C11 UNL     1      52.281   2.244   6.817  1.00  0.00     0.049 C 
HETATM    3  C12 UNL     1      53.441   1.404   6.353  1.00  0.00     0.123 C 
HETATM    4  C13 UNL     1      53.253   0.896   4.953  1.00  0.00     0.066 C 
HETATM    5  C14 UNL     1      51.822   0.690   4.586  1.00  0.00    -0.073 C 
HETATM    6  C15 UNL     1      50.897   1.664   4.869  1.00  0.00    -0.057 C 
HETATM    7  C16 UNL     1      49.505   1.412   4.562  1.00  0.00    -0.015 C 
HETATM    8  C17 UNL     1      48.785   1.319   5.943  1.00  0.00     0.020 C 
HETATM    9  C18 UNL     1      48.732   2.468   3.849  1.00  0.00     0.014 C 
HETATM   10  C19 UNL     1      47.328   2.169   3.522  1.00  0.00     0.007 C 
HETATM   11  C20 UNL     1      46.868   0.740   3.596  1.00  0.00     0.005 C 
HETATM   12  C21 UNL     1      45.536   0.677   2.880  1.00  0.00    -0.006 C 
HETATM   13  C22 UNL     1      44.813   2.050   3.142  1.00  0.00     0.018 C 
HETATM   14  C24 UNL     1      45.597   0.545   1.415  1.00  0.00     0.050 C 
HETATM   15  C26 UNL     1      46.978   0.532   0.809  1.00  0.00     0.153 C 
HETATM   16  C27 UNL     1      48.145   0.179   1.611  1.00  0.00     0.044 C 
HETATM   17  C28 UNL     1      47.976  -0.071   3.094  1.00  0.00    -0.033 C 
HETATM   18  C29 UNL     1      47.793  -1.586   3.177  1.00  0.00     0.016 C 
HETATM   19  C30 UNL     1      49.255   0.129   3.848  1.00  0.00     0.007 C 
HETATM   20  C31 UNL     1      50.424  -0.131   2.912  1.00  0.00     0.011 C 
HETATM   21  C32 UNL     1      51.529  -0.581   3.895  1.00  0.00     0.035 C 
ENDROOT
BRANCH   1  22
HETATM   22  C9  UNL     1      51.068   4.062   5.795  1.00  0.00     0.154 C 
HETATM   23  O1  UNL     1      51.022   4.418   6.979  1.00  0.00    -0.293 OA
BRANCH  22  24
HETATM   24  C8  UNL     1      50.543   4.971   4.786  1.00  0.00     0.034 C 
BRANCH  24  25
HETATM   25  C5  UNL     1      51.309   5.753   3.861  1.00  0.00    -0.000 C 
HETATM   26  C6  UNL     1      52.857   5.613   4.149  1.00  0.00     0.021 C 
HETATM   27  C7  UNL     1      51.254   4.865   2.534  1.00  0.00     0.021 C 
BRANCH  25  28
HETATM   28  C4  UNL     1      51.102   7.097   3.372  1.00  0.00     0.284 C 
BRANCH  28  29
HETATM   29  N1  UNL     1      50.093   7.402   2.384  1.00  0.00     0.084 N 
HETATM   30  C3  UNL     1      50.605   8.353   1.360  1.00  0.00     0.309 C 
BRANCH  29  31
HETATM   31  C2  UNL     1      49.047   8.246   3.033  1.00  0.00     0.267 C 
HETATM   32  C1  UNL     1      47.969   7.423   3.656  1.00  0.00     0.037 C 
ENDBRANCH  29  31
ENDBRANCH  28  29
ENDBRANCH  25  28
ENDBRANCH  24  25
ENDBRANCH  22  24
ENDBRANCH   1  22
BRANCH   3  33
HETATM   33  O2  UNL     1      53.563   0.316   7.210  1.00  0.00    -0.395 OA
ATOM     34  H2  UNL     1      54.391   0.391   7.671  1.00  0.00     0.210 HD
ENDBRANCH   3  33
BRANCH  12  35
HETATM   35  C23 UNL     1      44.525  -0.171   3.622  1.00  0.00     0.232 C 
HETATM   36  F1  UNL     1      44.687  -0.454   4.904  1.00  0.00    -0.255 F 
ENDBRANCH  12  35
BRANCH  15  37
HETATM   37  O4  UNL     1      46.858  -0.298  -0.339  1.00  0.00    -0.251 OA
BRANCH  37  38
HETATM   38  S1  UNL     1      47.085   0.477  -1.771  1.00  0.00     0.251 S 
HETATM   39  O5  UNL     1      48.075  -0.212  -2.673  1.00  0.00    -0.572 OA
HETATM   40  O6  UNL     1      45.767   0.474  -2.517  1.00  0.00    -0.572 OA
HETATM   41  O7  UNL     1      47.562   2.069  -1.634  1.00  0.00    -0.572 OA
ENDBRANCH  37  38
ENDBRANCH  15  37
BRANCH  14  42
HETATM   42  C25 UNL     1      44.649  -0.414   0.751  1.00  0.00     0.172 C 
BRANCH  42  43
HETATM   43  O3  UNL     1      43.836  -0.010  -0.222  1.00  0.00    -0.400 OA
ATOM     44  H3  UNL     1      42.897  -0.142  -0.160  1.00  0.00     0.209 HD
ENDBRANCH  42  43
ENDBRANCH  14  42
TORSDOF 12
ENDMDL
MODEL 4
REMARK VINA RESULT: -6.197324485      2.287      3.901
REMARK  12 active torsions:
REMARK  status: ('A' for Active; 'I' for Inactive)
REMARK    1  A    between atoms: C2_2  and  N1_3 
REMARK    2  A    between atoms: N1_3  and  C4_5 
REMARK    3  A    between atoms: C4_5  and  C5_6 
REMARK    4  A    between atoms: C5_6  and  C8_9 
REMARK    5  A    between atoms: C8_9  and  C9_10 
REMARK    6  A    between atoms: C9_10  and  C10_12 
REMARK    7  A    between atoms: C12_14  and  O2_15 
REMARK    8  A    between atoms: C21_25  and  C23_27 
REMARK    9  A    between atoms: C24_29  and  C25_30 
REMARK   10  A    between atoms: C25_30  and  O3_31 
REMARK   11  A    between atoms: C26_33  and  O4_34 
REMARK   12  A    between atoms: O4_34  and  S1_35 
ROOT
HETATM    1  C10 UNL     1      48.188   8.224   0.832  1.00  0.00     0.091 C 
HETATM    2  C11 UNL     1      48.856   9.083  -0.265  1.00  0.00     0.049 C 
HETATM    3  C12 UNL     1      48.442   8.437  -1.560  1.00  0.00     0.123 C 
HETATM    4  C13 UNL     1      48.079   6.991  -1.385  1.00  0.00     0.066 C 
HETATM    5  C14 UNL     1      48.819   6.326  -0.274  1.00  0.00    -0.073 C 
HETATM    6  C15 UNL     1      48.917   6.945   0.948  1.00  0.00    -0.057 C 
HETATM    7  C16 UNL     1      49.695   6.309   1.989  1.00  0.00    -0.015 C 
HETATM    8  C17 UNL     1      50.930   7.236   2.211  1.00  0.00     0.020 C 
HETATM    9  C18 UNL     1      49.104   6.202   3.353  1.00  0.00     0.014 C 
HETATM   10  C19 UNL     1      49.907   5.522   4.383  1.00  0.00     0.007 C 
HETATM   11  C20 UNL     1      51.074   4.684   3.939  1.00  0.00     0.005 C 
HETATM   12  C21 UNL     1      51.476   3.839   5.128  1.00  0.00    -0.006 C 
HETATM   13  C22 UNL     1      51.207   4.704   6.415  1.00  0.00     0.018 C 
HETATM   14  C24 UNL     1      50.707   2.599   5.327  1.00  0.00     0.050 C 
HETATM   15  C26 UNL     1      49.589   2.349   4.346  1.00  0.00     0.153 C 
HETATM   16  C27 UNL     1      49.580   2.998   3.039  1.00  0.00     0.044 C 
HETATM   17  C28 UNL     1      50.651   4.015   2.710  1.00  0.00    -0.033 C 
HETATM   18  C29 UNL     1      51.716   3.186   1.994  1.00  0.00     0.016 C 
HETATM   19  C30 UNL     1      50.217   4.961   1.631  1.00  0.00     0.007 C 
HETATM   20  C31 UNL     1      49.185   4.268   0.756  1.00  0.00     0.011 C 
HETATM   21  C32 UNL     1      49.370   4.995  -0.596  1.00  0.00     0.035 C 
ENDROOT
BRANCH   1  22
HETATM   22  C9  UNL     1      47.886   9.085   1.944  1.00  0.00     0.154 C 
HETATM   23  O1  UNL     1      47.558   8.545   3.007  1.00  0.00    -0.293 OA
BRANCH  22  24
HETATM   24  C8  UNL     1      47.933  10.541   1.901  1.00  0.00     0.034 C 
BRANCH  24  25
HETATM   25  C5  UNL     1      46.861  11.418   1.530  1.00  0.00    -0.000 C 
HETATM   26  C6  UNL     1      46.598  12.495   2.655  1.00  0.00     0.021 C 
HETATM   27  C7  UNL     1      47.561  12.382   0.466  1.00  0.00     0.021 C 
BRANCH  25  28
HETATM   28  C4  UNL     1      45.580  11.129   0.928  1.00  0.00     0.284 C 
BRANCH  28  29
HETATM   29  N1  UNL     1      45.470  10.476  -0.357  1.00  0.00     0.084 N 
HETATM   30  C3  UNL     1      44.496  11.174  -1.239  1.00  0.00     0.309 C 
BRANCH  29  31
HETATM   31  C2  UNL     1      44.767   9.175  -0.157  1.00  0.00     0.267 C 
HETATM   32  C1  UNL     1      43.826   8.869  -1.275  1.00  0.00     0.037 C 
ENDBRANCH  29  31
ENDBRANCH  28  29
ENDBRANCH  25  28
ENDBRANCH  24  25
ENDBRANCH  22  24
ENDBRANCH   1  22
BRANCH   3  33
HETATM   33  O2  UNL     1      49.505   8.526  -2.453  1.00  0.00    -0.395 OA
ATOM     34  H2  UNL     1      49.477   7.768  -3.026  1.00  0.00     0.210 HD
ENDBRANCH   3  33
BRANCH  12  35
HETATM   35  C23 UNL     1      52.979   3.771   5.302  1.00  0.00     0.232 C 
HETATM   36  F1  UNL     1      53.698   4.875   5.427  1.00  0.00    -0.255 F 
ENDBRANCH  12  35
BRANCH  15  37
HETATM   37  O4  UNL     1      49.522   0.934   4.232  1.00  0.00    -0.251 OA
BRANCH  37  38
HETATM   38  S1  UNL     1      48.009   0.306   4.381  1.00  0.00     0.251 S 
HETATM   39  O5  UNL     1      47.899  -1.111   3.882  1.00  0.00    -0.572 OA
HETATM   40  O6  UNL     1      47.666   0.258   5.854  1.00  0.00    -0.572 OA
HETATM   41  O7  UNL     1      46.811   1.191   3.630  1.00  0.00    -0.572 OA
ENDBRANCH  37  38
ENDBRANCH  15  37
BRANCH  14  42
HETATM   42  C25 UNL     1      51.461   1.352   5.698  1.00  0.00     0.172 C 
BRANCH  42  43
HETATM   43  O3  UNL     1      51.227   0.727   6.849  1.00  0.00    -0.400 OA
ATOM     44  H3  UNL     1      51.858   0.758   7.559  1.00  0.00     0.209 HD
ENDBRANCH  42  43
ENDBRANCH  14  42
TORSDOF 12
ENDMDL
MODEL 5
REMARK VINA RESULT: -6.170588733      1.820      2.692
REMARK  12 active torsions:
REMARK  status: ('A' for Active; 'I' for Inactive)
REMARK    1  A    between atoms: C2_2  and  N1_3 
REMARK    2  A    between atoms: N1_3  and  C4_5 
REMARK    3  A    between atoms: C4_5  and  C5_6 
REMARK    4  A    between atoms: C5_6  and  C8_9 
REMARK    5  A    between atoms: C8_9  and  C9_10 
REMARK    6  A    between atoms: C9_10  and  C10_12 
REMARK    7  A    between atoms: C12_14  and  O2_15 
REMARK    8  A    between atoms: C21_25  and  C23_27 
REMARK    9  A    between atoms: C24_29  and  C25_30 
REMARK   10  A    between atoms: C25_30  and  O3_31 
REMARK   11  A    between atoms: C26_33  and  O4_34 
REMARK   12  A    between atoms: O4_34  and  S1_35 
ROOT
HETATM    1  C10 UNL     1      48.270   8.680  -0.203  1.00  0.00     0.091 C 
HETATM    2  C11 UNL     1      49.157   9.441  -1.213  1.00  0.00     0.049 C 
HETATM    3  C12 UNL     1      48.785   8.868  -2.555  1.00  0.00     0.123 C 
HETATM    4  C13 UNL     1      48.206   7.488  -2.444  1.00  0.00     0.066 C 
HETATM    5  C14 UNL     1      48.731   6.718  -1.280  1.00  0.00    -0.073 C 
HETATM    6  C15 UNL     1      48.796   7.308  -0.043  1.00  0.00    -0.057 C 
HETATM    7  C16 UNL     1      49.370   6.562   1.055  1.00  0.00    -0.015 C 
HETATM    8  C17 UNL     1      50.696   7.301   1.413  1.00  0.00     0.020 C 
HETATM    9  C18 UNL     1      48.639   6.532   2.354  1.00  0.00     0.014 C 
HETATM   10  C19 UNL     1      49.232   5.738   3.442  1.00  0.00     0.007 C 
HETATM   11  C20 UNL     1      50.307   4.745   3.096  1.00  0.00     0.005 C 
HETATM   12  C21 UNL     1      50.467   3.843   4.301  1.00  0.00    -0.006 C 
HETATM   13  C22 UNL     1      50.198   4.730   5.573  1.00  0.00     0.018 C 
HETATM   14  C24 UNL     1      49.514   2.724   4.400  1.00  0.00     0.050 C 
HETATM   15  C26 UNL     1      48.473   2.643   3.312  1.00  0.00     0.153 C 
HETATM   16  C27 UNL     1      48.684   3.295   2.023  1.00  0.00     0.044 C 
HETATM   17  C28 UNL     1      49.916   4.151   1.818  1.00  0.00    -0.033 C 
HETATM   18  C29 UNL     1      50.918   3.182   1.192  1.00  0.00     0.016 C 
HETATM   19  C30 UNL     1      49.728   5.155   0.722  1.00  0.00     0.007 C 
HETATM   20  C31 UNL     1      48.699   4.622  -0.261  1.00  0.00     0.011 C 
HETATM   21  C32 UNL     1      49.116   5.323  -1.574  1.00  0.00     0.035 C 
ENDROOT
BRANCH   1  22
HETATM   22  C9  UNL     1      47.986   9.568   0.892  1.00  0.00     0.154 C 
HETATM   23  O1  UNL     1      48.947   9.983   1.551  1.00  0.00    -0.293 OA
BRANCH  22  24
HETATM   24  C8  UNL     1      46.651  10.005   1.279  1.00  0.00     0.034 C 
BRANCH  24  25
HETATM   25  C5  UNL     1      46.078  11.299   1.054  1.00  0.00    -0.000 C 
HETATM   26  C6  UNL     1      46.788  12.029  -0.154  1.00  0.00     0.021 C 
HETATM   27  C7  UNL     1      44.706  10.944   0.318  1.00  0.00     0.021 C 
BRANCH  25  28
HETATM   28  C4  UNL     1      45.697  12.330   1.991  1.00  0.00     0.284 C 
BRANCH  28  29
HETATM   29  N1  UNL     1      45.909  13.732   1.711  1.00  0.00     0.084 N 
HETATM   30  C3  UNL     1      46.448  14.448   2.899  1.00  0.00     0.309 C 
BRANCH  29  31
HETATM   31  C2  UNL     1      44.573  14.388   1.588  1.00  0.00     0.267 C 
HETATM   32  C1  UNL     1      44.509  15.676   2.338  1.00  0.00     0.037 C 
ENDBRANCH  29  31
ENDBRANCH  28  29
ENDBRANCH  25  28
ENDBRANCH  24  25
ENDBRANCH  22  24
ENDBRANCH   1  22
BRANCH   3  33
HETATM   33  O2  UNL     1      49.932   8.810  -3.339  1.00  0.00    -0.395 OA
ATOM     34  H2  UNL     1      50.578   9.397  -2.966  1.00  0.00     0.210 HD
ENDBRANCH   3  33
BRANCH  12  35
HETATM   35  C23 UNL     1      51.920   3.560   4.617  1.00  0.00     0.232 C 
HETATM   36  F1  UNL     1      52.888   4.254   4.039  1.00  0.00    -0.255 F 
ENDBRANCH  12  35
BRANCH  15  37
HETATM   37  O4  UNL     1      48.218   1.253   3.163  1.00  0.00    -0.251 OA
BRANCH  37  38
HETATM   38  S1  UNL     1      46.630   0.835   3.254  1.00  0.00     0.251 S 
HETATM   39  O5  UNL     1      46.231  -0.217   2.254  1.00  0.00    -0.572 OA
HETATM   40  O6  UNL     1      46.384   0.229   4.619  1.00  0.00    -0.572 OA
HETATM   41  O7  UNL     1      45.564   2.108   3.088  1.00  0.00    -0.572 OA
ENDBRANCH  37  38
ENDBRANCH  15  37
BRANCH  14  42
HETATM   42  C25 UNL     1      50.043   1.381   4.816  1.00  0.00     0.172 C 
BRANCH  42  43
HETATM   43  O3  UNL     1      49.363   0.608   5.659  1.00  0.00    -0.400 OA
ATOM     44  H3  UNL     1      48.586   0.141   5.375  1.00  0.00     0.209 HD
ENDBRANCH  42  43
ENDBRANCH  14  42
TORSDOF 12
ENDMDL
