MODEL 1
REMARK VINA RESULT: -6.943086756      0.000      0.000
REMARK  13 active torsions:
REMARK  status: ('A' for Active; 'I' for Inactive)
REMARK    1  A    between atoms: C2_2  and  C3_3 
REMARK    2  A    between atoms: C3_3  and  C4_4 
REMARK    3  A    between atoms: C4_4  and  C5_5 
REMARK       I    between atoms: C5_5  and  N1_7 
REMARK    4  A    between atoms: N1_7  and  C6_9 
REMARK    5  A    between atoms: C6_9  and  C7_10 
REMARK    6  A    between atoms: C6_9  and  C22_33 
REMARK    7  A    between atoms: C7_10  and  O2_11 
REMARK    8  A    between atoms: C7_10  and  C8_13 
REMARK    9  A    between atoms: C8_13  and  C9_14 
REMARK   10  A    between atoms: C8_13  and  N3_24 
REMARK   11  A    between atoms: C9_14  and  C10_15 
REMARK       I    between atoms: N3_24  and  C17_26 
REMARK   12  A    between atoms: C17_26  and  O4_28 
REMARK   13  A    between atoms: O4_28  and  C18_29 
ROOT
HETATM    1  C10 UNL     1      50.405   5.040   4.904  1.00  0.00    -0.035 A 
HETATM    2  C11 UNL     1      50.035   3.693   4.982  1.00  0.00     0.010 A 
HETATM    3  C12 UNL     1      50.925   2.671   5.173  1.00  0.00     0.024 A 
HETATM    4  C13 UNL     1      52.262   2.973   5.296  1.00  0.00     0.035 A 
HETATM    5 CL1  UNL     1      53.432   1.689   5.541  1.00  0.00    -0.084 Cl
HETATM    6  C14 UNL     1      52.664   4.310   5.221  1.00  0.00     0.047 A 
HETATM    7  C15 UNL     1      51.744   5.329   5.028  1.00  0.00     0.052 A 
HETATM    8  C16 UNL     1      52.259   6.667   4.952  1.00  0.00     0.100 C 
HETATM    9  N2  UNL     1      52.679   7.741   4.867  1.00  0.00    -0.191 NA
ENDROOT
BRANCH   1  10
HETATM   10  C9  UNL     1      49.428   6.058   4.678  1.00  0.00     0.068 C 
BRANCH  10  11
HETATM   11  C8  UNL     1      49.265   6.590   3.240  1.00  0.00     0.121 C 
BRANCH  11  12
HETATM   12  C7  UNL     1      48.810   8.000   3.337  1.00  0.00     0.164 C 
BRANCH  12  13
HETATM   13  C6  UNL     1      48.861   8.843   2.133  1.00  0.00     0.119 C 
BRANCH  13  14
HETATM   14  N1  UNL     1      49.406   8.099   0.972  1.00  0.00    -0.354 N 
HETATM   15  C5  UNL     1      50.556   8.554   0.265  1.00  0.00     0.217 C 
HETATM   16  O1  UNL     1      51.158   9.611   0.601  1.00  0.00    -0.274 OA
ATOM     17  H1  UNL     1      48.945   7.240   0.672  1.00  0.00     0.163 HD
BRANCH  15  18
HETATM   18  C4  UNL     1      51.043   7.761  -0.882  1.00  0.00     0.103 C 
BRANCH  18  19
HETATM   19  C3  UNL     1      50.002   7.138  -1.732  1.00  0.00     0.009 C 
BRANCH  19  20
HETATM   20  C2  UNL     1      49.498   8.056  -2.789  1.00  0.00    -0.004 C 
HETATM   21  C1  UNL     1      48.287   7.459  -3.475  1.00  0.00     0.005 C 
ENDBRANCH  19  20
ENDBRANCH  18  19
ENDBRANCH  15  18
ENDBRANCH  13  14
BRANCH  13  22
HETATM   22  C22 UNL     1      47.517   9.428   1.678  1.00  0.00     0.020 C 
HETATM   23  C23 UNL     1      46.678   8.598   0.814  1.00  0.00     0.012 C 
HETATM   24  C24 UNL     1      46.525   8.909  -0.621  1.00  0.00    -0.008 C 
HETATM   25  C25 UNL     1      45.047   9.065  -1.016  1.00  0.00     0.005 C 
HETATM   26  C28 UNL     1      47.085  10.225  -1.063  1.00  0.00     0.019 C 
HETATM   27  C26 UNL     1      44.952  10.174  -2.002  1.00  0.00     0.001 C 
HETATM   28  C27 UNL     1      46.341  10.637  -2.315  1.00  0.00     0.007 C 
HETATM   29  C29 UNL     1      46.854  11.217   0.016  1.00  0.00     0.133 C 
HETATM   30  O5  UNL     1      45.576  11.241   0.514  1.00  0.00    -0.375 OA
HETATM   31  C33 UNL     1      47.673  10.865   1.244  1.00  0.00     0.053 C 
HETATM   32  C30 UNL     1      45.610  11.844   1.756  1.00  0.00     0.175 C 
HETATM   33  C31 UNL     1      45.789  13.318   1.809  1.00  0.00     0.203 C 
HETATM   34  C32 UNL     1      47.049  11.855   2.209  1.00  0.00     0.159 C 
HETATM   35  O6  UNL     1      47.167  13.150   1.789  1.00  0.00    -0.380 OA
ENDBRANCH  13  22
ENDBRANCH  12  13
BRANCH  12  36
HETATM   36  O2  UNL     1      49.662   8.565   4.322  1.00  0.00    -0.391 OA
ATOM     37  H2  UNL     1      49.206   9.287   4.737  1.00  0.00     0.210 HD
ENDBRANCH  12  36
ENDBRANCH  11  12
BRANCH  11  38
HETATM   38  N3  UNL     1      48.246   5.668   2.705  1.00  0.00    -0.329 N 
HETATM   39  C17 UNL     1      48.556   4.843   1.572  1.00  0.00     0.361 C 
HETATM   40  O3  UNL     1      49.697   4.939   1.075  1.00  0.00    -0.238 OA
ATOM     41  H3  UNL     1      47.324   5.617   3.138  1.00  0.00     0.165 HD
BRANCH  39  42
HETATM   42  O4  UNL     1      47.649   3.969   1.034  1.00  0.00    -0.294 OA
BRANCH  42  43
HETATM   43  C18 UNL     1      47.634   2.607   1.444  1.00  0.00     0.061 C 
HETATM   44  C19 UNL     1      46.839   2.461   2.726  1.00  0.00     0.046 C 
HETATM   45  C20 UNL     1      49.046   2.116   1.722  1.00  0.00     0.046 C 
HETATM   46  C21 UNL     1      47.079   1.784   0.325  1.00  0.00     0.046 C 
ENDBRANCH  42  43
ENDBRANCH  39  42
ENDBRANCH  11  38
ENDBRANCH  10  11
ENDBRANCH   1  10
TORSDOF 13
ENDMDL
MODEL 2
REMARK VINA RESULT: -6.936181840      1.470      1.850
REMARK  13 active torsions:
REMARK  status: ('A' for Active; 'I' for Inactive)
REMARK    1  A    between atoms: C2_2  and  C3_3 
REMARK    2  A    between atoms: C3_3  and  C4_4 
REMARK    3  A    between atoms: C4_4  and  C5_5 
REMARK       I    between atoms: C5_5  and  N1_7 
REMARK    4  A    between atoms: N1_7  and  C6_9 
REMARK    5  A    between atoms: C6_9  and  C7_10 
REMARK    6  A    between atoms: C6_9  and  C22_33 
REMARK    7  A    between atoms: C7_10  and  O2_11 
REMARK    8  A    between atoms: C7_10  and  C8_13 
REMARK    9  A    between atoms: C8_13  and  C9_14 
REMARK   10  A    between atoms: C8_13  and  N3_24 
REMARK   11  A    between atoms: C9_14  and  C10_15 
REMARK       I    between atoms: N3_24  and  C17_26 
REMARK   12  A    between atoms: C17_26  and  O4_28 
REMARK   13  A    between atoms: O4_28  and  C18_29 
ROOT
HETATM    1  C10 UNL     1      52.196   5.809   3.472  1.00  0.00    -0.035 A 
HETATM    2  C11 UNL     1      52.820   5.673   2.228  1.00  0.00     0.010 A 
HETATM    3  C12 UNL     1      53.795   4.749   1.965  1.00  0.00     0.024 A 
HETATM    4  C13 UNL     1      54.192   3.901   2.974  1.00  0.00     0.035 A 
HETATM    5 CL1  UNL     1      55.439   2.704   2.673  1.00  0.00    -0.084 Cl
HETATM    6  C14 UNL     1      53.587   4.013   4.229  1.00  0.00     0.047 A 
HETATM    7  C15 UNL     1      52.601   4.956   4.472  1.00  0.00     0.052 A 
HETATM    8  C16 UNL     1      52.053   5.000   5.799  1.00  0.00     0.100 C 
HETATM    9  N2  UNL     1      51.630   5.048   6.874  1.00  0.00    -0.191 NA
ENDROOT
BRANCH   1  10
HETATM   10  C9  UNL     1      51.201   6.811   3.689  1.00  0.00     0.068 C 
BRANCH  10  11
HETATM   11  C8  UNL     1      49.876   6.689   2.908  1.00  0.00     0.121 C 
BRANCH  11  12
HETATM   12  C7  UNL     1      49.121   7.950   3.117  1.00  0.00     0.164 C 
BRANCH  12  13
HETATM   13  C6  UNL     1      49.006   8.897   1.997  1.00  0.00     0.119 C 
BRANCH  13  14
HETATM   14  N1  UNL     1      49.449   8.286   0.721  1.00  0.00    -0.354 N 
HETATM   15  C5  UNL     1      50.609   8.747   0.035  1.00  0.00     0.217 C 
HETATM   16  O1  UNL     1      51.308   9.696   0.489  1.00  0.00    -0.274 OA
ATOM     17  H1  UNL     1      48.909   7.517   0.325  1.00  0.00     0.163 HD
BRANCH  15  18
HETATM   18  C4  UNL     1      50.992   8.091  -1.232  1.00  0.00     0.103 C 
BRANCH  18  19
HETATM   19  C3  UNL     1      49.892   7.462  -1.997  1.00  0.00     0.009 C 
BRANCH  19  20
HETATM   20  C2  UNL     1      49.225   8.412  -2.929  1.00  0.00    -0.004 C 
HETATM   21  C1  UNL     1      47.979   7.786  -3.521  1.00  0.00     0.005 C 
ENDBRANCH  19  20
ENDBRANCH  18  19
ENDBRANCH  15  18
ENDBRANCH  13  14
BRANCH  13  22
HETATM   22  C22 UNL     1      47.597   9.452   1.743  1.00  0.00     0.020 C 
HETATM   23  C23 UNL     1      46.652   8.592   1.031  1.00  0.00     0.012 C 
HETATM   24  C24 UNL     1      46.276   8.873  -0.368  1.00  0.00    -0.008 C 
HETATM   25  C25 UNL     1      44.753   8.997  -0.536  1.00  0.00     0.005 C 
HETATM   26  C28 UNL     1      46.737  10.188  -0.913  1.00  0.00     0.019 C 
HETATM   27  C26 UNL     1      44.488  10.086  -1.514  1.00  0.00     0.001 C 
HETATM   28  C27 UNL     1      45.804  10.564  -2.044  1.00  0.00     0.007 C 
HETATM   29  C29 UNL     1      46.655  11.197   0.172  1.00  0.00     0.133 C 
HETATM   30  O5  UNL     1      45.468  11.211   0.858  1.00  0.00    -0.375 OA
HETATM   31  C33 UNL     1      47.658  10.883   1.266  1.00  0.00     0.053 C 
HETATM   32  C30 UNL     1      45.680  11.839   2.070  1.00  0.00     0.175 C 
HETATM   33  C31 UNL     1      45.838  13.316   2.071  1.00  0.00     0.203 C 
HETATM   34  C32 UNL     1      47.170  11.881   2.299  1.00  0.00     0.159 C 
HETATM   35  O6  UNL     1      47.199  13.170   1.844  1.00  0.00    -0.380 OA
ENDBRANCH  13  22
ENDBRANCH  12  13
BRANCH  12  36
HETATM   36  O2  UNL     1      49.810   8.588   4.180  1.00  0.00    -0.391 OA
ATOM     37  H2  UNL     1      49.369   8.379   4.995  1.00  0.00     0.210 HD
ENDBRANCH  12  36
ENDBRANCH  11  12
BRANCH  11  38
HETATM   38  N3  UNL     1      49.267   5.512   3.554  1.00  0.00    -0.329 N 
HETATM   39  C17 UNL     1      48.886   4.379   2.758  1.00  0.00     0.361 C 
HETATM   40  O3  UNL     1      49.090   4.436   1.528  1.00  0.00    -0.238 OA
ATOM     41  H3  UNL     1      49.116   5.502   4.563  1.00  0.00     0.165 HD
BRANCH  39  42
HETATM   42  O4  UNL     1      48.317   3.261   3.305  1.00  0.00    -0.294 OA
BRANCH  42  43
HETATM   43  C18 UNL     1      49.136   2.214   3.813  1.00  0.00     0.061 C 
HETATM   44  C19 UNL     1      49.401   2.434   5.288  1.00  0.00     0.046 C 
HETATM   45  C20 UNL     1      50.480   2.193   3.103  1.00  0.00     0.046 C 
HETATM   46  C21 UNL     1      48.458   0.909   3.536  1.00  0.00     0.046 C 
ENDBRANCH  42  43
ENDBRANCH  39  42
ENDBRANCH  11  38
ENDBRANCH  10  11
ENDBRANCH   1  10
TORSDOF 13
ENDMDL
MODEL 3
REMARK VINA RESULT: -6.762752563      2.193      5.037
REMARK  13 active torsions:
REMARK  status: ('A' for Active; 'I' for Inactive)
REMARK    1  A    between atoms: C2_2  and  C3_3 
REMARK    2  A    between atoms: C3_3  and  C4_4 
REMARK    3  A    between atoms: C4_4  and  C5_5 
REMARK       I    between atoms: C5_5  and  N1_7 
REMARK    4  A    between atoms: N1_7  and  C6_9 
REMARK    5  A    between atoms: C6_9  and  C7_10 
REMARK    6  A    between atoms: C6_9  and  C22_33 
REMARK    7  A    between atoms: C7_10  and  O2_11 
REMARK    8  A    between atoms: C7_10  and  C8_13 
REMARK    9  A    between atoms: C8_13  and  C9_14 
REMARK   10  A    between atoms: C8_13  and  N3_24 
REMARK   11  A    between atoms: C9_14  and  C10_15 
REMARK       I    between atoms: N3_24  and  C17_26 
REMARK   12  A    between atoms: C17_26  and  O4_28 
REMARK   13  A    between atoms: O4_28  and  C18_29 
ROOT
HETATM    1  C10 UNL     1      50.376   6.755   3.743  1.00  0.00    -0.035 A 
HETATM    2  C11 UNL     1      50.103   5.442   3.345  1.00  0.00     0.010 A 
HETATM    3  C12 UNL     1      51.016   4.425   3.407  1.00  0.00     0.024 A 
HETATM    4  C13 UNL     1      52.278   4.696   3.885  1.00  0.00     0.035 A 
HETATM    5 CL1  UNL     1      53.475   3.417   3.978  1.00  0.00    -0.084 Cl
HETATM    6  C14 UNL     1      52.582   6.000   4.288  1.00  0.00     0.047 A 
HETATM    7  C15 UNL     1      51.640   7.014   4.217  1.00  0.00     0.052 A 
HETATM    8  C16 UNL     1      52.056   8.321   4.643  1.00  0.00     0.100 C 
HETATM    9  N2  UNL     1      52.400   9.377   4.965  1.00  0.00    -0.191 NA
ENDROOT
BRANCH   1  10
HETATM   10  C9  UNL     1      49.385   7.778   3.630  1.00  0.00     0.068 C 
BRANCH  10  11
HETATM   11  C8  UNL     1      49.192   8.442   2.251  1.00  0.00     0.121 C 
BRANCH  11  12
HETATM   12  C7  UNL     1      47.754   8.327   1.901  1.00  0.00     0.164 C 
BRANCH  12  13
HETATM   13  C6  UNL     1      47.069   9.500   1.338  1.00  0.00     0.119 C 
BRANCH  13  14
HETATM   14  N1  UNL     1      47.372  10.729   2.110  1.00  0.00    -0.354 N 
HETATM   15  C5  UNL     1      46.382  11.726   2.348  1.00  0.00     0.217 C 
HETATM   16  O1  UNL     1      45.205  11.601   1.910  1.00  0.00    -0.274 OA
ATOM     17  H1  UNL     1      48.313  10.864   2.479  1.00  0.00     0.163 HD
BRANCH  15  18
HETATM   18  C4  UNL     1      46.755  12.925   3.126  1.00  0.00     0.103 C 
BRANCH  18  19
HETATM   19  C3  UNL     1      46.429  14.230   2.507  1.00  0.00     0.009 C 
BRANCH  19  20
HETATM   20  C2  UNL     1      46.844  15.385   3.349  1.00  0.00    -0.004 C 
HETATM   21  C1  UNL     1      46.113  15.362   4.676  1.00  0.00     0.005 C 
ENDBRANCH  19  20
ENDBRANCH  18  19
ENDBRANCH  15  18
ENDBRANCH  13  14
BRANCH  13  22
HETATM   22  C22 UNL     1      47.399   9.819  -0.127  1.00  0.00     0.020 C 
HETATM   23  C23 UNL     1      48.326  10.920  -0.385  1.00  0.00     0.012 C 
HETATM   24  C24 UNL     1      47.845  12.207  -0.924  1.00  0.00    -0.008 C 
HETATM   25  C25 UNL     1      48.587  12.599  -2.213  1.00  0.00     0.005 C 
HETATM   26  C28 UNL     1      46.423  12.224  -1.391  1.00  0.00     0.019 C 
HETATM   27  C26 UNL     1      47.601  13.222  -3.136  1.00  0.00     0.001 C 
HETATM   28  C27 UNL     1      46.294  13.331  -2.415  1.00  0.00     0.007 C 
HETATM   29  C29 UNL     1      46.121  10.914  -2.017  1.00  0.00     0.133 C 
HETATM   30  O5  UNL     1      47.051  10.482  -2.929  1.00  0.00    -0.375 OA
HETATM   31  C33 UNL     1      46.152   9.809  -0.977  1.00  0.00     0.053 C 
HETATM   32  C30 UNL     1      46.900   9.118  -3.083  1.00  0.00     0.175 C 
HETATM   33  C31 UNL     1      45.731   8.630  -3.861  1.00  0.00     0.203 C 
HETATM   34  C32 UNL     1      46.077   8.623  -1.920  1.00  0.00     0.159 C 
HETATM   35  O6  UNL     1      44.959   8.643  -2.707  1.00  0.00    -0.380 OA
ENDBRANCH  13  22
ENDBRANCH  12  13
BRANCH  12  36
HETATM   36  O2  UNL     1      47.131   7.986   3.129  1.00  0.00    -0.391 OA
ATOM     37  H2  UNL     1      47.149   8.745   3.700  1.00  0.00     0.210 HD
ENDBRANCH  12  36
ENDBRANCH  11  12
BRANCH  11  38
HETATM   38  N3  UNL     1      50.081   7.621   1.408  1.00  0.00    -0.329 N 
HETATM   39  C17 UNL     1      51.087   8.256   0.604  1.00  0.00     0.361 C 
HETATM   40  O3  UNL     1      51.172   9.500   0.651  1.00  0.00    -0.238 OA
ATOM     41  H3  UNL     1      49.981   6.606   1.396  1.00  0.00     0.165 HD
BRANCH  39  42
HETATM   42  O4  UNL     1      51.939   7.544  -0.197  1.00  0.00    -0.294 OA
BRANCH  42  43
HETATM   43  C18 UNL     1      51.534   7.146  -1.502  1.00  0.00     0.061 C 
HETATM   44  C19 UNL     1      52.626   7.469  -2.502  1.00  0.00     0.046 C 
HETATM   45  C20 UNL     1      50.285   7.900  -1.927  1.00  0.00     0.046 C 
HETATM   46  C21 UNL     1      51.195   5.690  -1.467  1.00  0.00     0.046 C 
ENDBRANCH  42  43
ENDBRANCH  39  42
ENDBRANCH  11  38
ENDBRANCH  10  11
ENDBRANCH   1  10
TORSDOF 13
ENDMDL
MODEL 4
REMARK VINA RESULT: -6.539188258      2.589      5.022
REMARK  13 active torsions:
REMARK  status: ('A' for Active; 'I' for Inactive)
REMARK    1  A    between atoms: C2_2  and  C3_3 
REMARK    2  A    between atoms: C3_3  and  C4_4 
REMARK    3  A    between atoms: C4_4  and  C5_5 
REMARK       I    between atoms: C5_5  and  N1_7 
REMARK    4  A    between atoms: N1_7  and  C6_9 
REMARK    5  A    between atoms: C6_9  and  C7_10 
REMARK    6  A    between atoms: C6_9  and  C22_33 
REMARK    7  A    between atoms: C7_10  and  O2_11 
REMARK    8  A    between atoms: C7_10  and  C8_13 
REMARK    9  A    between atoms: C8_13  and  C9_14 
REMARK   10  A    between atoms: C8_13  and  N3_24 
REMARK   11  A    between atoms: C9_14  and  C10_15 
REMARK       I    between atoms: N3_24  and  C17_26 
REMARK   12  A    between atoms: C17_26  and  O4_28 
REMARK   13  A    between atoms: O4_28  and  C18_29 
ROOT
HETATM    1  C10 UNL     1      50.837   2.302   5.626  1.00  0.00    -0.035 A 
HETATM    2  C11 UNL     1      51.007   1.132   4.878  1.00  0.00     0.010 A 
HETATM    3  C12 UNL     1      52.042   0.257   5.063  1.00  0.00     0.024 A 
HETATM    4  C13 UNL     1      52.976   0.532   6.036  1.00  0.00     0.035 A 
HETATM    5 CL1  UNL     1      54.317  -0.568   6.301  1.00  0.00    -0.084 Cl
HETATM    6  C14 UNL     1      52.834   1.694   6.800  1.00  0.00     0.047 A 
HETATM    7  C15 UNL     1      51.776   2.566   6.595  1.00  0.00     0.052 A 
HETATM    8  C16 UNL     1      51.729   3.739   7.423  1.00  0.00     0.100 C 
HETATM    9  N2  UNL     1      51.705   4.694   8.075  1.00  0.00    -0.191 NA
ENDROOT
BRANCH   1  10
HETATM   10  C9  UNL     1      49.747   3.188   5.367  1.00  0.00     0.068 C 
BRANCH  10  11
HETATM   11  C8  UNL     1      49.603   3.751   3.938  1.00  0.00     0.121 C 
BRANCH  11  12
HETATM   12  C7  UNL     1      49.664   5.231   4.036  1.00  0.00     0.164 C 
BRANCH  12  13
HETATM   13  C6  UNL     1      50.754   5.939   3.348  1.00  0.00     0.119 C 
BRANCH  13  14
HETATM   14  N1  UNL     1      51.913   5.048   3.104  1.00  0.00    -0.354 N 
HETATM   15  C5  UNL     1      53.006   4.978   4.014  1.00  0.00     0.217 C 
HETATM   16  O1  UNL     1      53.031   5.674   5.067  1.00  0.00    -0.274 OA
ATOM     17  H1  UNL     1      51.928   4.471   2.263  1.00  0.00     0.163 HD
BRANCH  15  18
HETATM   18  C4  UNL     1      54.128   4.067   3.707  1.00  0.00     0.103 C 
BRANCH  18  19
HETATM   19  C3  UNL     1      53.783   2.844   2.945  1.00  0.00     0.009 C 
BRANCH  19  20
HETATM   20  C2  UNL     1      54.831   1.792   3.044  1.00  0.00    -0.004 C 
HETATM   21  C1  UNL     1      54.399   0.544   2.303  1.00  0.00     0.005 C 
ENDBRANCH  19  20
ENDBRANCH  18  19
ENDBRANCH  15  18
ENDBRANCH  13  14
BRANCH  13  22
HETATM   22  C22 UNL     1      50.388   6.553   1.989  1.00  0.00     0.020 C 
HETATM   23  C23 UNL     1      50.374   8.012   1.890  1.00  0.00     0.012 C 
HETATM   24  C24 UNL     1      49.101   8.755   1.802  1.00  0.00    -0.008 C 
HETATM   25  C25 UNL     1      49.057   9.666   0.564  1.00  0.00     0.005 C 
HETATM   26  C28 UNL     1      47.877   7.921   1.594  1.00  0.00     0.019 C 
HETATM   27  C26 UNL     1      47.676   9.623   0.014  1.00  0.00     0.001 C 
HETATM   28  C27 UNL     1      46.833   8.802   0.940  1.00  0.00     0.007 C 
HETATM   29  C29 UNL     1      48.226   6.794   0.695  1.00  0.00     0.133 C 
HETATM   30  O5  UNL     1      48.914   7.150  -0.437  1.00  0.00    -0.375 OA
HETATM   31  C33 UNL     1      49.198   5.851   1.381  1.00  0.00     0.053 C 
HETATM   32  C30 UNL     1      49.548   6.024  -0.926  1.00  0.00     0.175 C 
HETATM   33  C31 UNL     1      48.718   4.997  -1.606  1.00  0.00     0.203 C 
HETATM   34  C32 UNL     1      49.554   4.997   0.179  1.00  0.00     0.159 C 
HETATM   35  O6  UNL     1      48.464   4.393  -0.383  1.00  0.00    -0.380 OA
ENDBRANCH  13  22
ENDBRANCH  12  13
BRANCH  12  36
HETATM   36  O2  UNL     1      49.775   5.475   5.429  1.00  0.00    -0.391 OA
ATOM     37  H2  UNL     1      49.757   4.642   5.885  1.00  0.00     0.210 HD
ENDBRANCH  12  36
ENDBRANCH  11  12
BRANCH  11  38
HETATM   38  N3  UNL     1      48.278   3.230   3.554  1.00  0.00    -0.329 N 
HETATM   39  C17 UNL     1      48.172   2.250   2.511  1.00  0.00     0.361 C 
HETATM   40  O3  UNL     1      49.225   1.868   1.960  1.00  0.00    -0.238 OA
ATOM     41  H3  UNL     1      47.439   3.566   4.028  1.00  0.00     0.165 HD
BRANCH  39  42
HETATM   42  O4  UNL     1      46.969   1.732   2.114  1.00  0.00    -0.294 OA
BRANCH  42  43
HETATM   43  C18 UNL     1      46.409   0.614   2.793  1.00  0.00     0.061 C 
HETATM   44  C19 UNL     1      45.054   0.979   3.363  1.00  0.00     0.046 C 
HETATM   45  C20 UNL     1      47.296   0.193   3.953  1.00  0.00     0.046 C 
HETATM   46  C21 UNL     1      46.342  -0.533   1.834  1.00  0.00     0.046 C 
ENDBRANCH  42  43
ENDBRANCH  39  42
ENDBRANCH  11  38
ENDBRANCH  10  11
ENDBRANCH   1  10
TORSDOF 13
ENDMDL
MODEL 5
REMARK VINA RESULT: -6.507429872      3.784      9.158
REMARK  13 active torsions:
REMARK  status: ('A' for Active; 'I' for Inactive)
REMARK    1  A    between atoms: C2_2  and  C3_3 
REMARK    2  A    between atoms: C3_3  and  C4_4 
REMARK    3  A    between atoms: C4_4  and  C5_5 
REMARK       I    between atoms: C5_5  and  N1_7 
REMARK    4  A    between atoms: N1_7  and  C6_9 
REMARK    5  A    between atoms: C6_9  and  C7_10 
REMARK    6  A    between atoms: C6_9  and  C22_33 
REMARK    7  A    between atoms: C7_10  and  O2_11 
REMARK    8  A    between atoms: C7_10  and  C8_13 
REMARK    9  A    between atoms: C8_13  and  C9_14 
REMARK   10  A    between atoms: C8_13  and  N3_24 
REMARK   11  A    between atoms: C9_14  and  C10_15 
REMARK       I    between atoms: N3_24  and  C17_26 
REMARK   12  A    between atoms: C17_26  and  O4_28 
REMARK   13  A    between atoms: O4_28  and  C18_29 
ROOT
HETATM    1  C10 UNL     1      44.557  12.098  -0.559  1.00  0.00    -0.035 A 
HETATM    2  C11 UNL     1      44.568  13.464  -0.259  1.00  0.00     0.010 A 
HETATM    3  C12 UNL     1      44.387  14.448  -1.192  1.00  0.00     0.024 A 
HETATM    4  C13 UNL     1      44.184  14.087  -2.504  1.00  0.00     0.035 A 
HETATM    5 CL1  UNL     1      43.949  15.321  -3.728  1.00  0.00    -0.084 Cl
HETATM    6  C14 UNL     1      44.169  12.729  -2.837  1.00  0.00     0.047 A 
HETATM    7  C15 UNL     1      44.353  11.749  -1.874  1.00  0.00     0.052 A 
HETATM    8  C16 UNL     1      44.334  10.384  -2.320  1.00  0.00     0.100 C 
HETATM    9  N2  UNL     1      44.342   9.287  -2.686  1.00  0.00    -0.191 NA
ENDROOT
BRANCH   1  10
HETATM   10  C9  UNL     1      44.777  11.120   0.458  1.00  0.00     0.068 C 
BRANCH  10  11
HETATM   11  C8  UNL     1      46.211  10.960   1.004  1.00  0.00     0.121 C 
BRANCH  11  12
HETATM   12  C7  UNL     1      46.475   9.505   1.137  1.00  0.00     0.164 C 
BRANCH  12  13
HETATM   13  C6  UNL     1      47.822   9.066   1.532  1.00  0.00     0.119 C 
BRANCH  13  14
HETATM   14  N1  UNL     1      47.765   7.999   2.560  1.00  0.00    -0.354 N 
HETATM   15  C5  UNL     1      48.682   7.961   3.650  1.00  0.00     0.217 C 
HETATM   16  O1  UNL     1      49.580   8.837   3.784  1.00  0.00    -0.274 OA
ATOM     17  H1  UNL     1      47.052   7.273   2.484  1.00  0.00     0.163 HD
BRANCH  15  18
HETATM   18  C4  UNL     1      48.566   6.868   4.637  1.00  0.00     0.103 C 
BRANCH  18  19
HETATM   19  C3  UNL     1      49.301   5.622   4.318  1.00  0.00     0.009 C 
BRANCH  19  20
HETATM   20  C2  UNL     1      50.474   5.404   5.207  1.00  0.00    -0.004 C 
HETATM   21  C1  UNL     1      51.717   6.025   4.605  1.00  0.00     0.005 C 
ENDBRANCH  19  20
ENDBRANCH  18  19
ENDBRANCH  15  18
ENDBRANCH  13  14
BRANCH  13  22
HETATM   22  C22 UNL     1      48.701   8.525   0.396  1.00  0.00     0.020 C 
HETATM   23  C23 UNL     1      48.547   7.115   0.038  1.00  0.00     0.012 C 
HETATM   24  C24 UNL     1      49.581   6.124   0.394  1.00  0.00    -0.008 C 
HETATM   25  C25 UNL     1      50.081   5.353  -0.839  1.00  0.00     0.005 C 
HETATM   26  C28 UNL     1      50.862   6.685   0.925  1.00  0.00     0.019 C 
HETATM   27  C26 UNL     1      51.546   5.146  -0.686  1.00  0.00     0.001 C 
HETATM   28  C27 UNL     1      51.950   5.667   0.659  1.00  0.00     0.007 C 
HETATM   29  C29 UNL     1      51.156   7.946   0.200  1.00  0.00     0.133 C 
HETATM   30  O5  UNL     1      51.053   7.863  -1.165  1.00  0.00    -0.375 OA
HETATM   31  C33 UNL     1      50.124   9.006   0.539  1.00  0.00     0.053 C 
HETATM   32  C30 UNL     1      50.905   9.143  -1.663  1.00  0.00     0.175 C 
HETATM   33  C31 UNL     1      52.100  10.026  -1.684  1.00  0.00     0.203 C 
HETATM   34  C32 UNL     1      50.519  10.032  -0.507  1.00  0.00     0.159 C 
HETATM   35  O6  UNL     1      51.820  10.435  -0.388  1.00  0.00    -0.380 OA
ENDBRANCH  13  22
ENDBRANCH  12  13
BRANCH  12  36
HETATM   36  O2  UNL     1      46.190   8.988  -0.153  1.00  0.00    -0.391 OA
ATOM     37  H2  UNL     1      45.344   8.558  -0.127  1.00  0.00     0.210 HD
ENDBRANCH  12  36
ENDBRANCH  11  12
BRANCH  11  38
HETATM   38  N3  UNL     1      46.112  11.671   2.291  1.00  0.00    -0.329 N 
HETATM   39  C17 UNL     1      46.841  12.892   2.489  1.00  0.00     0.361 C 
HETATM   40  O3  UNL     1      47.543  13.312   1.547  1.00  0.00    -0.238 OA
ATOM     41  H3  UNL     1      45.527  11.297   3.039  1.00  0.00     0.165 HD
BRANCH  39  42
HETATM   42  O4  UNL     1      46.786  13.594   3.663  1.00  0.00    -0.294 OA
BRANCH  42  43
HETATM   43  C18 UNL     1      46.303  14.932   3.679  1.00  0.00     0.061 C 
HETATM   44  C19 UNL     1      45.198  15.095   2.654  1.00  0.00     0.046 C 
HETATM   45  C20 UNL     1      47.412  15.906   3.316  1.00  0.00     0.046 C 
HETATM   46  C21 UNL     1      45.853  15.255   5.069  1.00  0.00     0.046 C 
ENDBRANCH  42  43
ENDBRANCH  39  42
ENDBRANCH  11  38
ENDBRANCH  10  11
ENDBRANCH   1  10
TORSDOF 13
ENDMDL
