MODEL 1
REMARK VINA RESULT: -9.513234826      0.000      0.000
REMARK  13 active torsions:
REMARK  status: ('A' for Active; 'I' for Inactive)
REMARK    1  A    between atoms: C2_2  and  C3_3 
REMARK    2  A    between atoms: C2_2  and  C14_21 
REMARK    3  A    between atoms: C3_3  and  C4_4 
REMARK    4  A    between atoms: C4_4  and  C5_5 
REMARK    5  A    between atoms: C8_8  and  O1_9 
REMARK    6  A    between atoms: O1_9  and  C9_10 
REMARK    7  A    between atoms: C9_10  and  C10_12 
REMARK    8  A    between atoms: C10_12  and  C11_13 
REMARK    9  A    between atoms: C10_12  and  N1_15 
REMARK   10  A    between atoms: C21_28  and  C22_29 
REMARK   11  A    between atoms: C22_29  and  C23_30 
REMARK   12  A    between atoms: C22_29  and  C24_32 
REMARK   13  A    between atoms: C30_41  and  O6_42 
ROOT
HETATM    1  C14 UNL     1      48.732   9.012   2.187  1.00  0.00     0.043 C 
HETATM    2  C15 UNL     1      49.582   8.987   0.934  1.00  0.00     0.018 C 
HETATM    3  C16 UNL     1      49.161  10.165   0.131  1.00  0.00     0.040 C 
HETATM    4  C17 UNL     1      47.953  10.735   0.849  1.00  0.00    -0.049 C 
HETATM    5  C18 UNL     1      47.758  10.063   1.945  1.00  0.00    -0.065 C 
HETATM    6  C19 UNL     1      46.469  10.436   2.665  1.00  0.00     0.040 C 
HETATM    7  C20 UNL     1      46.184  11.842   2.667  1.00  0.00     0.040 C 
HETATM    8  C21 UNL     1      46.429  12.573   1.331  1.00  0.00    -0.062 C 
HETATM    9  C33 UNL     1      47.261  12.011   0.531  1.00  0.00    -0.052 C 
HETATM   10  C34 UNL     1      47.557  12.514  -0.849  1.00  0.00     0.049 C 
ENDROOT
BRANCH   1  11
HETATM   11  C2  UNL     1      48.328   7.668   2.586  1.00  0.00    -0.081 C 
HETATM   12  C1  UNL     1      47.841   7.375   3.757  1.00  0.00     0.015 C 
BRANCH  11  13
HETATM   13  C3  UNL     1      48.500   6.564   1.578  1.00  0.00     0.038 C 
BRANCH  13  14
HETATM   14  C4  UNL     1      49.079   5.329   2.111  1.00  0.00     0.034 C 
BRANCH  14  15
HETATM   15  C5  UNL     1      50.561   5.356   2.032  1.00  0.00     0.006 C 
HETATM   16  C6  UNL     1      51.231   5.304   3.187  1.00  0.00     0.055 A 
HETATM   17  C7  UNL     1      50.610   5.224   4.520  1.00  0.00     0.132 A 
HETATM   18  O3  UNL     1      52.600   5.315   3.380  1.00  0.00    -0.325 OA
HETATM   19  C8  UNL     1      51.760   5.197   5.443  1.00  0.00     0.085 A 
HETATM   20  C13 UNL     1      52.856   5.250   4.738  1.00  0.00     0.175 A 
BRANCH  19  21
HETATM   21  O1  UNL     1      51.735   5.127   6.851  1.00  0.00    -0.279 OA
BRANCH  21  22
HETATM   22  C9  UNL     1      51.513   3.922   7.497  1.00  0.00     0.296 C 
HETATM   23  O2  UNL     1      51.365   3.996   8.751  1.00  0.00    -0.262 OA
BRANCH  22  24
HETATM   24  C10 UNL     1      51.448   2.620   6.801  1.00  0.00     0.298 C 
BRANCH  24  25
HETATM   25  C11 UNL     1      50.075   2.027   6.960  1.00  0.00     0.158 C 
HETATM   26 CL1  UNL     1      49.265   2.029   5.380  1.00  0.00    -0.128 Cl
ENDBRANCH  24  25
BRANCH  24  27
HETATM   27  N1  UNL     1      52.479   1.709   7.252  1.00  0.00    -0.065 N 
HETATM   28  C12 UNL     1      53.384   1.316   6.226  1.00  0.00     0.268 C 
ATOM     29  H12 UNL     1      52.984   2.102   8.047  1.00  0.00     0.277 HD
ATOM     30  H11 UNL     1      52.066   0.891   7.700  1.00  0.00     0.277 HD
ENDBRANCH  24  27
ENDBRANCH  22  24
ENDBRANCH  21  22
ENDBRANCH  19  21
ENDBRANCH  14  15
ENDBRANCH  13  14
ENDBRANCH  11  13
ENDBRANCH   1  11
BRANCH   8  31
HETATM   31  C22 UNL     1      45.722  13.840   1.267  1.00  0.00     0.082 C 
BRANCH  31  32
HETATM   32  C23 UNL     1      44.559  13.567   0.304  1.00  0.00     0.240 C 
HETATM   33  O4  UNL     1      44.612  14.020  -0.794  1.00  0.00    -0.306 OA
ENDBRANCH  31  32
BRANCH  31  34
HETATM   34  C24 UNL     1      45.173  14.618   2.357  1.00  0.00     0.020 C 
HETATM   35  C25 UNL     1      44.131  15.611   1.856  1.00  0.00     0.034 C 
HETATM   36  C26 UNL     1      44.745  16.962   2.005  1.00  0.00    -0.022 C 
HETATM   37  C27 UNL     1      45.852  16.915   2.667  1.00  0.00    -0.062 C 
HETATM   38  C28 UNL     1      46.850  17.933   3.102  1.00  0.00     0.137 C 
HETATM   39  C31 UNL     1      46.136  15.526   3.071  1.00  0.00     0.028 C 
HETATM   40  C29 UNL     1      47.113  17.670   4.575  1.00  0.00     0.223 C 
HETATM   41  O5  UNL     1      47.735  18.551   5.204  1.00  0.00    -0.273 OA
HETATM   42  N2  UNL     1      46.671  16.477   5.202  1.00  0.00    -0.334 N 
HETATM   43  C30 UNL     1      45.753  15.532   4.583  1.00  0.00     0.233 C 
ATOM     44  H2  UNL     1      47.015  16.269   6.139  1.00  0.00     0.165 HD
HETATM   45  C32 UNL     1      47.572  15.160   3.043  1.00  0.00     0.025 C 
BRANCH  43  46
HETATM   46  O6  UNL     1      44.455  15.932   4.773  1.00  0.00    -0.376 OA
ATOM     47  H6  UNL     1      43.861  15.373   4.286  1.00  0.00     0.212 HD
ENDBRANCH  43  46
ENDBRANCH  31  34
ENDBRANCH   8  31
TORSDOF 13
ENDMDL
MODEL 2
REMARK VINA RESULT: -9.294357014      1.053      1.413
REMARK  13 active torsions:
REMARK  status: ('A' for Active; 'I' for Inactive)
REMARK    1  A    between atoms: C2_2  and  C3_3 
REMARK    2  A    between atoms: C2_2  and  C14_21 
REMARK    3  A    between atoms: C3_3  and  C4_4 
REMARK    4  A    between atoms: C4_4  and  C5_5 
REMARK    5  A    between atoms: C8_8  and  O1_9 
REMARK    6  A    between atoms: O1_9  and  C9_10 
REMARK    7  A    between atoms: C9_10  and  C10_12 
REMARK    8  A    between atoms: C10_12  and  C11_13 
REMARK    9  A    between atoms: C10_12  and  N1_15 
REMARK   10  A    between atoms: C21_28  and  C22_29 
REMARK   11  A    between atoms: C22_29  and  C23_30 
REMARK   12  A    between atoms: C22_29  and  C24_32 
REMARK   13  A    between atoms: C30_41  and  O6_42 
ROOT
HETATM    1  C14 UNL     1      48.970   9.328   1.423  1.00  0.00     0.043 C 
HETATM    2  C15 UNL     1      49.602   9.370   0.047  1.00  0.00     0.018 C 
HETATM    3  C16 UNL     1      48.997  10.538  -0.645  1.00  0.00     0.040 C 
HETATM    4  C17 UNL     1      47.897  11.030   0.275  1.00  0.00    -0.049 C 
HETATM    5  C18 UNL     1      47.918  10.330   1.371  1.00  0.00    -0.065 C 
HETATM    6  C19 UNL     1      46.749  10.622   2.301  1.00  0.00     0.040 C 
HETATM    7  C20 UNL     1      46.398  12.010   2.386  1.00  0.00     0.040 C 
HETATM    8  C21 UNL     1      46.383  12.776   1.046  1.00  0.00    -0.062 C 
HETATM    9  C33 UNL     1      47.099  12.272   0.108  1.00  0.00    -0.052 C 
HETATM   10  C34 UNL     1      47.139  12.814  -1.290  1.00  0.00     0.049 C 
ENDROOT
BRANCH   1  11
HETATM   11  C2  UNL     1      48.705   7.958   1.849  1.00  0.00    -0.081 C 
HETATM   12  C1  UNL     1      47.946   7.129   1.192  1.00  0.00     0.015 C 
BRANCH  11  13
HETATM   13  C3  UNL     1      49.347   7.493   3.127  1.00  0.00     0.038 C 
BRANCH  13  14
HETATM   14  C4  UNL     1      50.735   7.924   3.312  1.00  0.00     0.034 C 
BRANCH  14  15
HETATM   15  C5  UNL     1      51.675   7.008   2.619  1.00  0.00     0.006 C 
HETATM   16  C6  UNL     1      52.283   6.084   3.369  1.00  0.00     0.055 A 
HETATM   17  C7  UNL     1      52.090   5.912   4.818  1.00  0.00     0.132 A 
HETATM   18  O3  UNL     1      53.194   5.124   2.966  1.00  0.00    -0.325 OA
HETATM   19  C8  UNL     1      52.976   4.783   5.160  1.00  0.00     0.085 A 
HETATM   20  C13 UNL     1      53.571   4.381   4.071  1.00  0.00     0.175 A 
BRANCH  19  21
HETATM   21  O1  UNL     1      53.182   4.201   6.428  1.00  0.00    -0.279 OA
BRANCH  21  22
HETATM   22  C9  UNL     1      52.108   3.789   7.201  1.00  0.00     0.296 C 
HETATM   23  O2  UNL     1      51.639   4.661   7.987  1.00  0.00    -0.262 OA
BRANCH  22  24
HETATM   24  C10 UNL     1      51.525   2.432   7.137  1.00  0.00     0.298 C 
BRANCH  24  25
HETATM   25  C11 UNL     1      52.599   1.434   6.800  1.00  0.00     0.158 C 
HETATM   26 CL1  UNL     1      52.492   1.042   5.072  1.00  0.00    -0.128 Cl
ENDBRANCH  24  25
BRANCH  24  27
HETATM   27  N1  UNL     1      50.417   2.359   6.209  1.00  0.00    -0.065 N 
HETATM   28  C12 UNL     1      49.327   1.575   6.682  1.00  0.00     0.268 C 
ATOM     29  H12 UNL     1      50.102   3.294   5.950  1.00  0.00     0.277 HD
ATOM     30  H11 UNL     1      50.731   2.026   5.298  1.00  0.00     0.277 HD
ENDBRANCH  24  27
ENDBRANCH  22  24
ENDBRANCH  21  22
ENDBRANCH  19  21
ENDBRANCH  14  15
ENDBRANCH  13  14
ENDBRANCH  11  13
ENDBRANCH   1  11
BRANCH   8  31
HETATM   31  C22 UNL     1      45.613  14.004   1.132  1.00  0.00     0.082 C 
BRANCH  31  32
HETATM   32  C23 UNL     1      44.384  13.733   0.253  1.00  0.00     0.240 C 
HETATM   33  O4  UNL     1      44.271  14.334  -0.767  1.00  0.00    -0.306 OA
ENDBRANCH  31  32
BRANCH  31  34
HETATM   34  C24 UNL     1      45.124  14.678   2.315  1.00  0.00     0.020 C 
HETATM   35  C25 UNL     1      44.004  15.652   1.973  1.00  0.00     0.034 C 
HETATM   36  C26 UNL     1      44.570  17.017   2.170  1.00  0.00    -0.022 C 
HETATM   37  C27 UNL     1      45.730  16.978   2.736  1.00  0.00    -0.062 C 
HETATM   38  C28 UNL     1      46.717  18.010   3.163  1.00  0.00     0.137 C 
HETATM   39  C31 UNL     1      46.105  15.580   3.014  1.00  0.00     0.028 C 
HETATM   40  C29 UNL     1      47.113  17.659   4.586  1.00  0.00     0.223 C 
HETATM   41  O5  UNL     1      47.747  18.524   5.226  1.00  0.00    -0.273 OA
HETATM   42  N2  UNL     1      46.775  16.405   5.158  1.00  0.00    -0.334 N 
HETATM   43  C30 UNL     1      45.849  15.462   4.548  1.00  0.00     0.233 C 
ATOM     44  H2  UNL     1      47.204  16.150   6.047  1.00  0.00     0.165 HD
HETATM   45  C32 UNL     1      47.547  15.285   2.844  1.00  0.00     0.025 C 
BRANCH  43  46
HETATM   46  O6  UNL     1      44.556  15.786   4.870  1.00  0.00    -0.376 OA
ATOM     47  H6  UNL     1      44.302  16.598   4.447  1.00  0.00     0.212 HD
ENDBRANCH  43  46
ENDBRANCH  31  34
ENDBRANCH   8  31
TORSDOF 13
ENDMDL
MODEL 3
REMARK VINA RESULT: -9.241735455      0.844      1.056
REMARK  13 active torsions:
REMARK  status: ('A' for Active; 'I' for Inactive)
REMARK    1  A    between atoms: C2_2  and  C3_3 
REMARK    2  A    between atoms: C2_2  and  C14_21 
REMARK    3  A    between atoms: C3_3  and  C4_4 
REMARK    4  A    between atoms: C4_4  and  C5_5 
REMARK    5  A    between atoms: C8_8  and  O1_9 
REMARK    6  A    between atoms: O1_9  and  C9_10 
REMARK    7  A    between atoms: C9_10  and  C10_12 
REMARK    8  A    between atoms: C10_12  and  C11_13 
REMARK    9  A    between atoms: C10_12  and  N1_15 
REMARK   10  A    between atoms: C21_28  and  C22_29 
REMARK   11  A    between atoms: C22_29  and  C23_30 
REMARK   12  A    between atoms: C22_29  and  C24_32 
REMARK   13  A    between atoms: C30_41  and  O6_42 
ROOT
HETATM    1  C14 UNL     1      48.822   9.310   1.565  1.00  0.00     0.043 C 
HETATM    2  C15 UNL     1      49.368   9.241   0.154  1.00  0.00     0.018 C 
HETATM    3  C16 UNL     1      48.753  10.379  -0.579  1.00  0.00     0.040 C 
HETATM    4  C17 UNL     1      47.725  10.965   0.371  1.00  0.00    -0.049 C 
HETATM    5  C18 UNL     1      47.795  10.338   1.508  1.00  0.00    -0.065 C 
HETATM    6  C19 UNL     1      46.695  10.727   2.485  1.00  0.00     0.040 C 
HETATM    7  C20 UNL     1      46.387  12.128   2.496  1.00  0.00     0.040 C 
HETATM    8  C21 UNL     1      46.310  12.804   1.111  1.00  0.00    -0.062 C 
HETATM    9  C33 UNL     1      46.952  12.217   0.168  1.00  0.00    -0.052 C 
HETATM   10  C34 UNL     1      46.920  12.664  -1.263  1.00  0.00     0.049 C 
ENDROOT
BRANCH   1  11
HETATM   11  C2  UNL     1      48.546   7.980   2.097  1.00  0.00    -0.081 C 
HETATM   12  C1  UNL     1      47.942   7.041   1.427  1.00  0.00     0.015 C 
BRANCH  11  13
HETATM   13  C3  UNL     1      48.984   7.693   3.508  1.00  0.00     0.038 C 
BRANCH  13  14
HETATM   14  C4  UNL     1      50.368   8.067   3.810  1.00  0.00     0.034 C 
BRANCH  14  15
HETATM   15  C5  UNL     1      51.325   7.279   2.993  1.00  0.00     0.006 C 
HETATM   16  C6  UNL     1      52.003   6.313   3.620  1.00  0.00     0.055 A 
HETATM   17  C7  UNL     1      51.873   5.979   5.047  1.00  0.00     0.132 A 
HETATM   18  O3  UNL     1      52.943   5.449   3.087  1.00  0.00    -0.325 OA
HETATM   19  C8  UNL     1      52.823   4.867   5.236  1.00  0.00     0.085 A 
HETATM   20  C13 UNL     1      53.396   4.614   4.093  1.00  0.00     0.175 A 
BRANCH  19  21
HETATM   21  O1  UNL     1      53.103   4.164   6.427  1.00  0.00    -0.279 OA
BRANCH  21  22
HETATM   22  C9  UNL     1      52.161   3.318   6.989  1.00  0.00     0.296 C 
HETATM   23  O2  UNL     1      51.489   3.809   7.941  1.00  0.00    -0.262 OA
BRANCH  22  24
HETATM   24  C10 UNL     1      51.930   1.931   6.532  1.00  0.00     0.298 C 
BRANCH  24  25
HETATM   25  C11 UNL     1      50.476   1.580   6.692  1.00  0.00     0.158 C 
HETATM   26 CL1  UNL     1      49.534   2.480   5.487  1.00  0.00    -0.128 Cl
ENDBRANCH  24  25
BRANCH  24  27
HETATM   27  N1  UNL     1      52.787   0.984   7.212  1.00  0.00    -0.065 N 
HETATM   28  C12 UNL     1      53.684   0.299   6.345  1.00  0.00     0.268 C 
ATOM     29  H12 UNL     1      53.296   1.439   7.971  1.00  0.00     0.277 HD
ATOM     30  H11 UNL     1      52.233   0.321   7.753  1.00  0.00     0.277 HD
ENDBRANCH  24  27
ENDBRANCH  22  24
ENDBRANCH  21  22
ENDBRANCH  19  21
ENDBRANCH  14  15
ENDBRANCH  13  14
ENDBRANCH  11  13
ENDBRANCH   1  11
BRANCH   8  31
HETATM   31  C22 UNL     1      45.580  14.059   1.159  1.00  0.00     0.082 C 
BRANCH  31  32
HETATM   32  C23 UNL     1      44.368  13.817   0.248  1.00  0.00     0.240 C 
HETATM   33  O4  UNL     1      44.234  14.505  -0.713  1.00  0.00    -0.306 OA
ENDBRANCH  31  32
BRANCH  31  34
HETATM   34  C24 UNL     1      45.081  14.764   2.320  1.00  0.00     0.020 C 
HETATM   35  C25 UNL     1      44.006  15.772   1.933  1.00  0.00     0.034 C 
HETATM   36  C26 UNL     1      44.614  17.118   2.130  1.00  0.00    -0.022 C 
HETATM   37  C27 UNL     1      45.754  17.047   2.731  1.00  0.00    -0.062 C 
HETATM   38  C28 UNL     1      46.764  18.050   3.174  1.00  0.00     0.137 C 
HETATM   39  C31 UNL     1      46.072  15.640   3.037  1.00  0.00     0.028 C 
HETATM   40  C29 UNL     1      47.106  17.703   4.613  1.00  0.00     0.223 C 
HETATM   41  O5  UNL     1      47.751  18.554   5.261  1.00  0.00    -0.273 OA
HETATM   42  N2  UNL     1      46.708  16.470   5.189  1.00  0.00    -0.334 N 
HETATM   43  C30 UNL     1      45.768  15.552   4.563  1.00  0.00     0.233 C 
ATOM     44  H2  UNL     1      47.102  16.211   6.094  1.00  0.00     0.165 HD
HETATM   45  C32 UNL     1      47.507  15.294   2.913  1.00  0.00     0.025 C 
BRANCH  43  46
HETATM   46  O6  UNL     1      44.478  15.924   4.844  1.00  0.00    -0.376 OA
ATOM     47  H6  UNL     1      43.867  15.267   4.529  1.00  0.00     0.212 HD
ENDBRANCH  43  46
ENDBRANCH  31  34
ENDBRANCH   8  31
TORSDOF 13
ENDMDL
MODEL 4
REMARK VINA RESULT: -9.145069123      1.265      1.658
REMARK  13 active torsions:
REMARK  status: ('A' for Active; 'I' for Inactive)
REMARK    1  A    between atoms: C2_2  and  C3_3 
REMARK    2  A    between atoms: C2_2  and  C14_21 
REMARK    3  A    between atoms: C3_3  and  C4_4 
REMARK    4  A    between atoms: C4_4  and  C5_5 
REMARK    5  A    between atoms: C8_8  and  O1_9 
REMARK    6  A    between atoms: O1_9  and  C9_10 
REMARK    7  A    between atoms: C9_10  and  C10_12 
REMARK    8  A    between atoms: C10_12  and  C11_13 
REMARK    9  A    between atoms: C10_12  and  N1_15 
REMARK   10  A    between atoms: C21_28  and  C22_29 
REMARK   11  A    between atoms: C22_29  and  C23_30 
REMARK   12  A    between atoms: C22_29  and  C24_32 
REMARK   13  A    between atoms: C30_41  and  O6_42 
ROOT
HETATM    1  C14 UNL     1      48.783   9.017   2.077  1.00  0.00     0.043 C 
HETATM    2  C15 UNL     1      49.659   9.044   0.842  1.00  0.00     0.018 C 
HETATM    3  C16 UNL     1      49.239  10.241   0.068  1.00  0.00     0.040 C 
HETATM    4  C17 UNL     1      48.007  10.771   0.777  1.00  0.00    -0.049 C 
HETATM    5  C18 UNL     1      47.798  10.061   1.847  1.00  0.00    -0.065 C 
HETATM    6  C19 UNL     1      46.490  10.393   2.550  1.00  0.00     0.040 C 
HETATM    7  C20 UNL     1      46.183  11.794   2.590  1.00  0.00     0.040 C 
HETATM    8  C21 UNL     1      46.446  12.571   1.283  1.00  0.00    -0.062 C 
HETATM    9  C33 UNL     1      47.303  12.046   0.485  1.00  0.00    -0.052 C 
HETATM   10  C34 UNL     1      47.622  12.597  -0.872  1.00  0.00     0.049 C 
ENDROOT
BRANCH   1  11
HETATM   11  C2  UNL     1      48.390   7.655   2.424  1.00  0.00    -0.081 C 
HETATM   12  C1  UNL     1      48.160   6.721   1.548  1.00  0.00     0.015 C 
BRANCH  11  13
HETATM   13  C3  UNL     1      48.238   7.330   3.885  1.00  0.00     0.038 C 
BRANCH  13  14
HETATM   14  C4  UNL     1      49.047   6.201   4.352  1.00  0.00     0.034 C 
BRANCH  14  15
HETATM   15  C5  UNL     1      50.495   6.521   4.291  1.00  0.00     0.006 C 
HETATM   16  C6  UNL     1      51.324   5.701   4.945  1.00  0.00     0.055 A 
HETATM   17  C7  UNL     1      50.908   4.517   5.714  1.00  0.00     0.132 A 
HETATM   18  O3  UNL     1      52.701   5.782   5.041  1.00  0.00    -0.325 OA
HETATM   19  C8  UNL     1      52.176   3.972   6.234  1.00  0.00     0.085 A 
HETATM   20  C13 UNL     1      53.152   4.730   5.819  1.00  0.00     0.175 A 
BRANCH  19  21
HETATM   21  O1  UNL     1      52.357   2.832   7.045  1.00  0.00    -0.279 OA
BRANCH  21  22
HETATM   22  C9  UNL     1      52.340   1.561   6.494  1.00  0.00     0.296 C 
HETATM   23  O2  UNL     1      51.278   0.900   6.683  1.00  0.00    -0.262 OA
BRANCH  22  24
HETATM   24  C10 UNL     1      53.467   0.984   5.731  1.00  0.00     0.298 C 
BRANCH  24  25
HETATM   25  C11 UNL     1      52.991  -0.206   4.943  1.00  0.00     0.158 C 
HETATM   26 CL1  UNL     1      52.437   0.348   3.350  1.00  0.00    -0.128 Cl
ENDBRANCH  24  25
BRANCH  24  27
HETATM   27  N1  UNL     1      54.586   0.647   6.584  1.00  0.00    -0.065 N 
HETATM   28  C12 UNL     1      55.368  -0.439   6.099  1.00  0.00     0.268 C 
ATOM     29  H12 UNL     1      55.171   1.466   6.751  1.00  0.00     0.277 HD
ATOM     30  H11 UNL     1      54.271   0.465   7.537  1.00  0.00     0.277 HD
ENDBRANCH  24  27
ENDBRANCH  22  24
ENDBRANCH  21  22
ENDBRANCH  19  21
ENDBRANCH  14  15
ENDBRANCH  13  14
ENDBRANCH  11  13
ENDBRANCH   1  11
BRANCH   8  31
HETATM   31  C22 UNL     1      45.722  13.829   1.244  1.00  0.00     0.082 C 
BRANCH  31  32
HETATM   32  C23 UNL     1      44.546  13.551   0.299  1.00  0.00     0.240 C 
HETATM   33  O4  UNL     1      44.592  13.983  -0.808  1.00  0.00    -0.306 OA
ENDBRANCH  31  32
BRANCH  31  34
HETATM   34  C24 UNL     1      45.182  14.590   2.351  1.00  0.00     0.020 C 
HETATM   35  C25 UNL     1      44.120  15.574   1.877  1.00  0.00     0.034 C 
HETATM   36  C26 UNL     1      44.719  16.931   2.029  1.00  0.00    -0.022 C 
HETATM   37  C27 UNL     1      45.838  16.891   2.673  1.00  0.00    -0.062 C 
HETATM   38  C28 UNL     1      46.831  17.918   3.101  1.00  0.00     0.137 C 
HETATM   39  C31 UNL     1      46.146  15.503   3.058  1.00  0.00     0.028 C 
HETATM   40  C29 UNL     1      47.122  17.644   4.566  1.00  0.00     0.223 C 
HETATM   41  O5  UNL     1      47.743  18.526   5.194  1.00  0.00    -0.273 OA
HETATM   42  N2  UNL     1      46.705  16.439   5.188  1.00  0.00    -0.334 N 
HETATM   43  C30 UNL     1      45.788  15.488   4.576  1.00  0.00     0.233 C 
ATOM     44  H2  UNL     1      47.067  16.226   6.118  1.00  0.00     0.165 HD
HETATM   45  C32 UNL     1      47.585  15.155   3.002  1.00  0.00     0.025 C 
BRANCH  43  46
HETATM   46  O6  UNL     1      44.489  15.871   4.792  1.00  0.00    -0.376 OA
ATOM     47  H6  UNL     1      43.917  15.485   4.138  1.00  0.00     0.212 HD
ENDBRANCH  43  46
ENDBRANCH  31  34
ENDBRANCH   8  31
TORSDOF 13
ENDMDL
MODEL 5
REMARK VINA RESULT: -9.125080731      1.362      1.691
REMARK  13 active torsions:
REMARK  status: ('A' for Active; 'I' for Inactive)
REMARK    1  A    between atoms: C2_2  and  C3_3 
REMARK    2  A    between atoms: C2_2  and  C14_21 
REMARK    3  A    between atoms: C3_3  and  C4_4 
REMARK    4  A    between atoms: C4_4  and  C5_5 
REMARK    5  A    between atoms: C8_8  and  O1_9 
REMARK    6  A    between atoms: O1_9  and  C9_10 
REMARK    7  A    between atoms: C9_10  and  C10_12 
REMARK    8  A    between atoms: C10_12  and  C11_13 
REMARK    9  A    between atoms: C10_12  and  N1_15 
REMARK   10  A    between atoms: C21_28  and  C22_29 
REMARK   11  A    between atoms: C22_29  and  C23_30 
REMARK   12  A    between atoms: C22_29  and  C24_32 
REMARK   13  A    between atoms: C30_41  and  O6_42 
ROOT
HETATM    1  C14 UNL     1      48.773   9.021   2.163  1.00  0.00     0.043 C 
HETATM    2  C15 UNL     1      49.612   9.001   0.902  1.00  0.00     0.018 C 
HETATM    3  C16 UNL     1      49.175  10.174   0.101  1.00  0.00     0.040 C 
HETATM    4  C17 UNL     1      47.968  10.735   0.829  1.00  0.00    -0.049 C 
HETATM    5  C18 UNL     1      47.788  10.064   1.928  1.00  0.00    -0.065 C 
HETATM    6  C19 UNL     1      46.503  10.428   2.658  1.00  0.00     0.040 C 
HETATM    7  C20 UNL     1      46.206  11.831   2.660  1.00  0.00     0.040 C 
HETATM    8  C21 UNL     1      46.433  12.562   1.320  1.00  0.00    -0.062 C 
HETATM    9  C33 UNL     1      47.262  12.004   0.515  1.00  0.00    -0.052 C 
HETATM   10  C34 UNL     1      47.542  12.507  -0.869  1.00  0.00     0.049 C 
ENDROOT
BRANCH   1  11
HETATM   11  C2  UNL     1      48.384   7.675   2.569  1.00  0.00    -0.081 C 
HETATM   12  C1  UNL     1      47.940   7.375   3.755  1.00  0.00     0.015 C 
BRANCH  11  13
HETATM   13  C3  UNL     1      48.519   6.577   1.549  1.00  0.00     0.038 C 
BRANCH  13  14
HETATM   14  C4  UNL     1      49.520   5.558   1.870  1.00  0.00     0.034 C 
BRANCH  14  15
HETATM   15  C5  UNL     1      48.894   4.219   2.007  1.00  0.00     0.006 C 
HETATM   16  C6  UNL     1      49.089   3.575   3.162  1.00  0.00     0.055 A 
HETATM   17  C7  UNL     1      49.873   4.093   4.295  1.00  0.00     0.132 A 
HETATM   18  O3  UNL     1      48.618   2.328   3.532  1.00  0.00    -0.325 OA
HETATM   19  C8  UNL     1      49.786   3.018   5.302  1.00  0.00     0.085 A 
HETATM   20  C13 UNL     1      49.064   2.050   4.812  1.00  0.00     0.175 A 
BRANCH  19  21
HETATM   21  O1  UNL     1      50.367   2.992   6.588  1.00  0.00    -0.279 OA
BRANCH  21  22
HETATM   22  C9  UNL     1      51.636   3.505   6.802  1.00  0.00     0.296 C 
HETATM   23  O2  UNL     1      51.677   4.705   7.200  1.00  0.00    -0.262 OA
BRANCH  22  24
HETATM   24  C10 UNL     1      52.878   2.733   6.592  1.00  0.00     0.298 C 
BRANCH  24  25
HETATM   25  C11 UNL     1      53.175   2.640   5.120  1.00  0.00     0.158 C 
HETATM   26 CL1  UNL     1      53.552   4.265   4.510  1.00  0.00    -0.128 Cl
ENDBRANCH  24  25
BRANCH  24  27
HETATM   27  N1  UNL     1      52.816   1.425   7.207  1.00  0.00    -0.065 N 
HETATM   28  C12 UNL     1      53.208   0.366   6.340  1.00  0.00     0.268 C 
ATOM     29  H12 UNL     1      53.362   1.406   8.069  1.00  0.00     0.277 HD
ATOM     30  H11 UNL     1      51.887   1.250   7.591  1.00  0.00     0.277 HD
ENDBRANCH  24  27
ENDBRANCH  22  24
ENDBRANCH  21  22
ENDBRANCH  19  21
ENDBRANCH  14  15
ENDBRANCH  13  14
ENDBRANCH  11  13
ENDBRANCH   1  11
BRANCH   8  31
HETATM   31  C22 UNL     1      45.715  13.822   1.261  1.00  0.00     0.082 C 
BRANCH  31  32
HETATM   32  C23 UNL     1      44.544  13.537   0.310  1.00  0.00     0.240 C 
HETATM   33  O4  UNL     1      44.583  13.987  -0.790  1.00  0.00    -0.306 OA
ENDBRANCH  31  32
BRANCH  31  34
HETATM   34  C24 UNL     1      45.170  14.599   2.353  1.00  0.00     0.020 C 
HETATM   35  C25 UNL     1      44.113  15.580   1.861  1.00  0.00     0.034 C 
HETATM   36  C26 UNL     1      44.715  16.937   1.998  1.00  0.00    -0.022 C 
HETATM   37  C27 UNL     1      45.830  16.903   2.648  1.00  0.00    -0.062 C 
HETATM   38  C28 UNL     1      46.823  17.933   3.068  1.00  0.00     0.137 C 
HETATM   39  C31 UNL     1      46.132  15.519   3.054  1.00  0.00     0.028 C 
HETATM   40  C29 UNL     1      47.105  17.678   4.539  1.00  0.00     0.223 C 
HETATM   41  O5  UNL     1      47.725  18.567   5.157  1.00  0.00    -0.273 OA
HETATM   42  N2  UNL     1      46.682  16.482   5.174  1.00  0.00    -0.334 N 
HETATM   43  C30 UNL     1      45.766  15.526   4.569  1.00  0.00     0.233 C 
ATOM     44  H2  UNL     1      47.038  16.282   6.109  1.00  0.00     0.165 HD
HETATM   45  C32 UNL     1      47.571  15.167   3.010  1.00  0.00     0.025 C 
BRANCH  43  46
HETATM   46  O6  UNL     1      44.466  15.915   4.773  1.00  0.00    -0.376 OA
ATOM     47  H6  UNL     1      43.878  15.178   4.653  1.00  0.00     0.212 HD
ENDBRANCH  43  46
ENDBRANCH  31  34
ENDBRANCH   8  31
TORSDOF 13
ENDMDL
