MODEL 1
REMARK VINA RESULT: -7.265469356      0.000      0.000
REMARK  8 active torsions:
REMARK  status: ('A' for Active; 'I' for Inactive)
REMARK    1  A    between atoms: C6_11  and  C7_12 
REMARK    2  A    between atoms: C11_22  and  N6_23 
REMARK    3  A    between atoms: N6_23  and  C12_25 
REMARK    4  A    between atoms: C19_32  and  N7_33 
REMARK    5  A    between atoms: C20_35  and  C21_36 
REMARK    6  A    between atoms: C21_36  and  C22_37 
REMARK    7  A    between atoms: C22_37  and  C23_38 
REMARK    8  A    between atoms: C23_38  and  N8_39 
ROOT
HETATM    1 CL1  UNL     1      46.670  14.557  -4.078  1.00  0.00    -0.082 Cl
HETATM    2  C1  UNL     1      47.396  13.324  -3.069  1.00  0.00     0.061 A 
HETATM    3  C2  UNL     1      48.766  13.283  -2.944  1.00  0.00     0.028 A 
HETATM    4  C3  UNL     1      49.373  12.320  -2.175  1.00  0.00     0.032 A 
HETATM    5  C4  UNL     1      48.607  11.387  -1.522  1.00  0.00     0.048 A 
HETATM    6  N1  UNL     1      49.253  10.460  -0.785  1.00  0.00    -0.340 N 
ATOM      7  H1  UNL     1      50.271  10.480  -0.731  1.00  0.00     0.167 HD
HETATM    8  C5  UNL     1      48.574   9.515  -0.126  1.00  0.00     0.137 A 
HETATM    9  N2  UNL     1      48.976   8.500   0.662  1.00  0.00    -0.326 N 
ATOM     10  H2  UNL     1      49.943   8.277   0.896  1.00  0.00     0.169 HD
HETATM   11  C6  UNL     1      47.904   7.834   1.086  1.00  0.00     0.120 A 
HETATM   12  N5  UNL     1      46.834   8.436   0.562  1.00  0.00    -0.337 N 
ATOM     13  H5  UNL     1      45.870   8.139   0.718  1.00  0.00     0.167 HD
HETATM   14  C10 UNL     1      47.190   9.483  -0.198  1.00  0.00     0.106 A 
HETATM   15  C11 UNL     1      46.497  10.414  -0.940  1.00  0.00     0.078 A 
HETATM   16  C18 UNL     1      47.210  11.384  -1.614  1.00  0.00     0.048 A 
HETATM   17  C19 UNL     1      46.635  12.361  -2.391  1.00  0.00     0.068 A 
ENDROOT
BRANCH  17  18
HETATM   18  N7  UNL     1      45.244  12.441  -2.514  1.00  0.00    -0.367 N 
HETATM   19  C20 UNL     1      44.445  13.174  -1.812  1.00  0.00     0.061 C 
ATOM     20  H7  UNL     1      44.815  11.861  -3.235  1.00  0.00     0.165 HD
BRANCH  19  21
HETATM   21  C21 UNL     1      44.823  14.081  -0.730  1.00  0.00     0.049 C 
BRANCH  21  22
HETATM   22  C22 UNL     1      44.590  13.506   0.640  1.00  0.00     0.050 C 
BRANCH  22  23
HETATM   23  C23 UNL     1      45.775  13.694   1.568  1.00  0.00     0.068 C 
BRANCH  23  24
HETATM   24  N8  UNL     1      45.567  14.627   2.586  1.00  0.00    -0.354 N 
HETATM   25  C24 UNL     1      44.492  15.513   2.567  1.00  0.00     0.068 C 
HETATM   26  C25 UNL     1      44.922  16.935   2.288  1.00  0.00     0.045 C 
HETATM   27  C26 UNL     1      46.142  17.350   3.060  1.00  0.00     0.010 C 
HETATM   28  C27 UNL     1      47.215  16.285   3.057  1.00  0.00     0.045 C 
HETATM   29  C28 UNL     1      46.591  14.963   3.481  1.00  0.00     0.068 C 
ENDBRANCH  23  24
ENDBRANCH  22  23
ENDBRANCH  21  22
ENDBRANCH  19  21
ENDBRANCH  17  18
BRANCH  15  30
HETATM   30  N6  UNL     1      45.221  10.386  -1.028  1.00  0.00    -0.353 N 
ATOM     31  H6  UNL     1      44.702  11.139  -0.578  1.00  0.00     0.166 HD
BRANCH  30  32
HETATM   32  C12 UNL     1      44.471   9.387  -1.704  1.00  0.00     0.032 A 
HETATM   33  C13 UNL     1      43.377   8.767  -1.100  1.00  0.00     0.029 A 
HETATM   34  C14 UNL     1      42.699   7.806  -1.819  1.00  0.00     0.002 A 
HETATM   35  C15 UNL     1      43.052   7.436  -3.095  1.00  0.00     0.000 A 
HETATM   36  C16 UNL     1      44.133   8.047  -3.691  1.00  0.00     0.002 A 
HETATM   37  C17 UNL     1      44.816   9.007  -2.984  1.00  0.00     0.029 A 
ENDBRANCH  30  32
ENDBRANCH  15  30
BRANCH  11  38
HETATM   38  C7  UNL     1      47.933   6.657   1.972  1.00  0.00     0.042 A 
HETATM   39  C8  UNL     1      47.934   6.638   3.353  1.00  0.00     0.123 A 
HETATM   40  N3  UNL     1      47.965   5.347   3.749  1.00  0.00    -0.311 N 
HETATM   41  N4  UNL     1      47.985   4.550   2.681  1.00  0.00    -0.311 N 
ATOM     42  H3  UNL     1      47.973   5.031   4.718  1.00  0.00     0.186 HD
HETATM   43  C9  UNL     1      47.965   5.337   1.591  1.00  0.00     0.123 A 
ATOM     44  H4  UNL     1      48.011   3.531   2.689  1.00  0.00     0.186 HD
ENDBRANCH  11  38
TORSDOF 8
ENDMDL
MODEL 2
REMARK VINA RESULT: -7.239551349      2.699      6.622
REMARK  8 active torsions:
REMARK  status: ('A' for Active; 'I' for Inactive)
REMARK    1  A    between atoms: C6_11  and  C7_12 
REMARK    2  A    between atoms: C11_22  and  N6_23 
REMARK    3  A    between atoms: N6_23  and  C12_25 
REMARK    4  A    between atoms: C19_32  and  N7_33 
REMARK    5  A    between atoms: C20_35  and  C21_36 
REMARK    6  A    between atoms: C21_36  and  C22_37 
REMARK    7  A    between atoms: C22_37  and  C23_38 
REMARK    8  A    between atoms: C23_38  and  N8_39 
ROOT
HETATM    1 CL1  UNL     1      48.461   5.164   0.092  1.00  0.00    -0.082 Cl
HETATM    2  C1  UNL     1      48.009   6.741   0.703  1.00  0.00     0.061 A 
HETATM    3  C2  UNL     1      48.372   7.092   1.982  1.00  0.00     0.028 A 
HETATM    4  C3  UNL     1      48.021   8.315   2.503  1.00  0.00     0.032 A 
HETATM    5  C4  UNL     1      47.299   9.197   1.739  1.00  0.00     0.048 A 
HETATM    6  N1  UNL     1      46.974  10.380   2.300  1.00  0.00    -0.340 N 
ATOM      7  H1  UNL     1      47.272  10.584   3.253  1.00  0.00     0.167 HD
HETATM    8  C5  UNL     1      46.266  11.289   1.619  1.00  0.00     0.137 A 
HETATM    9  N2  UNL     1      45.826  12.518   1.946  1.00  0.00    -0.326 N 
ATOM     10  H2  UNL     1      45.978  12.985   2.840  1.00  0.00     0.169 HD
HETATM   11  C6  UNL     1      45.160  13.026   0.911  1.00  0.00     0.120 A 
HETATM   12  N5  UNL     1      45.187  12.111  -0.061  1.00  0.00    -0.337 N 
ATOM     13  H5  UNL     1      44.753  12.231  -0.977  1.00  0.00     0.167 HD
HETATM   14  C10 UNL     1      45.859  11.015   0.323  1.00  0.00     0.106 A 
HETATM   15  C11 UNL     1      46.172   9.818  -0.282  1.00  0.00     0.078 A 
HETATM   16  C18 UNL     1      46.904   8.891   0.432  1.00  0.00     0.048 A 
HETATM   17  C19 UNL     1      47.272   7.660  -0.059  1.00  0.00     0.068 A 
ENDROOT
BRANCH  17  18
HETATM   18  N7  UNL     1      46.938   7.288  -1.365  1.00  0.00    -0.367 N 
HETATM   19  C20 UNL     1      47.727   7.257  -2.386  1.00  0.00     0.061 C 
ATOM     20  H7  UNL     1      45.969   7.012  -1.527  1.00  0.00     0.165 HD
BRANCH  19  21
HETATM   21  C21 UNL     1      49.145   7.606  -2.401  1.00  0.00     0.049 C 
BRANCH  21  22
HETATM   22  C22 UNL     1      49.396   9.083  -2.524  1.00  0.00     0.050 C 
BRANCH  22  23
HETATM   23  C23 UNL     1      50.194   9.646  -1.364  1.00  0.00     0.068 C 
BRANCH  23  24
HETATM   24  N8  UNL     1      50.212  11.041  -1.300  1.00  0.00    -0.354 N 
HETATM   25  C24 UNL     1      49.069  11.781  -1.009  1.00  0.00     0.068 C 
HETATM   26  C25 UNL     1      48.544  12.528  -2.214  1.00  0.00     0.045 C 
HETATM   27  C26 UNL     1      49.621  13.208  -3.009  1.00  0.00     0.010 C 
HETATM   28  C27 UNL     1      50.833  12.327  -3.210  1.00  0.00     0.045 C 
HETATM   29  C28 UNL     1      51.266  11.777  -1.858  1.00  0.00     0.068 C 
ENDBRANCH  23  24
ENDBRANCH  22  23
ENDBRANCH  21  22
ENDBRANCH  19  21
ENDBRANCH  17  18
BRANCH  15  30
HETATM   30  N6  UNL     1      45.787   9.546  -1.471  1.00  0.00    -0.353 N 
ATOM     31  H6  UNL     1      46.509   9.425  -2.182  1.00  0.00     0.166 HD
BRANCH  30  32
HETATM   32  C12 UNL     1      44.435   9.401  -1.879  1.00  0.00     0.032 A 
HETATM   33  C13 UNL     1      43.621   8.399  -1.350  1.00  0.00     0.029 A 
HETATM   34  C14 UNL     1      42.319   8.322  -1.795  1.00  0.00     0.002 A 
HETATM   35  C15 UNL     1      41.793   9.182  -2.730  1.00  0.00     0.000 A 
HETATM   36  C16 UNL     1      42.597  10.171  -3.253  1.00  0.00     0.002 A 
HETATM   37  C17 UNL     1      43.896  10.258  -2.816  1.00  0.00     0.029 A 
ENDBRANCH  30  32
ENDBRANCH  15  30
BRANCH  11  38
HETATM   38  C7  UNL     1      44.527  14.357   0.881  1.00  0.00     0.042 A 
HETATM   39  C8  UNL     1      44.159  15.093  -0.228  1.00  0.00     0.123 A 
HETATM   40  N3  UNL     1      43.616  16.250   0.206  1.00  0.00    -0.311 N 
HETATM   41  N4  UNL     1      43.625  16.279   1.539  1.00  0.00    -0.311 N 
ATOM     42  H3  UNL     1      43.254  16.991  -0.395  1.00  0.00     0.186 HD
HETATM   43  C9  UNL     1      44.177  15.130   1.962  1.00  0.00     0.123 A 
ATOM     44  H4  UNL     1      43.276  17.034   2.128  1.00  0.00     0.186 HD
ENDBRANCH  11  38
TORSDOF 8
ENDMDL
MODEL 3
REMARK VINA RESULT: -7.206435555      2.760      7.467
REMARK  8 active torsions:
REMARK  status: ('A' for Active; 'I' for Inactive)
REMARK    1  A    between atoms: C6_11  and  C7_12 
REMARK    2  A    between atoms: C11_22  and  N6_23 
REMARK    3  A    between atoms: N6_23  and  C12_25 
REMARK    4  A    between atoms: C19_32  and  N7_33 
REMARK    5  A    between atoms: C20_35  and  C21_36 
REMARK    6  A    between atoms: C21_36  and  C22_37 
REMARK    7  A    between atoms: C22_37  and  C23_38 
REMARK    8  A    between atoms: C23_38  and  N8_39 
ROOT
HETATM    1 CL1  UNL     1      46.180   7.882  -2.986  1.00  0.00    -0.082 Cl
HETATM    2  C1  UNL     1      46.570   8.903  -1.617  1.00  0.00     0.061 A 
HETATM    3  C2  UNL     1      47.558   8.507  -0.747  1.00  0.00     0.028 A 
HETATM    4  C3  UNL     1      47.881   9.272   0.348  1.00  0.00     0.032 A 
HETATM    5  C4  UNL     1      47.210  10.447   0.578  1.00  0.00     0.048 A 
HETATM    6  N1  UNL     1      47.560  11.158   1.669  1.00  0.00    -0.340 N 
ATOM      7  H1  UNL     1      48.301  10.812   2.278  1.00  0.00     0.167 HD
HETATM    8  C5  UNL     1      46.946  12.310   1.962  1.00  0.00     0.137 A 
HETATM    9  N2  UNL     1      47.109  13.187   2.970  1.00  0.00    -0.326 N 
ATOM     10  H2  UNL     1      47.784  13.100   3.730  1.00  0.00     0.169 HD
HETATM   11  C6  UNL     1      46.246  14.188   2.812  1.00  0.00     0.120 A 
HETATM   12  N5  UNL     1      45.545  13.933   1.704  1.00  0.00    -0.337 N 
ATOM     13  H5  UNL     1      44.808  14.536   1.337  1.00  0.00     0.167 HD
HETATM   14  C10 UNL     1      45.937  12.782   1.137  1.00  0.00     0.106 A 
HETATM   15  C11 UNL     1      45.553  12.083   0.014  1.00  0.00     0.078 A 
HETATM   16  C18 UNL     1      46.196  10.897  -0.276  1.00  0.00     0.048 A 
HETATM   17  C19 UNL     1      45.899  10.108  -1.362  1.00  0.00     0.068 A 
ENDROOT
BRANCH  17  18
HETATM   18  N7  UNL     1      44.916  10.500  -2.276  1.00  0.00    -0.367 N 
HETATM   19  C20 UNL     1      43.718  10.028  -2.376  1.00  0.00     0.061 C 
ATOM     20  H7  UNL     1      45.172  11.237  -2.934  1.00  0.00     0.165 HD
BRANCH  19  21
HETATM   21  C21 UNL     1      43.127   8.976  -1.552  1.00  0.00     0.049 C 
BRANCH  21  22
HETATM   22  C22 UNL     1      42.528   7.854  -2.354  1.00  0.00     0.050 C 
BRANCH  22  23
HETATM   23  C23 UNL     1      42.443   8.168  -3.836  1.00  0.00     0.068 C 
BRANCH  23  24
HETATM   24  N8  UNL     1      41.208   8.673  -4.247  1.00  0.00    -0.354 N 
HETATM   25  C24 UNL     1      41.103   9.830  -5.018  1.00  0.00     0.068 C 
HETATM   26  C25 UNL     1      40.546  10.996  -4.233  1.00  0.00     0.045 C 
HETATM   27  C26 UNL     1      39.367  10.629  -3.378  1.00  0.00     0.010 C 
HETATM   28  C27 UNL     1      39.576   9.328  -2.637  1.00  0.00     0.045 C 
HETATM   29  C28 UNL     1      40.017   8.264  -3.633  1.00  0.00     0.068 C 
ENDBRANCH  23  24
ENDBRANCH  22  23
ENDBRANCH  21  22
ENDBRANCH  19  21
ENDBRANCH  17  18
BRANCH  15  30
HETATM   30  N6  UNL     1      44.612  12.500  -0.746  1.00  0.00    -0.353 N 
ATOM     31  H6  UNL     1      43.772  11.925  -0.813  1.00  0.00     0.166 HD
BRANCH  30  32
HETATM   32  C12 UNL     1      44.646  13.700  -1.504  1.00  0.00     0.032 A 
HETATM   33  C13 UNL     1      45.459  13.823  -2.632  1.00  0.00     0.029 A 
HETATM   34  C14 UNL     1      45.438  15.019  -3.316  1.00  0.00     0.002 A 
HETATM   35  C15 UNL     1      44.658  16.087  -2.938  1.00  0.00     0.000 A 
HETATM   36  C16 UNL     1      43.857  15.965  -1.825  1.00  0.00     0.002 A 
HETATM   37  C17 UNL     1      43.868  14.777  -1.135  1.00  0.00     0.029 A 
ENDBRANCH  30  32
ENDBRANCH  15  30
BRANCH  11  38
HETATM   38  C7  UNL     1      46.119  15.348   3.713  1.00  0.00     0.042 A 
HETATM   39  C8  UNL     1      44.966  16.023   4.065  1.00  0.00     0.123 A 
HETATM   40  N3  UNL     1      45.312  17.018   4.909  1.00  0.00    -0.311 N 
HETATM   41  N4  UNL     1      46.630  17.002   5.107  1.00  0.00    -0.311 N 
ATOM     42  H3  UNL     1      44.662  17.681   5.332  1.00  0.00     0.186 HD
HETATM   43  C9  UNL     1      47.133  15.988   4.383  1.00  0.00     0.123 A 
ATOM     44  H4  UNL     1      47.159  17.642   5.699  1.00  0.00     0.186 HD
ENDBRANCH  11  38
TORSDOF 8
ENDMDL
MODEL 4
REMARK VINA RESULT: -7.168934514      3.105      7.459
REMARK  8 active torsions:
REMARK  status: ('A' for Active; 'I' for Inactive)
REMARK    1  A    between atoms: C6_11  and  C7_12 
REMARK    2  A    between atoms: C11_22  and  N6_23 
REMARK    3  A    between atoms: N6_23  and  C12_25 
REMARK    4  A    between atoms: C19_32  and  N7_33 
REMARK    5  A    between atoms: C20_35  and  C21_36 
REMARK    6  A    between atoms: C21_36  and  C22_37 
REMARK    7  A    between atoms: C22_37  and  C23_38 
REMARK    8  A    between atoms: C23_38  and  N8_39 
ROOT
HETATM    1 CL1  UNL     1      48.403   5.165  -0.131  1.00  0.00    -0.082 Cl
HETATM    2  C1  UNL     1      47.967   6.729   0.524  1.00  0.00     0.061 A 
HETATM    3  C2  UNL     1      48.355   7.050   1.804  1.00  0.00     0.028 A 
HETATM    4  C3  UNL     1      48.018   8.261   2.358  1.00  0.00     0.032 A 
HETATM    5  C4  UNL     1      47.285   9.163   1.628  1.00  0.00     0.048 A 
HETATM    6  N1  UNL     1      46.974  10.334   2.221  1.00  0.00    -0.340 N 
ATOM      7  H1  UNL     1      47.290  10.515   3.173  1.00  0.00     0.167 HD
HETATM    8  C5  UNL     1      46.257  11.260   1.575  1.00  0.00     0.137 A 
HETATM    9  N2  UNL     1      45.826  12.483   1.938  1.00  0.00    -0.326 N 
ATOM     10  H2  UNL     1      45.996  12.928   2.839  1.00  0.00     0.169 HD
HETATM   11  C6  UNL     1      45.143  13.015   0.927  1.00  0.00     0.120 A 
HETATM   12  N5  UNL     1      45.149  12.123  -0.066  1.00  0.00    -0.337 N 
ATOM     13  H5  UNL     1      44.698  12.264  -0.971  1.00  0.00     0.167 HD
HETATM   14  C10 UNL     1      45.824  11.016   0.280  1.00  0.00     0.106 A 
HETATM   15  C11 UNL     1      46.122   9.832  -0.357  1.00  0.00     0.078 A 
HETATM   16  C18 UNL     1      46.864   8.887   0.322  1.00  0.00     0.048 A 
HETATM   17  C19 UNL     1      47.220   7.667  -0.203  1.00  0.00     0.068 A 
ENDROOT
BRANCH  17  18
HETATM   18  N7  UNL     1      46.860   7.325  -1.510  1.00  0.00    -0.367 N 
HETATM   19  C20 UNL     1      47.571   7.486  -2.576  1.00  0.00     0.061 C 
ATOM     20  H7  UNL     1      45.939   6.905  -1.636  1.00  0.00     0.165 HD
BRANCH  19  21
HETATM   21  C21 UNL     1      48.912   8.064  -2.648  1.00  0.00     0.049 C 
BRANCH  21  22
HETATM   22  C22 UNL     1      49.996   7.037  -2.824  1.00  0.00     0.050 C 
BRANCH  22  23
HETATM   23  C23 UNL     1      51.369   7.654  -3.012  1.00  0.00     0.068 C 
BRANCH  23  24
HETATM   24  N8  UNL     1      52.125   7.743  -1.842  1.00  0.00    -0.354 N 
HETATM   25  C24 UNL     1      52.620   6.613  -1.195  1.00  0.00     0.068 C 
HETATM   26  C25 UNL     1      51.902   6.334   0.106  1.00  0.00     0.045 C 
HETATM   27  C26 UNL     1      51.682   7.564   0.940  1.00  0.00     0.010 C 
HETATM   28  C27 UNL     1      51.202   8.739   0.118  1.00  0.00     0.045 C 
HETATM   29  C28 UNL     1      52.134   8.914  -1.073  1.00  0.00     0.068 C 
ENDBRANCH  23  24
ENDBRANCH  22  23
ENDBRANCH  21  22
ENDBRANCH  19  21
ENDBRANCH  17  18
BRANCH  15  30
HETATM   30  N6  UNL     1      45.715   9.589  -1.545  1.00  0.00    -0.353 N 
ATOM     31  H6  UNL     1      46.421   9.506  -2.276  1.00  0.00     0.166 HD
BRANCH  30  32
HETATM   32  C12 UNL     1      44.356   9.424  -1.924  1.00  0.00     0.032 A 
HETATM   33  C13 UNL     1      43.581   8.382  -1.414  1.00  0.00     0.029 A 
HETATM   34  C14 UNL     1      42.271   8.287  -1.830  1.00  0.00     0.002 A 
HETATM   35  C15 UNL     1      41.700   9.168  -2.718  1.00  0.00     0.000 A 
HETATM   36  C16 UNL     1      42.465  10.197  -3.222  1.00  0.00     0.002 A 
HETATM   37  C17 UNL     1      43.773  10.301  -2.814  1.00  0.00     0.029 A 
ENDBRANCH  30  32
ENDBRANCH  15  30
BRANCH  11  38
HETATM   38  C7  UNL     1      44.513  14.348   0.938  1.00  0.00     0.042 A 
HETATM   39  C8  UNL     1      44.175  15.114   2.037  1.00  0.00     0.123 A 
HETATM   40  N3  UNL     1      43.623  16.261   1.586  1.00  0.00    -0.311 N 
HETATM   41  N4  UNL     1      43.597  16.254   0.254  1.00  0.00    -0.311 N 
ATOM     42  H3  UNL     1      43.279  17.018   2.177  1.00  0.00     0.186 HD
HETATM   43  C9  UNL     1      44.137  15.093  -0.153  1.00  0.00     0.123 A 
ATOM     44  H4  UNL     1      43.234  16.994  -0.347  1.00  0.00     0.186 HD
ENDBRANCH  11  38
TORSDOF 8
ENDMDL
MODEL 5
REMARK VINA RESULT: -6.949837559      3.078      5.292
REMARK  8 active torsions:
REMARK  status: ('A' for Active; 'I' for Inactive)
REMARK    1  A    between atoms: C6_11  and  C7_12 
REMARK    2  A    between atoms: C11_22  and  N6_23 
REMARK    3  A    between atoms: N6_23  and  C12_25 
REMARK    4  A    between atoms: C19_32  and  N7_33 
REMARK    5  A    between atoms: C20_35  and  C21_36 
REMARK    6  A    between atoms: C21_36  and  C22_37 
REMARK    7  A    between atoms: C22_37  and  C23_38 
REMARK    8  A    between atoms: C23_38  and  N8_39 
ROOT
HETATM    1 CL1  UNL     1      44.275  11.348   1.521  1.00  0.00    -0.082 Cl
HETATM    2  C1  UNL     1      45.103  10.202   0.488  1.00  0.00     0.061 A 
HETATM    3  C2  UNL     1      44.514   9.820  -0.695  1.00  0.00     0.028 A 
HETATM    4  C3  UNL     1      45.126   8.910  -1.523  1.00  0.00     0.032 A 
HETATM    5  C4  UNL     1      46.338   8.374  -1.169  1.00  0.00     0.048 A 
HETATM    6  N1  UNL     1      46.892   7.481  -2.013  1.00  0.00    -0.340 N 
ATOM      7  H1  UNL     1      46.408   7.237  -2.876  1.00  0.00     0.167 HD
HETATM    8  C5  UNL     1      48.070   6.912  -1.732  1.00  0.00     0.137 A 
HETATM    9  N2  UNL     1      48.818   6.012  -2.398  1.00  0.00    -0.326 N 
ATOM     10  H2  UNL     1      48.581   5.590  -3.295  1.00  0.00     0.169 HD
HETATM   11  C6  UNL     1      49.919   5.763  -1.692  1.00  0.00     0.120 A 
HETATM   12  N5  UNL     1      49.856   6.509  -0.587  1.00  0.00    -0.337 N 
ATOM     13  H5  UNL     1      50.570   6.521   0.142  1.00  0.00     0.167 HD
HETATM   14  C10 UNL     1      48.732   7.240  -0.559  1.00  0.00     0.106 A 
HETATM   15  C11 UNL     1      48.196   8.148   0.327  1.00  0.00     0.078 A 
HETATM   16  C18 UNL     1      46.982   8.729   0.023  1.00  0.00     0.048 A 
HETATM   17  C19 UNL     1      46.343   9.642   0.829  1.00  0.00     0.068 A 
ENDROOT
BRANCH  17  18
HETATM   18  N7  UNL     1      46.932  10.067   2.024  1.00  0.00    -0.367 N 
HETATM   19  C20 UNL     1      47.417  11.237   2.275  1.00  0.00     0.061 C 
ATOM     20  H7  UNL     1      46.983   9.381   2.777  1.00  0.00     0.165 HD
BRANCH  19  21
HETATM   21  C21 UNL     1      47.459  12.376   1.360  1.00  0.00     0.049 C 
BRANCH  21  22
HETATM   22  C22 UNL     1      46.714  13.579   1.869  1.00  0.00     0.050 C 
BRANCH  22  23
HETATM   23  C23 UNL     1      46.567  13.587   3.379  1.00  0.00     0.068 C 
BRANCH  23  24
HETATM   24  N8  UNL     1      46.304  14.845   3.925  1.00  0.00    -0.354 N 
HETATM   25  C24 UNL     1      45.113  15.523   3.676  1.00  0.00     0.068 C 
HETATM   26  C25 UNL     1      45.309  16.717   2.769  1.00  0.00     0.045 C 
HETATM   27  C26 UNL     1      46.511  17.544   3.125  1.00  0.00     0.010 C 
HETATM   28  C27 UNL     1      47.724  16.695   3.430  1.00  0.00     0.045 C 
HETATM   29  C28 UNL     1      47.334  15.635   4.451  1.00  0.00     0.068 C 
ENDBRANCH  23  24
ENDBRANCH  22  23
ENDBRANCH  21  22
ENDBRANCH  19  21
ENDBRANCH  17  18
BRANCH  15  30
HETATM   30  N6  UNL     1      48.789   8.448   1.421  1.00  0.00    -0.353 N 
ATOM     31  H6  UNL     1      49.124   9.405   1.527  1.00  0.00     0.166 HD
BRANCH  30  32
HETATM   32  C12 UNL     1      49.016   7.551   2.498  1.00  0.00     0.032 A 
HETATM   33  C13 UNL     1      47.964   6.864   3.105  1.00  0.00     0.029 A 
HETATM   34  C14 UNL     1      48.263   6.011   4.145  1.00  0.00     0.002 A 
HETATM   35  C15 UNL     1      49.543   5.809   4.606  1.00  0.00     0.000 A 
HETATM   36  C16 UNL     1      50.581   6.487   4.007  1.00  0.00     0.002 A 
HETATM   37  C17 UNL     1      50.295   7.340   2.968  1.00  0.00     0.029 A 
ENDBRANCH  30  32
ENDBRANCH  15  30
BRANCH  11  38
HETATM   38  C7  UNL     1      50.990   4.831  -2.092  1.00  0.00     0.042 A 
HETATM   39  C8  UNL     1      52.220   4.649  -1.492  1.00  0.00     0.123 A 
HETATM   40  N3  UNL     1      52.881   3.699  -2.186  1.00  0.00    -0.311 N 
HETATM   41  N4  UNL     1      52.126   3.272  -3.197  1.00  0.00    -0.311 N 
ATOM     42  H3  UNL     1      53.818   3.359  -1.969  1.00  0.00     0.186 HD
HETATM   43  C9  UNL     1      50.969   3.955  -3.151  1.00  0.00     0.123 A 
ATOM     44  H4  UNL     1      52.378   2.560  -3.881  1.00  0.00     0.186 HD
ENDBRANCH  11  38
TORSDOF 8
ENDMDL
