MODEL 1
REMARK VINA RESULT: -7.025139549      0.000      0.000
REMARK  10 active torsions:
REMARK  status: ('A' for Active; 'I' for Inactive)
REMARK    1  A    between atoms: C2_2  and  C3_3 
REMARK    2  A    between atoms: C3_3  and  C4_4 
REMARK    3  A    between atoms: C4_4  and  N1_5 
REMARK    4  A    between atoms: C4_4  and  C11_16 
REMARK       I    between atoms: N1_5  and  C5_7 
REMARK       I    between atoms: C5_7  and  N2_9 
REMARK    5  A    between atoms: N2_9  and  C6_11 
REMARK    6  A    between atoms: C6_11  and  C8_13 
REMARK    7  A    between atoms: C12_19  and  N4_20 
REMARK    8  A    between atoms: N4_20  and  C13_22 
REMARK    9  A    between atoms: C15_24  and  C16_25 
REMARK   10  A    between atoms: N5_27  and  C18_28 
ROOT
HETATM    1  C11 UNL     1      46.819  10.462  -0.565  1.00  0.00     0.095 A 
HETATM    2  N3  UNL     1      46.697  11.050   0.644  1.00  0.00    -0.188 N 
ATOM      3  H3  UNL     1      45.763  11.329   0.946  1.00  0.00     0.184 HD
HETATM    4  C12 UNL     1      47.713  11.292   1.471  1.00  0.00     0.683 A 
HETATM    5  N6  UNL     1      48.949  10.937   1.100  1.00  0.00    -0.200 N 
ATOM      6  H6  UNL     1      49.744  11.111   1.715  1.00  0.00     0.183 HD
HETATM    7  C23 UNL     1      49.126  10.347  -0.095  1.00  0.00     0.132 A 
HETATM    8  C24 UNL     1      48.068  10.101  -0.945  1.00  0.00     0.079 A 
HETATM    9 CL1  UNL     1      48.320   9.341  -2.490  1.00  0.00    -0.080 Cl
ENDROOT
BRANCH   1  10
HETATM   10  C4  UNL     1      45.585  10.238  -1.315  1.00  0.00     0.042 C 
BRANCH  10  11
HETATM   11  C3  UNL     1      44.445   9.647  -0.518  1.00  0.00     0.059 C 
BRANCH  11  12
HETATM   12  C2  UNL     1      43.719   8.527  -1.145  1.00  0.00     0.002 C 
HETATM   13  C1  UNL     1      42.476   8.857  -1.909  1.00  0.00     0.005 C 
ENDBRANCH  11  12
ENDBRANCH  10  11
BRANCH  10  14
HETATM   14  N1  UNL     1      45.189  11.200  -2.280  1.00  0.00    -0.310 N 
HETATM   15  C5  UNL     1      44.750  12.486  -1.911  1.00  0.00     0.320 C 
HETATM   16  O1  UNL     1      44.707  12.796  -0.694  1.00  0.00    -0.247 OA
HETATM   17  N2  UNL     1      44.349  13.452  -2.851  1.00  0.00    -0.338 N 
ATOM     18  H2  UNL     1      44.383  13.204  -3.840  1.00  0.00     0.164 HD
ATOM     19  H1  UNL     1      45.222  10.953  -3.270  1.00  0.00     0.170 HD
BRANCH  17  20
HETATM   20  C6  UNL     1      43.894  14.775  -2.500  1.00  0.00     0.085 C 
HETATM   21  C7  UNL     1      42.705  15.234  -3.296  1.00  0.00     0.032 C 
BRANCH  20  22
HETATM   22  C8  UNL     1      45.009  15.762  -2.668  1.00  0.00    -0.000 C 
HETATM   23  C9  UNL     1      44.409  17.172  -2.745  1.00  0.00     0.011 C 
HETATM   24  C10 UNL     1      45.888  15.492  -3.853  1.00  0.00     0.011 C 
ENDBRANCH  20  22
ENDBRANCH  17  20
ENDBRANCH  10  14
ENDBRANCH   1  10
BRANCH   4  25
HETATM   25  N4  UNL     1      47.428  11.860   2.599  1.00  0.00    -0.190 N 
ATOM     26  H4  UNL     1      47.615  11.330   3.451  1.00  0.00     0.184 HD
BRANCH  25  27
HETATM   27  C13 UNL     1      46.879  13.153   2.747  1.00  0.00     0.066 A 
HETATM   28  C14 UNL     1      45.701  13.674   2.279  1.00  0.00     0.056 A 
HETATM   29  C15 UNL     1      45.574  15.002   2.669  1.00  0.00     0.014 A 
HETATM   30  N5  UNL     1      46.657  15.301   3.368  1.00  0.00    -0.349 N 
HETATM   31  C22 UNL     1      47.467  14.195   3.432  1.00  0.00     0.122 A 
BRANCH  29  32
HETATM   32  C16 UNL     1      44.437  15.895   2.369  1.00  0.00     0.053 C 
HETATM   33  C17 UNL     1      44.435  16.371   0.928  1.00  0.00     0.011 C 
ENDBRANCH  29  32
BRANCH  30  34
HETATM   34  C18 UNL     1      47.082  16.497   4.023  1.00  0.00     0.026 C 
HETATM   35  C19 UNL     1      46.603  16.569   5.479  1.00  0.00     0.038 C 
HETATM   36  C20 UNL     1      48.620  16.426   4.149  1.00  0.00     0.038 C 
HETATM   37  C21 UNL     1      46.835  17.785   3.358  1.00  0.00     0.038 C 
ENDBRANCH  30  34
ENDBRANCH  25  27
ENDBRANCH   4  25
TORSDOF 10
ENDMDL
MODEL 2
REMARK VINA RESULT: -7.015060317      4.876      8.447
REMARK  10 active torsions:
REMARK  status: ('A' for Active; 'I' for Inactive)
REMARK    1  A    between atoms: C2_2  and  C3_3 
REMARK    2  A    between atoms: C3_3  and  C4_4 
REMARK    3  A    between atoms: C4_4  and  N1_5 
REMARK    4  A    between atoms: C4_4  and  C11_16 
REMARK       I    between atoms: N1_5  and  C5_7 
REMARK       I    between atoms: C5_7  and  N2_9 
REMARK    5  A    between atoms: N2_9  and  C6_11 
REMARK    6  A    between atoms: C6_11  and  C8_13 
REMARK    7  A    between atoms: C12_19  and  N4_20 
REMARK    8  A    between atoms: N4_20  and  C13_22 
REMARK    9  A    between atoms: C15_24  and  C16_25 
REMARK   10  A    between atoms: N5_27  and  C18_28 
ROOT
HETATM    1  C11 UNL     1      47.748  10.504   1.784  1.00  0.00     0.095 A 
HETATM    2  N3  UNL     1      47.589   9.361   2.486  1.00  0.00    -0.188 N 
ATOM      3  H3  UNL     1      46.898   9.355   3.236  1.00  0.00     0.184 HD
HETATM    4  C12 UNL     1      48.275   8.240   2.266  1.00  0.00     0.683 A 
HETATM    5  N6  UNL     1      49.188   8.220   1.288  1.00  0.00    -0.200 N 
ATOM      6  H6  UNL     1      49.727   7.375   1.099  1.00  0.00     0.183 HD
HETATM    7  C23 UNL     1      49.385   9.332   0.559  1.00  0.00     0.132 A 
HETATM    8  C24 UNL     1      48.672  10.489   0.794  1.00  0.00     0.079 A 
HETATM    9 CL1  UNL     1      48.946  11.919  -0.158  1.00  0.00    -0.080 Cl
ENDROOT
BRANCH   1  10
HETATM   10  C4  UNL     1      46.875  11.621   2.140  1.00  0.00     0.042 C 
BRANCH  10  11
HETATM   11  C3  UNL     1      45.424  11.452   1.751  1.00  0.00     0.059 C 
BRANCH  11  12
HETATM   12  C2  UNL     1      45.117  11.549   0.312  1.00  0.00     0.002 C 
HETATM   13  C1  UNL     1      45.146  12.910  -0.306  1.00  0.00     0.005 C 
ENDBRANCH  11  12
ENDBRANCH  10  11
BRANCH  10  14
HETATM   14  N1  UNL     1      47.077  12.276   3.382  1.00  0.00    -0.310 N 
HETATM   15  C5  UNL     1      46.910  13.667   3.524  1.00  0.00     0.320 C 
HETATM   16  O1  UNL     1      46.571  14.352   2.526  1.00  0.00    -0.247 OA
HETATM   17  N2  UNL     1      47.110  14.337   4.744  1.00  0.00    -0.338 N 
ATOM     18  H2  UNL     1      47.385  13.784   5.556  1.00  0.00     0.164 HD
ATOM     19  H1  UNL     1      47.352  11.725   4.195  1.00  0.00     0.170 HD
BRANCH  17  20
HETATM   20  C6  UNL     1      46.948  15.760   4.916  1.00  0.00     0.085 C 
HETATM   21  C7  UNL     1      45.517  16.214   4.864  1.00  0.00     0.032 C 
BRANCH  20  22
HETATM   22  C8  UNL     1      47.735  16.495   3.873  1.00  0.00    -0.000 C 
HETATM   23  C9  UNL     1      49.114  16.841   4.450  1.00  0.00     0.011 C 
HETATM   24  C10 UNL     1      47.053  17.723   3.350  1.00  0.00     0.011 C 
ENDBRANCH  20  22
ENDBRANCH  17  20
ENDBRANCH  10  14
ENDBRANCH   1  10
BRANCH   4  25
HETATM   25  N4  UNL     1      48.000   7.227   3.024  1.00  0.00    -0.190 N 
ATOM     26  H4  UNL     1      47.015   6.998   3.160  1.00  0.00     0.184 HD
BRANCH  25  27
HETATM   27  C13 UNL     1      48.952   6.414   3.678  1.00  0.00     0.066 A 
HETATM   28  C14 UNL     1      50.082   6.757   4.373  1.00  0.00     0.056 A 
HETATM   29  C15 UNL     1      50.721   5.617   4.846  1.00  0.00     0.014 A 
HETATM   30  N5  UNL     1      49.999   4.582   4.450  1.00  0.00    -0.349 N 
HETATM   31  C22 UNL     1      48.917   5.037   3.739  1.00  0.00     0.122 A 
BRANCH  29  32
HETATM   32  C16 UNL     1      51.960   5.580   5.649  1.00  0.00     0.053 C 
HETATM   33  C17 UNL     1      53.197   5.888   4.826  1.00  0.00     0.011 C 
ENDBRANCH  29  32
BRANCH  30  34
HETATM   34  C18 UNL     1      50.149   3.173   4.637  1.00  0.00     0.026 C 
HETATM   35  C19 UNL     1      48.940   2.382   4.120  1.00  0.00     0.038 C 
HETATM   36  C20 UNL     1      51.305   2.713   3.721  1.00  0.00     0.038 C 
HETATM   37  C21 UNL     1      50.529   2.681   5.969  1.00  0.00     0.038 C 
ENDBRANCH  30  34
ENDBRANCH  25  27
ENDBRANCH   4  25
TORSDOF 10
ENDMDL
MODEL 3
REMARK VINA RESULT: -6.966850253      6.035      8.953
REMARK  10 active torsions:
REMARK  status: ('A' for Active; 'I' for Inactive)
REMARK    1  A    between atoms: C2_2  and  C3_3 
REMARK    2  A    between atoms: C3_3  and  C4_4 
REMARK    3  A    between atoms: C4_4  and  N1_5 
REMARK    4  A    between atoms: C4_4  and  C11_16 
REMARK       I    between atoms: N1_5  and  C5_7 
REMARK       I    between atoms: C5_7  and  N2_9 
REMARK    5  A    between atoms: N2_9  and  C6_11 
REMARK    6  A    between atoms: C6_11  and  C8_13 
REMARK    7  A    between atoms: C12_19  and  N4_20 
REMARK    8  A    between atoms: N4_20  and  C13_22 
REMARK    9  A    between atoms: C15_24  and  C16_25 
REMARK   10  A    between atoms: N5_27  and  C18_28 
ROOT
HETATM    1  C11 UNL     1      49.043   8.964   2.077  1.00  0.00     0.095 A 
HETATM    2  N3  UNL     1      48.957   8.205   3.190  1.00  0.00    -0.188 N 
ATOM      3  H3  UNL     1      48.081   8.225   3.713  1.00  0.00     0.184 HD
HETATM    4  C12 UNL     1      49.938   7.432   3.654  1.00  0.00     0.683 A 
HETATM    5  N6  UNL     1      51.098   7.388   2.987  1.00  0.00    -0.200 N 
ATOM      6  H6  UNL     1      51.865   6.804   3.321  1.00  0.00     0.183 HD
HETATM    7  C23 UNL     1      51.236   8.125   1.871  1.00  0.00     0.132 A 
HETATM    8  C24 UNL     1      50.215   8.923   1.399  1.00  0.00     0.079 A 
HETATM    9 CL1  UNL     1      50.417   9.873  -0.045  1.00  0.00    -0.080 Cl
ENDROOT
BRANCH   1  10
HETATM   10  C4  UNL     1      47.847   9.715   1.698  1.00  0.00     0.042 C 
BRANCH  10  11
HETATM   11  C3  UNL     1      46.791   8.917   0.969  1.00  0.00     0.059 C 
BRANCH  11  12
HETATM   12  C2  UNL     1      46.143   9.584  -0.177  1.00  0.00     0.002 C 
HETATM   13  C1  UNL     1      44.847  10.284   0.080  1.00  0.00     0.005 C 
ENDBRANCH  11  12
ENDBRANCH  10  11
BRANCH  10  14
HETATM   14  N1  UNL     1      47.334  10.681   2.602  1.00  0.00    -0.310 N 
HETATM   15  C5  UNL     1      47.416  12.062   2.339  1.00  0.00     0.320 C 
HETATM   16  O1  UNL     1      47.958  12.455   1.276  1.00  0.00    -0.247 OA
HETATM   17  N2  UNL     1      46.917  13.036   3.223  1.00  0.00    -0.338 N 
ATOM     18  H2  UNL     1      46.477  12.719   4.087  1.00  0.00     0.164 HD
ATOM     19  H1  UNL     1      46.892  10.367   3.466  1.00  0.00     0.170 HD
BRANCH  17  20
HETATM   20  C6  UNL     1      46.991  14.455   2.980  1.00  0.00     0.085 C 
HETATM   21  C7  UNL     1      47.657  15.223   4.087  1.00  0.00     0.032 C 
BRANCH  20  22
HETATM   22  C8  UNL     1      45.616  15.009   2.755  1.00  0.00    -0.000 C 
HETATM   23  C9  UNL     1      45.040  14.389   1.476  1.00  0.00     0.011 C 
HETATM   24  C10 UNL     1      45.567  16.507   2.691  1.00  0.00     0.011 C 
ENDBRANCH  20  22
ENDBRANCH  17  20
ENDBRANCH  10  14
ENDBRANCH   1  10
BRANCH   4  25
HETATM   25  N4  UNL     1      49.695   6.761   4.734  1.00  0.00    -0.190 N 
ATOM     26  H4  UNL     1      49.346   7.282   5.540  1.00  0.00     0.184 HD
BRANCH  25  27
HETATM   27  C13 UNL     1      49.871   5.369   4.888  1.00  0.00     0.066 A 
HETATM   28  C14 UNL     1      49.443   4.329   4.104  1.00  0.00     0.056 A 
HETATM   29  C15 UNL     1      49.848   3.117   4.649  1.00  0.00     0.014 A 
HETATM   30  N5  UNL     1      50.517   3.399   5.755  1.00  0.00    -0.349 N 
HETATM   31  C22 UNL     1      50.547   4.761   5.924  1.00  0.00     0.122 A 
BRANCH  29  32
HETATM   32  C16 UNL     1      49.590   1.776   4.085  1.00  0.00     0.053 C 
HETATM   33  C17 UNL     1      48.196   1.270   4.404  1.00  0.00     0.011 C 
ENDBRANCH  29  32
BRANCH  30  34
HETATM   34  C18 UNL     1      51.171   2.576   6.723  1.00  0.00     0.026 C 
HETATM   35  C19 UNL     1      52.419   1.886   6.157  1.00  0.00     0.038 C 
HETATM   36  C20 UNL     1      51.736   3.516   7.812  1.00  0.00     0.038 C 
HETATM   37  C21 UNL     1      50.364   1.602   7.473  1.00  0.00     0.038 C 
ENDBRANCH  30  34
ENDBRANCH  25  27
ENDBRANCH   4  25
TORSDOF 10
ENDMDL
MODEL 4
REMARK VINA RESULT: -6.937749037      4.012      7.247
REMARK  10 active torsions:
REMARK  status: ('A' for Active; 'I' for Inactive)
REMARK    1  A    between atoms: C2_2  and  C3_3 
REMARK    2  A    between atoms: C3_3  and  C4_4 
REMARK    3  A    between atoms: C4_4  and  N1_5 
REMARK    4  A    between atoms: C4_4  and  C11_16 
REMARK       I    between atoms: N1_5  and  C5_7 
REMARK       I    between atoms: C5_7  and  N2_9 
REMARK    5  A    between atoms: N2_9  and  C6_11 
REMARK    6  A    between atoms: C6_11  and  C8_13 
REMARK    7  A    between atoms: C12_19  and  N4_20 
REMARK    8  A    between atoms: N4_20  and  C13_22 
REMARK    9  A    between atoms: C15_24  and  C16_25 
REMARK   10  A    between atoms: N5_27  and  C18_28 
ROOT
HETATM    1  C11 UNL     1      48.991   9.281   0.766  1.00  0.00     0.095 A 
HETATM    2  N3  UNL     1      48.226   9.939   1.664  1.00  0.00    -0.188 N 
ATOM      3  H3  UNL     1      47.761   9.389   2.387  1.00  0.00     0.184 HD
HETATM    4  C12 UNL     1      48.038  11.258   1.671  1.00  0.00     0.683 A 
HETATM    5  N6  UNL     1      48.636  12.003   0.734  1.00  0.00    -0.200 N 
ATOM      6  H6  UNL     1      48.508  13.015   0.717  1.00  0.00     0.183 HD
HETATM    7  C23 UNL     1      49.409  11.397  -0.184  1.00  0.00     0.132 A 
HETATM    8  C24 UNL     1      49.598  10.031  -0.184  1.00  0.00     0.079 A 
HETATM    9 CL1  UNL     1      50.599   9.265  -1.385  1.00  0.00    -0.080 Cl
ENDROOT
BRANCH   1  10
HETATM   10  C4  UNL     1      49.115   7.835   0.943  1.00  0.00     0.042 C 
BRANCH  10  11
HETATM   11  C3  UNL     1      48.451   6.997  -0.126  1.00  0.00     0.059 C 
BRANCH  11  12
HETATM   12  C2  UNL     1      49.266   5.915  -0.709  1.00  0.00     0.002 C 
HETATM   13  C1  UNL     1      48.762   4.516  -0.550  1.00  0.00     0.005 C 
ENDBRANCH  11  12
ENDBRANCH  10  11
BRANCH  10  14
HETATM   14  N1  UNL     1      50.342   7.309   1.423  1.00  0.00    -0.310 N 
HETATM   15  C5  UNL     1      50.680   7.343   2.789  1.00  0.00     0.320 C 
HETATM   16  O1  UNL     1      49.877   7.851   3.611  1.00  0.00    -0.247 OA
HETATM   17  N2  UNL     1      51.893   6.831   3.286  1.00  0.00    -0.338 N 
ATOM     18  H2  UNL     1      52.547   6.417   2.621  1.00  0.00     0.164 HD
ATOM     19  H1  UNL     1      50.997   6.894   0.761  1.00  0.00     0.170 HD
BRANCH  17  20
HETATM   20  C6  UNL     1      52.265   6.855   4.678  1.00  0.00     0.085 C 
HETATM   21  C7  UNL     1      52.885   8.154   5.114  1.00  0.00     0.032 C 
BRANCH  20  22
HETATM   22  C8  UNL     1      53.215   5.734   4.975  1.00  0.00    -0.000 C 
HETATM   23  C9  UNL     1      53.909   5.320   3.671  1.00  0.00     0.011 C 
HETATM   24  C10 UNL     1      52.572   4.551   5.635  1.00  0.00     0.011 C 
ENDBRANCH  20  22
ENDBRANCH  17  20
ENDBRANCH  10  14
ENDBRANCH   1  10
BRANCH   4  25
HETATM   25  N4  UNL     1      47.278  11.736   2.604  1.00  0.00    -0.190 N 
ATOM     26  H4  UNL     1      47.060  11.123   3.390  1.00  0.00     0.184 HD
BRANCH  25  27
HETATM   27  C13 UNL     1      46.727  13.036   2.623  1.00  0.00     0.066 A 
HETATM   28  C14 UNL     1      45.658  13.556   1.941  1.00  0.00     0.056 A 
HETATM   29  C15 UNL     1      45.480  14.893   2.272  1.00  0.00     0.014 A 
HETATM   30  N5  UNL     1      46.425  15.200   3.147  1.00  0.00    -0.349 N 
HETATM   31  C22 UNL     1      47.197  14.090   3.379  1.00  0.00     0.122 A 
BRANCH  29  32
HETATM   32  C16 UNL     1      44.426  15.789   1.755  1.00  0.00     0.053 C 
HETATM   33  C17 UNL     1      44.435  15.884   0.240  1.00  0.00     0.011 C 
ENDBRANCH  29  32
BRANCH  30  34
HETATM   34  C18 UNL     1      46.740  16.409   3.841  1.00  0.00     0.026 C 
HETATM   35  C19 UNL     1      45.887  16.598   5.103  1.00  0.00     0.038 C 
HETATM   36  C20 UNL     1      48.176  16.255   4.392  1.00  0.00     0.038 C 
HETATM   37  C21 UNL     1      46.780  17.665   3.078  1.00  0.00     0.038 C 
ENDBRANCH  30  34
ENDBRANCH  25  27
ENDBRANCH   4  25
TORSDOF 10
ENDMDL
MODEL 5
REMARK VINA RESULT: -6.926720175      4.799      8.267
REMARK  10 active torsions:
REMARK  status: ('A' for Active; 'I' for Inactive)
REMARK    1  A    between atoms: C2_2  and  C3_3 
REMARK    2  A    between atoms: C3_3  and  C4_4 
REMARK    3  A    between atoms: C4_4  and  N1_5 
REMARK    4  A    between atoms: C4_4  and  C11_16 
REMARK       I    between atoms: N1_5  and  C5_7 
REMARK       I    between atoms: C5_7  and  N2_9 
REMARK    5  A    between atoms: N2_9  and  C6_11 
REMARK    6  A    between atoms: C6_11  and  C8_13 
REMARK    7  A    between atoms: C12_19  and  N4_20 
REMARK    8  A    between atoms: N4_20  and  C13_22 
REMARK    9  A    between atoms: C15_24  and  C16_25 
REMARK   10  A    between atoms: N5_27  and  C18_28 
ROOT
HETATM    1  C11 UNL     1      47.798  10.512   1.785  1.00  0.00     0.095 A 
HETATM    2  N3  UNL     1      47.612   9.379   2.496  1.00  0.00    -0.188 N 
ATOM      3  H3  UNL     1      46.910   9.393   3.237  1.00  0.00     0.184 HD
HETATM    4  C12 UNL     1      48.281   8.245   2.296  1.00  0.00     0.683 A 
HETATM    5  N6  UNL     1      49.207   8.200   1.331  1.00  0.00    -0.200 N 
ATOM      6  H6  UNL     1      49.734   7.344   1.158  1.00  0.00     0.183 HD
HETATM    7  C23 UNL     1      49.432   9.301   0.593  1.00  0.00     0.132 A 
HETATM    8  C24 UNL     1      48.735  10.472   0.807  1.00  0.00     0.079 A 
HETATM    9 CL1  UNL     1      49.045  11.888  -0.156  1.00  0.00    -0.080 Cl
ENDROOT
BRANCH   1  10
HETATM   10  C4  UNL     1      46.939  11.647   2.118  1.00  0.00     0.042 C 
BRANCH  10  11
HETATM   11  C3  UNL     1      45.498  11.513   1.682  1.00  0.00     0.059 C 
BRANCH  11  12
HETATM   12  C2  UNL     1      45.230  11.704   0.244  1.00  0.00     0.002 C 
HETATM   13  C1  UNL     1      44.963  13.099  -0.224  1.00  0.00     0.005 C 
ENDBRANCH  11  12
ENDBRANCH  10  11
BRANCH  10  14
HETATM   14  N1  UNL     1      47.116  12.292   3.370  1.00  0.00    -0.310 N 
HETATM   15  C5  UNL     1      46.942  13.681   3.520  1.00  0.00     0.320 C 
HETATM   16  O1  UNL     1      46.619  14.373   2.522  1.00  0.00    -0.247 OA
HETATM   17  N2  UNL     1      47.116  14.341   4.750  1.00  0.00    -0.338 N 
ATOM     18  H2  UNL     1      47.377  13.781   5.563  1.00  0.00     0.164 HD
ATOM     19  H1  UNL     1      47.377  11.734   4.183  1.00  0.00     0.170 HD
BRANCH  17  20
HETATM   20  C6  UNL     1      46.947  15.761   4.931  1.00  0.00     0.085 C 
HETATM   21  C7  UNL     1      45.514  16.211   4.859  1.00  0.00     0.032 C 
BRANCH  20  22
HETATM   22  C8  UNL     1      47.749  16.508   3.908  1.00  0.00    -0.000 C 
HETATM   23  C9  UNL     1      49.098  16.894   4.528  1.00  0.00     0.011 C 
HETATM   24  C10 UNL     1      47.054  17.715   3.352  1.00  0.00     0.011 C 
ENDBRANCH  20  22
ENDBRANCH  17  20
ENDBRANCH  10  14
ENDBRANCH   1  10
BRANCH   4  25
HETATM   25  N4  UNL     1      47.980   7.245   3.061  1.00  0.00    -0.190 N 
ATOM     26  H4  UNL     1      47.016   7.180   3.389  1.00  0.00     0.184 HD
BRANCH  25  27
HETATM   27  C13 UNL     1      48.876   6.236   3.479  1.00  0.00     0.066 A 
HETATM   28  C14 UNL     1      48.772   4.872   3.402  1.00  0.00     0.056 A 
HETATM   29  C15 UNL     1      49.902   4.272   3.945  1.00  0.00     0.014 A 
HETATM   30  N5  UNL     1      50.695   5.249   4.353  1.00  0.00    -0.349 N 
HETATM   31  C22 UNL     1      50.097   6.454   4.081  1.00  0.00     0.122 A 
BRANCH  29  32
HETATM   32  C16 UNL     1      50.166   2.821   4.031  1.00  0.00     0.053 C 
HETATM   33  C17 UNL     1      49.431   2.164   5.185  1.00  0.00     0.011 C 
ENDBRANCH  29  32
BRANCH  30  34
HETATM   34  C18 UNL     1      51.982   5.251   4.976  1.00  0.00     0.026 C 
HETATM   35  C19 UNL     1      52.588   6.658   5.064  1.00  0.00     0.038 C 
HETATM   36  C20 UNL     1      51.772   4.851   6.454  1.00  0.00     0.038 C 
HETATM   37  C21 UNL     1      52.996   4.305   4.489  1.00  0.00     0.038 C 
ENDBRANCH  30  34
ENDBRANCH  25  27
ENDBRANCH   4  25
TORSDOF 10
ENDMDL
