MODEL 1
REMARK VINA RESULT: -6.023191607      0.000      0.000
REMARK  11 active torsions:
REMARK  status: ('A' for Active; 'I' for Inactive)
REMARK    1  A    between atoms: O1_2  and  C2_3 
REMARK    2  A    between atoms: C2_3  and  O2_4 
REMARK    3  A    between atoms: O2_4  and  C3_5 
REMARK    4  A    between atoms: C3_5  and  C4_6 
REMARK    5  A    between atoms: C13_15  and  O3_16 
REMARK    6  A    between atoms: C15_19  and  C16_20 
REMARK    7  A    between atoms: C16_20  and  C17_22 
REMARK    8  A    between atoms: C17_22  and  O5_23 
REMARK    9  A    between atoms: C18_25  and  C19_26 
REMARK   10  A    between atoms: C20_27  and  C21_28 
REMARK   11  A    between atoms: C21_28  and  C22_29 
ROOT
HETATM    1  C4  UNL     1      50.303   2.451   4.880  1.00  0.00    -0.012 C 
HETATM    2  C5  UNL     1      49.741   2.100   6.274  1.00  0.00     0.018 C 
HETATM    3  C6  UNL     1      49.908   1.251   4.029  1.00  0.00    -0.008 C 
HETATM    4  C7  UNL     1      48.544   0.720   4.391  1.00  0.00     0.011 C 
HETATM    5  C8  UNL     1      50.028   1.490   2.572  1.00  0.00     0.006 C 
HETATM    6  C9  UNL     1      50.291   2.879   2.141  1.00  0.00     0.010 C 
HETATM    7  C10 UNL     1      49.445   3.880   2.942  1.00  0.00    -0.033 C 
HETATM    8  C11 UNL     1      48.022   3.592   2.516  1.00  0.00     0.016 C 
HETATM    9  C12 UNL     1      49.614   3.663   4.431  1.00  0.00     0.033 C 
HETATM   10  C13 UNL     1      50.093   4.926   5.141  1.00  0.00     0.125 C 
HETATM   11  C14 UNL     1      49.171   6.039   4.677  1.00  0.00     0.050 C 
HETATM   12  C15 UNL     1      49.567   6.433   3.249  1.00  0.00     0.036 C 
HETATM   13  C18 UNL     1      48.366   6.990   2.522  1.00  0.00     0.024 C 
HETATM   14  C25 UNL     1      48.539   6.637   1.078  1.00  0.00     0.010 C 
HETATM   15  C26 UNL     1      49.502   5.449   1.059  1.00  0.00     0.007 C 
HETATM   16  C27 UNL     1      49.953   5.220   2.475  1.00  0.00     0.011 C 
ENDROOT
BRANCH   1  17
HETATM   17  C3  UNL     1      51.784   2.476   5.075  1.00  0.00     0.180 C 
BRANCH  17  18
HETATM   18  O2  UNL     1      51.987   2.353   6.478  1.00  0.00    -0.366 OA
BRANCH  18  19
HETATM   19  C2  UNL     1      53.124   3.020   6.874  1.00  0.00     0.337 C 
BRANCH  19  20
HETATM   20  O1  UNL     1      52.738   4.235   7.429  1.00  0.00    -0.372 OA
HETATM   21  C1  UNL     1      51.961   4.065   8.564  1.00  0.00     0.204 C 
ENDBRANCH  19  20
ENDBRANCH  18  19
ENDBRANCH  17  18
ENDBRANCH   1  17
BRANCH  10  22
HETATM   22  O3  UNL     1      51.419   5.175   4.963  1.00  0.00    -0.395 OA
ATOM     23  H3  UNL     1      51.669   6.065   5.184  1.00  0.00     0.210 HD
ENDBRANCH  10  22
BRANCH  12  24
HETATM   24  C16 UNL     1      50.652   7.436   3.397  1.00  0.00     0.159 C 
HETATM   25  O4  UNL     1      50.824   8.036   4.475  1.00  0.00    -0.295 OA
BRANCH  24  26
HETATM   26  C17 UNL     1      51.577   7.779   2.291  1.00  0.00     0.243 C 
BRANCH  26  27
HETATM   27  O5  UNL     1      51.366   9.097   1.875  1.00  0.00    -0.394 OA
ATOM     28  H5  UNL     1      52.152   9.614   2.008  1.00  0.00     0.209 HD
ENDBRANCH  26  27
ENDBRANCH  24  26
ENDBRANCH  12  24
BRANCH  13  29
HETATM   29  C19 UNL     1      47.995   8.371   2.711  1.00  0.00    -0.025 C 
HETATM   30  C20 UNL     1      47.651   9.163   1.712  1.00  0.00    -0.030 C 
BRANCH  30  31
HETATM   31  C21 UNL     1      47.262  10.587   1.887  1.00  0.00     0.030 C 
BRANCH  31  32
HETATM   32  C22 UNL     1      46.181  10.953   0.918  1.00  0.00    -0.019 C 
HETATM   33  C23 UNL     1      45.603   9.733   0.291  1.00  0.00     0.010 C 
HETATM   34  C24 UNL     1      45.115  11.762   1.671  1.00  0.00     0.010 C 
ENDBRANCH  31  32
ENDBRANCH  30  31
ENDBRANCH  13  29
TORSDOF 11
ENDMDL
MODEL 2
REMARK VINA RESULT: -5.852538079      6.900      9.501
REMARK  11 active torsions:
REMARK  status: ('A' for Active; 'I' for Inactive)
REMARK    1  A    between atoms: O1_2  and  C2_3 
REMARK    2  A    between atoms: C2_3  and  O2_4 
REMARK    3  A    between atoms: O2_4  and  C3_5 
REMARK    4  A    between atoms: C3_5  and  C4_6 
REMARK    5  A    between atoms: C13_15  and  O3_16 
REMARK    6  A    between atoms: C15_19  and  C16_20 
REMARK    7  A    between atoms: C16_20  and  C17_22 
REMARK    8  A    between atoms: C17_22  and  O5_23 
REMARK    9  A    between atoms: C18_25  and  C19_26 
REMARK   10  A    between atoms: C20_27  and  C21_28 
REMARK   11  A    between atoms: C21_28  and  C22_29 
ROOT
HETATM    1  C4  UNL     1      47.401   9.582  -2.634  1.00  0.00    -0.012 C 
HETATM    2  C5  UNL     1      47.970  10.246  -3.906  1.00  0.00     0.018 C 
HETATM    3  C6  UNL     1      48.261   8.335  -2.473  1.00  0.00    -0.008 C 
HETATM    4  C7  UNL     1      49.701   8.584  -2.844  1.00  0.00     0.011 C 
HETATM    5  C8  UNL     1      48.147   7.702  -1.139  1.00  0.00     0.006 C 
HETATM    6  C9  UNL     1      47.414   8.456  -0.100  1.00  0.00     0.010 C 
HETATM    7  C10 UNL     1      47.781   9.948  -0.133  1.00  0.00    -0.033 C 
HETATM    8  C11 UNL     1      49.232   9.985   0.295  1.00  0.00     0.016 C 
HETATM    9  C12 UNL     1      47.618  10.516  -1.527  1.00  0.00     0.033 C 
HETATM   10  C13 UNL     1      46.664  11.707  -1.549  1.00  0.00     0.125 C 
HETATM   11  C14 UNL     1      47.135  12.637  -0.445  1.00  0.00     0.050 C 
HETATM   12  C15 UNL     1      46.706  12.044   0.903  1.00  0.00     0.036 C 
HETATM   13  C18 UNL     1      47.655  12.498   1.986  1.00  0.00     0.024 C 
HETATM   14  C25 UNL     1      47.711  11.396   2.996  1.00  0.00     0.010 C 
HETATM   15  C26 UNL     1      47.258  10.138   2.255  1.00  0.00     0.007 C 
HETATM   16  C27 UNL     1      46.841  10.561   0.873  1.00  0.00     0.011 C 
ENDROOT
BRANCH   1  17
HETATM   17  C3  UNL     1      46.007   9.198  -3.011  1.00  0.00     0.180 C 
BRANCH  17  18
HETATM   18  O2  UNL     1      45.733   9.892  -4.223  1.00  0.00    -0.366 OA
BRANCH  18  19
HETATM   19  C2  UNL     1      44.386   9.886  -4.502  1.00  0.00     0.337 C 
BRANCH  19  20
HETATM   20  O1  UNL     1      43.696   9.849  -3.296  1.00  0.00    -0.372 OA
HETATM   21  C1  UNL     1      42.446  10.439  -3.392  1.00  0.00     0.204 C 
ENDBRANCH  19  20
ENDBRANCH  18  19
ENDBRANCH  17  18
ENDBRANCH   1  17
BRANCH  10  22
HETATM   22  O3  UNL     1      45.353  11.351  -1.472  1.00  0.00    -0.395 OA
ATOM     23  H3  UNL     1      44.936  11.260  -2.321  1.00  0.00     0.210 HD
ENDBRANCH  10  22
BRANCH  12  24
HETATM   24  C16 UNL     1      45.320  12.527   1.130  1.00  0.00     0.159 C 
HETATM   25  O4  UNL     1      44.471  11.797   1.677  1.00  0.00    -0.295 OA
BRANCH  24  26
HETATM   26  C17 UNL     1      44.870  13.879   0.724  1.00  0.00     0.243 C 
BRANCH  26  27
HETATM   27  O5  UNL     1      44.496  14.622   1.847  1.00  0.00    -0.394 OA
ATOM     28  H5  UNL     1      43.723  15.141   1.656  1.00  0.00     0.209 HD
ENDBRANCH  26  27
ENDBRANCH  24  26
ENDBRANCH  12  24
BRANCH  13  29
HETATM   29  C19 UNL     1      47.477  13.795   2.593  1.00  0.00    -0.025 C 
HETATM   30  C20 UNL     1      47.253  13.956   3.884  1.00  0.00    -0.030 C 
BRANCH  30  31
HETATM   31  C21 UNL     1      47.071  15.283   4.529  1.00  0.00     0.030 C 
BRANCH  31  32
HETATM   32  C22 UNL     1      47.750  16.349   3.727  1.00  0.00    -0.019 C 
HETATM   33  C23 UNL     1      46.829  17.494   3.490  1.00  0.00     0.010 C 
HETATM   34  C24 UNL     1      49.015  16.786   4.481  1.00  0.00     0.010 C 
ENDBRANCH  31  32
ENDBRANCH  30  31
ENDBRANCH  13  29
TORSDOF 11
ENDMDL
MODEL 3
REMARK VINA RESULT: -5.843670465      2.304      7.638
REMARK  11 active torsions:
REMARK  status: ('A' for Active; 'I' for Inactive)
REMARK    1  A    between atoms: O1_2  and  C2_3 
REMARK    2  A    between atoms: C2_3  and  O2_4 
REMARK    3  A    between atoms: O2_4  and  C3_5 
REMARK    4  A    between atoms: C3_5  and  C4_6 
REMARK    5  A    between atoms: C13_15  and  O3_16 
REMARK    6  A    between atoms: C15_19  and  C16_20 
REMARK    7  A    between atoms: C16_20  and  C17_22 
REMARK    8  A    between atoms: C17_22  and  O5_23 
REMARK    9  A    between atoms: C18_25  and  C19_26 
REMARK   10  A    between atoms: C20_27  and  C21_28 
REMARK   11  A    between atoms: C21_28  and  C22_29 
ROOT
HETATM    1  C4  UNL     1      49.530   9.188  -0.123  1.00  0.00    -0.012 C 
HETATM    2  C5  UNL     1      49.661   8.700  -1.582  1.00  0.00     0.018 C 
HETATM    3  C6  UNL     1      48.107   9.726  -0.059  1.00  0.00    -0.008 C 
HETATM    4  C7  UNL     1      47.144   8.890  -0.865  1.00  0.00     0.011 C 
HETATM    5  C8  UNL     1      47.614   9.940   1.321  1.00  0.00     0.006 C 
HETATM    6  C9  UNL     1      48.452   9.416   2.421  1.00  0.00     0.010 C 
HETATM    7  C10 UNL     1      48.997   8.019   2.086  1.00  0.00    -0.033 C 
HETATM    8  C11 UNL     1      47.769   7.135   2.062  1.00  0.00     0.016 C 
HETATM    9  C12 UNL     1      49.688   8.014   0.739  1.00  0.00     0.033 C 
HETATM   10  C13 UNL     1      51.132   7.532   0.841  1.00  0.00     0.125 C 
HETATM   11  C14 UNL     1      51.082   6.234   1.627  1.00  0.00     0.050 C 
HETATM   12  C15 UNL     1      50.865   6.572   3.107  1.00  0.00     0.036 C 
HETATM   13  C18 UNL     1      50.164   5.425   3.795  1.00  0.00     0.024 C 
HETATM   14  C25 UNL     1      49.327   6.025   4.881  1.00  0.00     0.010 C 
HETATM   15  C26 UNL     1      49.115   7.484   4.476  1.00  0.00     0.007 C 
HETATM   16  C27 UNL     1      49.928   7.724   3.234  1.00  0.00     0.011 C 
ENDROOT
BRANCH   1  17
HETATM   17  C3  UNL     1      50.509  10.312  -0.023  1.00  0.00     0.180 C 
BRANCH  17  18
HETATM   18  O2  UNL     1      51.340  10.201  -1.172  1.00  0.00    -0.366 OA
BRANCH  18  19
HETATM   19  C2  UNL     1      52.517  10.894  -1.000  1.00  0.00     0.337 C 
BRANCH  19  20
HETATM   20  O1  UNL     1      53.518   9.976  -0.707  1.00  0.00    -0.372 OA
HETATM   21  C1  UNL     1      53.640   9.006  -1.690  1.00  0.00     0.204 C 
ENDBRANCH  19  20
ENDBRANCH  18  19
ENDBRANCH  17  18
ENDBRANCH   1  17
BRANCH  10  22
HETATM   22  O3  UNL     1      51.981   8.469   1.344  1.00  0.00    -0.395 OA
ATOM     23  H3  UNL     1      51.744   9.358   1.108  1.00  0.00     0.210 HD
ENDBRANCH  10  22
BRANCH  12  24
HETATM   24  C16 UNL     1      52.219   6.821   3.663  1.00  0.00     0.159 C 
HETATM   25  O4  UNL     1      53.240   6.477   3.037  1.00  0.00    -0.295 OA
BRANCH  24  26
HETATM   26  C17 UNL     1      52.435   7.479   4.973  1.00  0.00     0.243 C 
BRANCH  26  27
HETATM   27  O5  UNL     1      52.899   8.785   4.789  1.00  0.00    -0.394 OA
ATOM     28  H5  UNL     1      53.112   9.180   5.626  1.00  0.00     0.209 HD
ENDBRANCH  26  27
ENDBRANCH  24  26
ENDBRANCH  12  24
BRANCH  13  29
HETATM   29  C19 UNL     1      50.931   4.292   4.252  1.00  0.00    -0.025 C 
HETATM   30  C20 UNL     1      50.827   3.803   5.474  1.00  0.00    -0.030 C 
BRANCH  30  31
HETATM   31  C21 UNL     1      51.604   2.634   5.963  1.00  0.00     0.030 C 
BRANCH  31  32
HETATM   32  C22 UNL     1      52.622   3.071   6.971  1.00  0.00    -0.019 C 
HETATM   33  C23 UNL     1      53.716   3.838   6.313  1.00  0.00     0.010 C 
HETATM   34  C24 UNL     1      51.908   3.909   8.042  1.00  0.00     0.010 C 
ENDBRANCH  31  32
ENDBRANCH  30  31
ENDBRANCH  13  29
TORSDOF 11
ENDMDL
MODEL 4
REMARK VINA RESULT: -5.786979494      1.724      3.032
REMARK  11 active torsions:
REMARK  status: ('A' for Active; 'I' for Inactive)
REMARK    1  A    between atoms: O1_2  and  C2_3 
REMARK    2  A    between atoms: C2_3  and  O2_4 
REMARK    3  A    between atoms: O2_4  and  C3_5 
REMARK    4  A    between atoms: C3_5  and  C4_6 
REMARK    5  A    between atoms: C13_15  and  O3_16 
REMARK    6  A    between atoms: C15_19  and  C16_20 
REMARK    7  A    between atoms: C16_20  and  C17_22 
REMARK    8  A    between atoms: C17_22  and  O5_23 
REMARK    9  A    between atoms: C18_25  and  C19_26 
REMARK   10  A    between atoms: C20_27  and  C21_28 
REMARK   11  A    between atoms: C21_28  and  C22_29 
ROOT
HETATM    1  C4  UNL     1      50.537   5.667   3.881  1.00  0.00    -0.012 C 
HETATM    2  C5  UNL     1      49.857   5.555   5.263  1.00  0.00     0.018 C 
HETATM    3  C6  UNL     1      50.810   4.217   3.506  1.00  0.00    -0.008 C 
HETATM    4  C7  UNL     1      49.697   3.296   3.938  1.00  0.00     0.011 C 
HETATM    5  C8  UNL     1      51.146   4.026   2.076  1.00  0.00     0.006 C 
HETATM    6  C9  UNL     1      50.962   5.190   1.183  1.00  0.00     0.010 C 
HETATM    7  C10 UNL     1      49.652   5.930   1.498  1.00  0.00    -0.033 C 
HETATM    8  C11 UNL     1      48.567   4.952   1.106  1.00  0.00     0.016 C 
HETATM    9  C12 UNL     1      49.562   6.271   2.970  1.00  0.00     0.033 C 
HETATM   10  C13 UNL     1      49.372   7.768   3.198  1.00  0.00     0.125 C 
HETATM   11  C14 UNL     1      48.227   8.185   2.293  1.00  0.00     0.050 C 
HETATM   12  C15 UNL     1      48.749   8.252   0.852  1.00  0.00     0.036 C 
HETATM   13  C18 UNL     1      47.616   7.996  -0.113  1.00  0.00     0.024 C 
HETATM   14  C25 UNL     1      48.217   7.327  -1.310  1.00  0.00     0.010 C 
HETATM   15  C26 UNL     1      49.531   6.717  -0.822  1.00  0.00     0.007 C 
HETATM   16  C27 UNL     1      49.716   7.145   0.609  1.00  0.00     0.011 C 
ENDROOT
BRANCH   1  17
HETATM   17  C3  UNL     1      51.822   6.376   4.160  1.00  0.00     0.180 C 
BRANCH  17  18
HETATM   18  O2  UNL     1      52.376   5.730   5.300  1.00  0.00    -0.366 OA
BRANCH  18  19
HETATM   19  C2  UNL     1      53.726   5.513   5.138  1.00  0.00     0.337 C 
BRANCH  19  20
HETATM   20  O1  UNL     1      54.160   4.705   6.182  1.00  0.00    -0.372 OA
HETATM   21  C1  UNL     1      53.344   3.599   6.359  1.00  0.00     0.204 C 
ENDBRANCH  19  20
ENDBRANCH  18  19
ENDBRANCH  17  18
ENDBRANCH   1  17
BRANCH  10  22
HETATM   22  O3  UNL     1      50.516   8.489   3.037  1.00  0.00    -0.395 OA
ATOM     23  H3  UNL     1      50.511   9.314   3.506  1.00  0.00     0.210 HD
ENDBRANCH  10  22
BRANCH  12  24
HETATM   24  C16 UNL     1      49.325   9.612   0.698  1.00  0.00     0.159 C 
HETATM   25  O4  UNL     1      48.816  10.590   1.281  1.00  0.00    -0.295 OA
BRANCH  24  26
HETATM   26  C17 UNL     1      50.513   9.886  -0.143  1.00  0.00     0.243 C 
BRANCH  26  27
HETATM   27  O5  UNL     1      51.663   9.952   0.649  1.00  0.00    -0.394 OA
ATOM     28  H5  UNL     1      52.428   9.709   0.141  1.00  0.00     0.209 HD
ENDBRANCH  26  27
ENDBRANCH  24  26
ENDBRANCH  12  24
BRANCH  13  29
HETATM   29  C19 UNL     1      46.728   9.074  -0.472  1.00  0.00    -0.025 C 
HETATM   30  C20 UNL     1      45.564   9.271   0.120  1.00  0.00    -0.030 C 
BRANCH  30  31
HETATM   31  C21 UNL     1      44.637  10.377  -0.232  1.00  0.00     0.030 C 
BRANCH  31  32
HETATM   32  C22 UNL     1      45.291  11.702   0.010  1.00  0.00    -0.019 C 
HETATM   33  C23 UNL     1      44.877  12.688  -1.026  1.00  0.00     0.010 C 
HETATM   34  C24 UNL     1      44.916  12.172   1.423  1.00  0.00     0.010 C 
ENDBRANCH  31  32
ENDBRANCH  30  31
ENDBRANCH  13  29
TORSDOF 11
ENDMDL
MODEL 5
REMARK VINA RESULT: -5.775873551      7.748     10.250
REMARK  11 active torsions:
REMARK  status: ('A' for Active; 'I' for Inactive)
REMARK    1  A    between atoms: O1_2  and  C2_3 
REMARK    2  A    between atoms: C2_3  and  O2_4 
REMARK    3  A    between atoms: O2_4  and  C3_5 
REMARK    4  A    between atoms: C3_5  and  C4_6 
REMARK    5  A    between atoms: C13_15  and  O3_16 
REMARK    6  A    between atoms: C15_19  and  C16_20 
REMARK    7  A    between atoms: C16_20  and  C17_22 
REMARK    8  A    between atoms: C17_22  and  O5_23 
REMARK    9  A    between atoms: C18_25  and  C19_26 
REMARK   10  A    between atoms: C20_27  and  C21_28 
REMARK   11  A    between atoms: C21_28  and  C22_29 
ROOT
HETATM    1  C4  UNL     1      44.226   9.015  -3.440  1.00  0.00    -0.012 C 
HETATM    2  C5  UNL     1      43.342   7.861  -2.922  1.00  0.00     0.018 C 
HETATM    3  C6  UNL     1      43.508   9.467  -4.705  1.00  0.00    -0.008 C 
HETATM    4  C7  UNL     1      42.008   9.421  -4.557  1.00  0.00     0.011 C 
HETATM    5  C8  UNL     1      43.963  10.784  -5.207  1.00  0.00     0.006 C 
HETATM    6  C9  UNL     1      44.861  11.563  -4.329  1.00  0.00     0.010 C 
HETATM    7  C10 UNL     1      44.400  11.499  -2.865  1.00  0.00    -0.033 C 
HETATM    8  C11 UNL     1      43.084  12.247  -2.855  1.00  0.00     0.016 C 
HETATM    9  C12 UNL     1      44.205  10.065  -2.420  1.00  0.00     0.033 C 
HETATM   10  C13 UNL     1      45.049   9.729  -1.193  1.00  0.00     0.125 C 
HETATM   11  C14 UNL     1      44.781  10.836  -0.189  1.00  0.00     0.050 C 
HETATM   12  C15 UNL     1      45.542  12.090  -0.636  1.00  0.00     0.036 C 
HETATM   13  C18 UNL     1      44.835  13.324  -0.129  1.00  0.00     0.024 C 
HETATM   14  C25 UNL     1      45.082  14.404  -1.135  1.00  0.00     0.010 C 
HETATM   15  C26 UNL     1      45.437  13.679  -2.434  1.00  0.00     0.007 C 
HETATM   16  C27 UNL     1      45.501  12.209  -2.120  1.00  0.00     0.011 C 
ENDROOT
BRANCH   1  17
HETATM   17  C3  UNL     1      45.521   8.356  -3.793  1.00  0.00     0.180 C 
BRANCH  17  18
HETATM   18  O2  UNL     1      45.209   7.428  -4.824  1.00  0.00    -0.366 OA
BRANCH  18  19
HETATM   19  C2  UNL     1      46.322   7.136  -5.580  1.00  0.00     0.337 C 
BRANCH  19  20
HETATM   20  O1  UNL     1      46.715   5.836  -5.283  1.00  0.00    -0.372 OA
HETATM   21  C1  UNL     1      48.044   5.769  -4.896  1.00  0.00     0.204 C 
ENDBRANCH  19  20
ENDBRANCH  18  19
ENDBRANCH  17  18
ENDBRANCH   1  17
BRANCH  10  22
HETATM   22  O3  UNL     1      46.364   9.529  -1.480  1.00  0.00    -0.395 OA
ATOM     23  H3  UNL     1      46.804  10.308  -1.796  1.00  0.00     0.210 HD
ENDBRANCH  10  22
BRANCH  12  24
HETATM   24  C16 UNL     1      46.909  11.951  -0.071  1.00  0.00     0.159 C 
HETATM   25  O4  UNL     1      47.914  12.194  -0.767  1.00  0.00    -0.295 OA
BRANCH  24  26
HETATM   26  C17 UNL     1      47.156  11.521   1.325  1.00  0.00     0.243 C 
BRANCH  26  27
HETATM   27  O5  UNL     1      48.202  12.261   1.882  1.00  0.00    -0.394 OA
ATOM     28  H5  UNL     1      48.980  12.189   1.341  1.00  0.00     0.209 HD
ENDBRANCH  26  27
ENDBRANCH  24  26
ENDBRANCH  12  24
BRANCH  13  29
HETATM   29  C19 UNL     1      45.061  13.770   1.225  1.00  0.00    -0.025 C 
HETATM   30  C20 UNL     1      45.017  15.042   1.576  1.00  0.00    -0.030 C 
BRANCH  30  31
HETATM   31  C21 UNL     1      45.243  15.521   2.965  1.00  0.00     0.030 C 
BRANCH  31  32
HETATM   32  C22 UNL     1      46.708  15.680   3.229  1.00  0.00    -0.019 C 
HETATM   33  C23 UNL     1      47.061  17.119   3.380  1.00  0.00     0.010 C 
HETATM   34  C24 UNL     1      47.059  14.876   4.489  1.00  0.00     0.010 C 
ENDBRANCH  31  32
ENDBRANCH  30  31
ENDBRANCH  13  29
TORSDOF 11
ENDMDL
