MODEL 1
REMARK VINA RESULT: -8.029171325      0.000      0.000
REMARK  12 active torsions:
REMARK  status: ('A' for Active; 'I' for Inactive)
REMARK    1  A    between atoms: O1_2  and  C2_3 
REMARK    2  A    between atoms: C2_3  and  C3_5 
REMARK    3  A    between atoms: C3_5  and  C4_6 
REMARK    4  A    between atoms: C4_6  and  C6_8 
REMARK    5  A    between atoms: C6_8  and  C7_9 
REMARK    6  A    between atoms: C7_9  and  C9_11 
REMARK    7  A    between atoms: C9_11  and  C10_12 
REMARK    8  A    between atoms: C11_13  and  C12_14 
REMARK    9  A    between atoms: C12_14  and  C14_16 
REMARK   10  A    between atoms: C22_25  and  O3_27 
REMARK   11  A    between atoms: C24_29  and  O4_30 
REMARK   12  A    between atoms: C25_32  and  O5_33 
ROOT
HETATM    1  C14 UNL     1      48.231   8.333   0.600  1.00  0.00     0.047 C 
HETATM    2  C15 UNL     1      48.727   7.526  -0.483  1.00  0.00    -0.012 C 
HETATM    3  C16 UNL     1      48.895   6.099  -0.501  1.00  0.00    -0.069 C 
HETATM    4  C17 UNL     1      48.994   5.523  -1.910  1.00  0.00     0.047 C 
HETATM    5  C18 UNL     1      48.998   5.177   0.398  1.00  0.00    -0.017 C 
HETATM    6  C19 UNL     1      48.978   5.275   1.873  1.00  0.00     0.056 C 
HETATM    7  C20 UNL     1      50.361   5.172   2.407  1.00  0.00    -0.000 C 
HETATM    8  C21 UNL     1      51.126   6.114   2.910  1.00  0.00     0.044 C 
HETATM    9 CL1  UNL     1      52.767   5.614   3.464  1.00  0.00    -0.086 Cl
HETATM   10  C22 UNL     1      50.780   7.560   3.072  1.00  0.00     0.120 C 
HETATM   11  C23 UNL     1      49.869   7.701   4.252  1.00  0.00     0.055 C 
HETATM   12  C24 UNL     1      50.485   8.289   1.831  1.00  0.00     0.187 C 
HETATM   13  C25 UNL     1      49.210   8.945   1.569  1.00  0.00     0.158 C 
ENDROOT
BRANCH   1  14
HETATM   14  C12 UNL     1      47.486   9.522  -0.059  1.00  0.00     0.014 C 
HETATM   15  C13 UNL     1      46.877   9.095  -1.395  1.00  0.00     0.015 C 
BRANCH  14  16
HETATM   16  C11 UNL     1      46.474  10.141   0.779  1.00  0.00    -0.026 C 
HETATM   17  C10 UNL     1      45.957  11.353   0.605  1.00  0.00    -0.030 C 
BRANCH  17  18
HETATM   18  C9  UNL     1      44.920  11.929   1.502  1.00  0.00     0.031 C 
BRANCH  18  19
HETATM   19  C7  UNL     1      45.056  13.410   1.528  1.00  0.00    -0.015 C 
HETATM   20  C8  UNL     1      44.837  13.952   0.136  1.00  0.00     0.010 C 
BRANCH  19  21
HETATM   21  C6  UNL     1      46.352  13.885   2.127  1.00  0.00     0.009 C 
BRANCH  21  22
HETATM   22  C4  UNL     1      46.145  14.644   3.413  1.00  0.00    -0.009 C 
HETATM   23  C5  UNL     1      47.184  14.239   4.430  1.00  0.00     0.010 C 
BRANCH  22  24
HETATM   24  C3  UNL     1      46.259  16.131   3.183  1.00  0.00     0.115 C 
BRANCH  24  25
HETATM   25  C2  UNL     1      45.853  16.914   4.370  1.00  0.00     0.258 C 
HETATM   26  O2  UNL     1      44.795  16.680   4.993  1.00  0.00    -0.265 OA
BRANCH  25  27
HETATM   27  O1  UNL     1      46.666  17.962   4.836  1.00  0.00    -0.326 OA
HETATM   28  C1  UNL     1      48.020  17.717   5.153  1.00  0.00     0.213 C 
ENDBRANCH  25  27
ENDBRANCH  24  25
ENDBRANCH  22  24
ENDBRANCH  21  22
ENDBRANCH  19  21
ENDBRANCH  18  19
ENDBRANCH  17  18
ENDBRANCH  14  16
ENDBRANCH   1  14
BRANCH  13  29
HETATM   29  O5  UNL     1      48.598   9.301   2.765  1.00  0.00    -0.392 OA
ATOM     30  H5  UNL     1      49.172   9.162   3.509  1.00  0.00     0.210 HD
ENDBRANCH  13  29
BRANCH  12  31
HETATM   31  O4  UNL     1      51.493   9.297   1.647  1.00  0.00    -0.390 OA
ATOM     32  H4  UNL     1      51.160  10.120   1.987  1.00  0.00     0.210 HD
ENDBRANCH  12  31
BRANCH  10  33
HETATM   33  O3  UNL     1      51.947   8.186   3.643  1.00  0.00    -0.382 OA
ATOM     34  H3  UNL     1      52.060   9.005   3.176  1.00  0.00     0.211 HD
ENDBRANCH  10  33
TORSDOF 12
ENDMDL
MODEL 2
REMARK VINA RESULT: -7.612820461      0.821      1.321
REMARK  12 active torsions:
REMARK  status: ('A' for Active; 'I' for Inactive)
REMARK    1  A    between atoms: O1_2  and  C2_3 
REMARK    2  A    between atoms: C2_3  and  C3_5 
REMARK    3  A    between atoms: C3_5  and  C4_6 
REMARK    4  A    between atoms: C4_6  and  C6_8 
REMARK    5  A    between atoms: C6_8  and  C7_9 
REMARK    6  A    between atoms: C7_9  and  C9_11 
REMARK    7  A    between atoms: C9_11  and  C10_12 
REMARK    8  A    between atoms: C11_13  and  C12_14 
REMARK    9  A    between atoms: C12_14  and  C14_16 
REMARK   10  A    between atoms: C22_25  and  O3_27 
REMARK   11  A    between atoms: C24_29  and  O4_30 
REMARK   12  A    between atoms: C25_32  and  O5_33 
ROOT
HETATM    1  C14 UNL     1      48.198   8.217   0.613  1.00  0.00     0.047 C 
HETATM    2  C15 UNL     1      48.718   7.385  -0.440  1.00  0.00    -0.012 C 
HETATM    3  C16 UNL     1      48.907   5.960  -0.412  1.00  0.00    -0.069 C 
HETATM    4  C17 UNL     1      49.030   5.343  -1.801  1.00  0.00     0.047 C 
HETATM    5  C18 UNL     1      49.016   5.068   0.516  1.00  0.00    -0.017 C 
HETATM    6  C19 UNL     1      48.980   5.211   1.987  1.00  0.00     0.056 C 
HETATM    7  C20 UNL     1      50.358   5.147   2.537  1.00  0.00    -0.000 C 
HETATM    8  C21 UNL     1      51.104   6.115   3.018  1.00  0.00     0.044 C 
HETATM    9 CL1  UNL     1      52.747   5.659   3.603  1.00  0.00    -0.086 Cl
HETATM   10  C22 UNL     1      50.734   7.560   3.131  1.00  0.00     0.120 C 
HETATM   11  C23 UNL     1      49.809   7.724   4.298  1.00  0.00     0.055 C 
HETATM   12  C24 UNL     1      50.440   8.246   1.866  1.00  0.00     0.187 C 
HETATM   13  C25 UNL     1      49.157   8.874   1.571  1.00  0.00     0.158 C 
ENDROOT
BRANCH   1  14
HETATM   14  C12 UNL     1      47.442   9.373  -0.090  1.00  0.00     0.014 C 
HETATM   15  C13 UNL     1      46.654   8.844  -1.289  1.00  0.00     0.015 C 
BRANCH  14  16
HETATM   16  C11 UNL     1      46.571  10.144   0.781  1.00  0.00    -0.026 C 
HETATM   17  C10 UNL     1      46.145  11.382   0.554  1.00  0.00    -0.030 C 
BRANCH  17  18
HETATM   18  C9  UNL     1      45.252  12.117   1.490  1.00  0.00     0.031 C 
BRANCH  18  19
HETATM   19  C7  UNL     1      45.781  13.491   1.702  1.00  0.00    -0.015 C 
HETATM   20  C8  UNL     1      46.873  13.446   2.743  1.00  0.00     0.010 C 
BRANCH  19  21
HETATM   21  C6  UNL     1      44.716  14.500   2.036  1.00  0.00     0.009 C 
BRANCH  21  22
HETATM   22  C4  UNL     1      45.272  15.895   2.173  1.00  0.00    -0.009 C 
HETATM   23  C5  UNL     1      44.609  16.818   1.180  1.00  0.00     0.010 C 
BRANCH  22  24
HETATM   24  C3  UNL     1      45.031  16.436   3.561  1.00  0.00     0.115 C 
BRANCH  24  25
HETATM   25  C2  UNL     1      46.245  17.054   4.139  1.00  0.00     0.258 C 
HETATM   26  O2  UNL     1      46.217  17.703   5.208  1.00  0.00    -0.265 OA
BRANCH  25  27
HETATM   27  O1  UNL     1      47.482  16.923   3.487  1.00  0.00    -0.326 OA
HETATM   28  C1  UNL     1      48.650  16.662   4.238  1.00  0.00     0.213 C 
ENDBRANCH  25  27
ENDBRANCH  24  25
ENDBRANCH  22  24
ENDBRANCH  21  22
ENDBRANCH  19  21
ENDBRANCH  18  19
ENDBRANCH  17  18
ENDBRANCH  14  16
ENDBRANCH   1  14
BRANCH  13  29
HETATM   29  O5  UNL     1      48.529   9.257   2.750  1.00  0.00    -0.392 OA
ATOM     30  H5  UNL     1      47.608   9.447   2.613  1.00  0.00     0.210 HD
ENDBRANCH  13  29
BRANCH  12  31
HETATM   31  O4  UNL     1      51.434   9.264   1.660  1.00  0.00    -0.390 OA
ATOM     32  H4  UNL     1      52.289   8.851   1.649  1.00  0.00     0.210 HD
ENDBRANCH  12  31
BRANCH  10  33
HETATM   33  O3  UNL     1      51.886   8.222   3.694  1.00  0.00    -0.382 OA
ATOM     34  H3  UNL     1      51.760   8.208   4.636  1.00  0.00     0.211 HD
ENDBRANCH  10  33
TORSDOF 12
ENDMDL
MODEL 3
REMARK VINA RESULT: -7.550800678      2.140      3.296
REMARK  12 active torsions:
REMARK  status: ('A' for Active; 'I' for Inactive)
REMARK    1  A    between atoms: O1_2  and  C2_3 
REMARK    2  A    between atoms: C2_3  and  C3_5 
REMARK    3  A    between atoms: C3_5  and  C4_6 
REMARK    4  A    between atoms: C4_6  and  C6_8 
REMARK    5  A    between atoms: C6_8  and  C7_9 
REMARK    6  A    between atoms: C7_9  and  C9_11 
REMARK    7  A    between atoms: C9_11  and  C10_12 
REMARK    8  A    between atoms: C11_13  and  C12_14 
REMARK    9  A    between atoms: C12_14  and  C14_16 
REMARK   10  A    between atoms: C22_25  and  O3_27 
REMARK   11  A    between atoms: C24_29  and  O4_30 
REMARK   12  A    between atoms: C25_32  and  O5_33 
ROOT
HETATM    1  C14 UNL     1      48.324   9.599   0.287  1.00  0.00     0.047 C 
HETATM    2  C15 UNL     1      48.682  10.872  -0.281  1.00  0.00    -0.012 C 
HETATM    3  C16 UNL     1      49.133  11.132  -1.621  1.00  0.00    -0.069 C 
HETATM    4  C17 UNL     1      48.984  12.594  -2.031  1.00  0.00     0.047 C 
HETATM    5  C18 UNL     1      49.654  10.423  -2.566  1.00  0.00    -0.017 C 
HETATM    6  C19 UNL     1      49.994   8.985  -2.605  1.00  0.00     0.056 C 
HETATM    7  C20 UNL     1      51.458   8.805  -2.423  1.00  0.00    -0.000 C 
HETATM    8  C21 UNL     1      52.113   8.362  -1.374  1.00  0.00     0.044 C 
HETATM    9 CL1  UNL     1      53.908   8.279  -1.516  1.00  0.00    -0.086 Cl
HETATM   10  C22 UNL     1      51.526   7.919  -0.071  1.00  0.00     0.120 C 
HETATM   11  C23 UNL     1      50.941   6.553  -0.253  1.00  0.00     0.055 C 
HETATM   12  C24 UNL     1      50.776   8.940   0.672  1.00  0.00     0.187 C 
HETATM   13  C25 UNL     1      49.369   8.805   1.028  1.00  0.00     0.158 C 
ENDROOT
BRANCH   1  14
HETATM   14  C12 UNL     1      47.204   9.891   1.318  1.00  0.00     0.014 C 
HETATM   15  C13 UNL     1      47.806  10.367   2.641  1.00  0.00     0.015 C 
BRANCH  14  16
HETATM   16  C11 UNL     1      46.191  10.829   0.862  1.00  0.00    -0.026 C 
HETATM   17  C10 UNL     1      45.796  11.920   1.510  1.00  0.00    -0.030 C 
BRANCH  17  18
HETATM   18  C9  UNL     1      44.752  12.840   0.985  1.00  0.00     0.031 C 
BRANCH  18  19
HETATM   19  C7  UNL     1      44.912  14.179   1.612  1.00  0.00    -0.015 C 
HETATM   20  C8  UNL     1      44.600  15.246   0.591  1.00  0.00     0.010 C 
BRANCH  19  21
HETATM   21  C6  UNL     1      46.257  14.384   2.256  1.00  0.00     0.009 C 
BRANCH  21  22
HETATM   22  C4  UNL     1      46.147  14.994   3.630  1.00  0.00    -0.009 C 
HETATM   23  C5  UNL     1      47.116  14.326   4.575  1.00  0.00     0.010 C 
BRANCH  22  24
HETATM   24  C3  UNL     1      46.463  16.470   3.590  1.00  0.00     0.115 C 
BRANCH  24  25
HETATM   25  C2  UNL     1      46.106  17.153   4.852  1.00  0.00     0.258 C 
HETATM   26  O2  UNL     1      44.918  17.350   5.191  1.00  0.00    -0.265 OA
BRANCH  25  27
HETATM   27  O1  UNL     1      47.114  17.605   5.719  1.00  0.00    -0.326 OA
HETATM   28  C1  UNL     1      48.439  17.745   5.249  1.00  0.00     0.213 C 
ENDBRANCH  25  27
ENDBRANCH  24  25
ENDBRANCH  22  24
ENDBRANCH  21  22
ENDBRANCH  19  21
ENDBRANCH  18  19
ENDBRANCH  17  18
ENDBRANCH  14  16
ENDBRANCH   1  14
BRANCH  13  29
HETATM   29  O5  UNL     1      49.026   7.462   1.122  1.00  0.00    -0.392 OA
ATOM     30  H5  UNL     1      48.901   7.192   2.024  1.00  0.00     0.210 HD
ENDBRANCH  13  29
BRANCH  12  31
HETATM   31  O4  UNL     1      51.470   9.206   1.904  1.00  0.00    -0.390 OA
ATOM     32  H4  UNL     1      50.829   9.262   2.603  1.00  0.00     0.210 HD
ENDBRANCH  12  31
BRANCH  10  33
HETATM   33  O3  UNL     1      52.645   7.549   0.762  1.00  0.00    -0.382 OA
ATOM     34  H3  UNL     1      52.552   8.052   1.562  1.00  0.00     0.211 HD
ENDBRANCH  10  33
TORSDOF 12
ENDMDL
MODEL 4
REMARK VINA RESULT: -7.545395072      1.110      1.265
REMARK  12 active torsions:
REMARK  status: ('A' for Active; 'I' for Inactive)
REMARK    1  A    between atoms: O1_2  and  C2_3 
REMARK    2  A    between atoms: C2_3  and  C3_5 
REMARK    3  A    between atoms: C3_5  and  C4_6 
REMARK    4  A    between atoms: C4_6  and  C6_8 
REMARK    5  A    between atoms: C6_8  and  C7_9 
REMARK    6  A    between atoms: C7_9  and  C9_11 
REMARK    7  A    between atoms: C9_11  and  C10_12 
REMARK    8  A    between atoms: C11_13  and  C12_14 
REMARK    9  A    between atoms: C12_14  and  C14_16 
REMARK   10  A    between atoms: C22_25  and  O3_27 
REMARK   11  A    between atoms: C24_29  and  O4_30 
REMARK   12  A    between atoms: C25_32  and  O5_33 
ROOT
HETATM    1  C14 UNL     1      48.897   8.415   1.578  1.00  0.00     0.047 C 
HETATM    2  C15 UNL     1      49.426   7.866   0.357  1.00  0.00    -0.012 C 
HETATM    3  C16 UNL     1      49.263   6.527  -0.137  1.00  0.00    -0.069 C 
HETATM    4  C17 UNL     1      49.543   6.400  -1.632  1.00  0.00     0.047 C 
HETATM    5  C18 UNL     1      48.950   5.388   0.385  1.00  0.00    -0.017 C 
HETATM    6  C19 UNL     1      48.622   5.037   1.784  1.00  0.00     0.056 C 
HETATM    7  C20 UNL     1      49.789   4.381   2.428  1.00  0.00    -0.000 C 
HETATM    8  C21 UNL     1      50.616   4.862   3.329  1.00  0.00     0.044 C 
HETATM    9 CL1  UNL     1      51.933   3.766   3.888  1.00  0.00    -0.086 Cl
HETATM   10  C22 UNL     1      50.581   6.227   3.940  1.00  0.00     0.120 C 
HETATM   11  C23 UNL     1      49.485   6.263   4.960  1.00  0.00     0.055 C 
HETATM   12  C24 UNL     1      50.745   7.349   3.007  1.00  0.00     0.187 C 
HETATM   13  C25 UNL     1      49.746   8.395   2.822  1.00  0.00     0.158 C 
ENDROOT
BRANCH   1  14
HETATM   14  C12 UNL     1      48.610   9.910   1.284  1.00  0.00     0.014 C 
HETATM   15  C13 UNL     1      48.989  10.253  -0.157  1.00  0.00     0.015 C 
BRANCH  14  16
HETATM   16  C11 UNL     1      47.246  10.329   1.557  1.00  0.00    -0.026 C 
HETATM   17  C10 UNL     1      46.809  11.584   1.579  1.00  0.00    -0.030 C 
BRANCH  17  18
HETATM   18  C9  UNL     1      45.394  11.945   1.866  1.00  0.00     0.031 C 
BRANCH  18  19
HETATM   19  C7  UNL     1      45.235  13.422   1.784  1.00  0.00    -0.015 C 
HETATM   20  C8  UNL     1      44.829  13.800   0.380  1.00  0.00     0.010 C 
BRANCH  19  21
HETATM   21  C6  UNL     1      46.446  14.184   2.251  1.00  0.00     0.009 C 
BRANCH  21  22
HETATM   22  C4  UNL     1      46.253  14.781   3.622  1.00  0.00    -0.009 C 
HETATM   23  C5  UNL     1      47.228  14.169   4.598  1.00  0.00     0.010 C 
BRANCH  22  24
HETATM   24  C3  UNL     1      46.479  16.273   3.595  1.00  0.00     0.115 C 
BRANCH  24  25
HETATM   25  C2  UNL     1      46.034  16.929   4.844  1.00  0.00     0.258 C 
HETATM   26  O2  UNL     1      44.829  16.993   5.170  1.00  0.00    -0.265 OA
BRANCH  25  27
HETATM   27  O1  UNL     1      46.976  17.507   5.711  1.00  0.00    -0.326 OA
HETATM   28  C1  UNL     1      48.289  17.763   5.258  1.00  0.00     0.213 C 
ENDBRANCH  25  27
ENDBRANCH  24  25
ENDBRANCH  22  24
ENDBRANCH  21  22
ENDBRANCH  19  21
ENDBRANCH  18  19
ENDBRANCH  17  18
ENDBRANCH  14  16
ENDBRANCH   1  14
BRANCH  13  29
HETATM   29  O5  UNL     1      48.979   8.534   3.973  1.00  0.00    -0.392 OA
ATOM     30  H5  UNL     1      49.334   8.031   4.696  1.00  0.00     0.210 HD
ENDBRANCH  13  29
BRANCH  12  31
HETATM   31  O4  UNL     1      51.972   8.029   3.327  1.00  0.00    -0.390 OA
ATOM     32  H4  UNL     1      52.661   7.381   3.413  1.00  0.00     0.210 HD
ENDBRANCH  12  31
BRANCH  10  33
HETATM   33  O3  UNL     1      51.702   6.284   4.847  1.00  0.00    -0.382 OA
ATOM     34  H3  UNL     1      52.477   6.341   4.301  1.00  0.00     0.211 HD
ENDBRANCH  10  33
TORSDOF 12
ENDMDL
MODEL 5
REMARK VINA RESULT: -7.516625481      5.689      7.556
REMARK  12 active torsions:
REMARK  status: ('A' for Active; 'I' for Inactive)
REMARK    1  A    between atoms: O1_2  and  C2_3 
REMARK    2  A    between atoms: C2_3  and  C3_5 
REMARK    3  A    between atoms: C3_5  and  C4_6 
REMARK    4  A    between atoms: C4_6  and  C6_8 
REMARK    5  A    between atoms: C6_8  and  C7_9 
REMARK    6  A    between atoms: C7_9  and  C9_11 
REMARK    7  A    between atoms: C9_11  and  C10_12 
REMARK    8  A    between atoms: C11_13  and  C12_14 
REMARK    9  A    between atoms: C12_14  and  C14_16 
REMARK   10  A    between atoms: C22_25  and  O3_27 
REMARK   11  A    between atoms: C24_29  and  O4_30 
REMARK   12  A    between atoms: C25_32  and  O5_33 
ROOT
HETATM    1  C14 UNL     1      43.773  11.751  -2.461  1.00  0.00     0.047 C 
HETATM    2  C15 UNL     1      43.209  12.452  -3.584  1.00  0.00    -0.012 C 
HETATM    3  C16 UNL     1      41.840  12.440  -4.020  1.00  0.00    -0.069 C 
HETATM    4  C17 UNL     1      41.487  13.615  -4.926  1.00  0.00     0.047 C 
HETATM    5  C18 UNL     1      40.828  11.657  -3.842  1.00  0.00    -0.017 C 
HETATM    6  C19 UNL     1      40.716  10.403  -3.067  1.00  0.00     0.056 C 
HETATM    7  C20 UNL     1      40.749   9.235  -3.984  1.00  0.00    -0.000 C 
HETATM    8  C21 UNL     1      41.717   8.369  -4.186  1.00  0.00     0.044 C 
HETATM    9 CL1  UNL     1      41.399   7.065  -5.390  1.00  0.00    -0.086 Cl
HETATM   10  C22 UNL     1      43.057   8.351  -3.523  1.00  0.00     0.120 C 
HETATM   11  C23 UNL     1      42.894   7.809  -2.136  1.00  0.00     0.055 C 
HETATM   12  C24 UNL     1      43.898   9.533  -3.749  1.00  0.00     0.187 C 
HETATM   13  C25 UNL     1      44.385  10.391  -2.676  1.00  0.00     0.158 C 
ENDROOT
BRANCH   1  14
HETATM   14  C12 UNL     1      44.916  12.651  -1.925  1.00  0.00     0.014 C 
HETATM   15  C13 UNL     1      45.035  13.920  -2.769  1.00  0.00     0.015 C 
BRANCH  14  16
HETATM   16  C11 UNL     1      44.807  12.993  -0.517  1.00  0.00    -0.026 C 
HETATM   17  C10 UNL     1      45.226  12.246   0.498  1.00  0.00    -0.030 C 
BRANCH  17  18
HETATM   18  C9  UNL     1      45.084  12.657   1.921  1.00  0.00     0.031 C 
BRANCH  18  19
HETATM   19  C7  UNL     1      45.871  13.897   2.158  1.00  0.00    -0.015 C 
HETATM   20  C8  UNL     1      46.987  13.597   3.129  1.00  0.00     0.010 C 
BRANCH  19  21
HETATM   21  C6  UNL     1      45.032  15.066   2.598  1.00  0.00     0.009 C 
BRANCH  21  22
HETATM   22  C4  UNL     1      45.328  16.313   1.804  1.00  0.00    -0.009 C 
HETATM   23  C5  UNL     1      44.327  16.469   0.686  1.00  0.00     0.010 C 
BRANCH  22  24
HETATM   24  C3  UNL     1      45.255  17.539   2.682  1.00  0.00     0.115 C 
BRANCH  24  25
HETATM   25  C2  UNL     1      46.324  17.560   3.704  1.00  0.00     0.258 C 
HETATM   26  O2  UNL     1      46.077  17.678   4.924  1.00  0.00    -0.265 OA
BRANCH  25  27
HETATM   27  O1  UNL     1      47.670  17.443   3.321  1.00  0.00    -0.326 OA
HETATM   28  C1  UNL     1      48.563  16.677   4.103  1.00  0.00     0.213 C 
ENDBRANCH  25  27
ENDBRANCH  24  25
ENDBRANCH  22  24
ENDBRANCH  21  22
ENDBRANCH  19  21
ENDBRANCH  18  19
ENDBRANCH  17  18
ENDBRANCH  14  16
ENDBRANCH   1  14
BRANCH  13  29
HETATM   29  O5  UNL     1      44.475   9.672  -1.490  1.00  0.00    -0.392 OA
ATOM     30  H5  UNL     1      45.116   8.973  -1.549  1.00  0.00     0.210 HD
ENDBRANCH  13  29
BRANCH  12  31
HETATM   31  O4  UNL     1      45.064   9.126  -4.488  1.00  0.00    -0.390 OA
ATOM     32  H4  UNL     1      45.448   9.896  -4.890  1.00  0.00     0.210 HD
ENDBRANCH  12  31
BRANCH  10  33
HETATM   33  O3  UNL     1      43.766   7.231  -4.093  1.00  0.00    -0.382 OA
ATOM     34  H3  UNL     1      44.686   7.387  -3.916  1.00  0.00     0.211 HD
ENDBRANCH  10  33
TORSDOF 12
ENDMDL
