MODEL 1
REMARK VINA RESULT: -9.103663019      0.000      0.000
REMARK  8 active torsions:
REMARK  status: ('A' for Active; 'I' for Inactive)
REMARK    1  A    between atoms: C5_7  and  N2_8 
REMARK    2  A    between atoms: N2_8  and  C6_10 
REMARK    3  A    between atoms: C12_18  and  N4_19 
REMARK    4  A    between atoms: N4_19  and  C13_21 
REMARK    5  A    between atoms: C13_21  and  C14_22 
REMARK    6  A    between atoms: C14_22  and  N5_23 
REMARK    7  A    between atoms: N5_23  and  C15_26 
REMARK    8  A    between atoms: C15_26  and  C16_27 
ROOT
HETATM    1  C6  UNL     1      48.579   8.574   1.794  1.00  0.00     0.033 A 
HETATM    2  C7  UNL     1      48.757   7.595   0.842  1.00  0.00     0.032 A 
HETATM    3  C8  UNL     1      47.917   7.534  -0.240  1.00  0.00     0.033 A 
HETATM    4  C9  UNL     1      46.887   8.435  -0.406  1.00  0.00     0.044 A 
HETATM    5  N3  UNL     1      46.077   8.355  -1.475  1.00  0.00    -0.365 N 
ATOM      6  H3  UNL     1      46.241   7.616  -2.159  1.00  0.00     0.165 HD
HETATM    7  C10 UNL     1      45.058   9.209  -1.682  1.00  0.00     0.090 A 
HETATM    8  C11 UNL     1      44.825  10.220  -0.756  1.00  0.00     0.047 A 
HETATM    9  C12 UNL     1      45.630  10.342   0.357  1.00  0.00     0.042 A 
HETATM   10  C22 UNL     1      46.670   9.433   0.524  1.00  0.00     0.019 A 
HETATM   11  C23 UNL     1      47.519   9.477   1.597  1.00  0.00     0.045 A 
ENDROOT
BRANCH   9  12
HETATM   12  N4  UNL     1      45.467  11.252   1.247  1.00  0.00    -0.388 N 
ATOM     13  H4  UNL     1      46.074  11.220   2.066  1.00  0.00     0.159 HD
BRANCH  12  14
HETATM   14  C13 UNL     1      44.494  12.318   1.184  1.00  0.00     0.147 C 
BRANCH  14  15
HETATM   15  C14 UNL     1      45.064  13.423   0.324  1.00  0.00     0.252 C 
BRANCH  15  16
HETATM   16  N5  UNL     1      44.525  14.715   0.667  1.00  0.00    -0.070 N 
ATOM     17  H52 UNL     1      45.088  15.493   0.323  1.00  0.00     0.277 HD
ATOM     18  H51 UNL     1      43.671  14.945   0.160  1.00  0.00     0.277 HD
BRANCH  16  19
HETATM   19  C15 UNL     1      44.356  14.715   2.128  1.00  0.00     0.270 C 
BRANCH  19  20
HETATM   20  C16 UNL     1      45.583  15.358   2.701  1.00  0.00    -0.033 A 
HETATM   21  C17 UNL     1      46.579  14.594   3.271  1.00  0.00     0.012 A 
HETATM   22  C18 UNL     1      47.714  15.181   3.803  1.00  0.00     0.043 A 
HETATM   23  C19 UNL     1      47.899  16.553   3.786  1.00  0.00     0.116 A 
HETATM   24  F1  UNL     1      49.025  17.080   4.318  1.00  0.00    -0.206 F 
HETATM   25  C20 UNL     1      46.896  17.305   3.215  1.00  0.00     0.043 A 
HETATM   26  C21 UNL     1      45.757  16.726   2.680  1.00  0.00     0.012 A 
ENDBRANCH  19  20
ENDBRANCH  16  19
ENDBRANCH  15  16
ENDBRANCH  14  15
ENDBRANCH  12  14
ENDBRANCH   9  12
BRANCH   1  27
HETATM   27  N2  UNL     1      49.390   8.748   2.931  1.00  0.00    -0.356 N 
ATOM     28  H2  UNL     1      49.450   9.690   3.319  1.00  0.00     0.166 HD
BRANCH  27  29
HETATM   29  C5  UNL     1      50.121   7.745   3.578  1.00  0.00     0.034 A 
HETATM   30  C4  UNL     1      49.519   6.694   4.227  1.00  0.00     0.061 A 
HETATM   31  C3  UNL     1      50.259   5.705   4.891  1.00  0.00     0.062 A 
HETATM   32  N1  UNL     1      49.932   4.601   5.587  1.00  0.00    -0.344 N 
HETATM   33  C26 UNL     1      51.634   5.774   4.901  1.00  0.00     0.062 A 
HETATM   34  C2  UNL     1      51.036   3.976   6.032  1.00  0.00     0.080 A 
ATOM     35  H1  UNL     1      48.978   4.283   5.754  1.00  0.00     0.167 HD
HETATM   36  C1  UNL     1      51.110   2.716   6.844  1.00  0.00     0.089 C 
HETATM   37  N6  UNL     1      52.079   4.709   5.603  1.00  0.00    -0.339 N 
HETATM   38  C27 UNL     1      53.473   4.404   5.853  1.00  0.00     0.158 C 
HETATM   39  C25 UNL     1      52.236   6.822   4.253  1.00  0.00     0.034 A 
HETATM   40  C24 UNL     1      51.523   7.793   3.602  1.00  0.00     0.032 A 
ENDBRANCH  27  29
ENDBRANCH   1  27
TORSDOF 8
ENDMDL
MODEL 2
REMARK VINA RESULT: -8.966314624      0.937      1.792
REMARK  8 active torsions:
REMARK  status: ('A' for Active; 'I' for Inactive)
REMARK    1  A    between atoms: C5_7  and  N2_8 
REMARK    2  A    between atoms: N2_8  and  C6_10 
REMARK    3  A    between atoms: C12_18  and  N4_19 
REMARK    4  A    between atoms: N4_19  and  C13_21 
REMARK    5  A    between atoms: C13_21  and  C14_22 
REMARK    6  A    between atoms: C14_22  and  N5_23 
REMARK    7  A    between atoms: N5_23  and  C15_26 
REMARK    8  A    between atoms: C15_26  and  C16_27 
ROOT
HETATM    1  C6  UNL     1      48.011   9.197   1.380  1.00  0.00     0.033 A 
HETATM    2  C7  UNL     1      47.984   8.113   0.530  1.00  0.00     0.032 A 
HETATM    3  C8  UNL     1      47.181   8.137  -0.582  1.00  0.00     0.033 A 
HETATM    4  C9  UNL     1      46.392   9.227  -0.878  1.00  0.00     0.044 A 
HETATM    5  N3  UNL     1      45.614   9.228  -1.974  1.00  0.00    -0.365 N 
ATOM      6  H3  UNL     1      45.621   8.406  -2.579  1.00  0.00     0.165 HD
HETATM    7  C10 UNL     1      44.826  10.266  -2.307  1.00  0.00     0.090 A 
HETATM    8  C11 UNL     1      44.808  11.390  -1.489  1.00  0.00     0.047 A 
HETATM    9  C12 UNL     1      45.590  11.436  -0.354  1.00  0.00     0.042 A 
HETATM   10  C22 UNL     1      46.386  10.337  -0.055  1.00  0.00     0.019 A 
HETATM   11  C23 UNL     1      47.194  10.293   1.049  1.00  0.00     0.045 A 
ENDROOT
BRANCH   9  12
HETATM   12  N4  UNL     1      45.617  12.444   0.440  1.00  0.00    -0.388 N 
ATOM     13  H4  UNL     1      46.524  12.718   0.817  1.00  0.00     0.159 HD
BRANCH  12  14
HETATM   14  C13 UNL     1      44.469  13.221   0.845  1.00  0.00     0.147 C 
BRANCH  14  15
HETATM   15  C14 UNL     1      44.481  14.516   0.066  1.00  0.00     0.252 C 
BRANCH  15  16
HETATM   16  N5  UNL     1      44.123  15.649   0.882  1.00  0.00    -0.070 N 
ATOM     17  H52 UNL     1      44.689  16.477   0.697  1.00  0.00     0.277 HD
ATOM     18  H51 UNL     1      43.221  16.057   0.637  1.00  0.00     0.277 HD
BRANCH  16  19
HETATM   19  C15 UNL     1      44.197  15.189   2.277  1.00  0.00     0.270 C 
BRANCH  19  20
HETATM   20  C16 UNL     1      45.518  15.652   2.812  1.00  0.00    -0.033 A 
HETATM   21  C17 UNL     1      45.837  16.994   2.839  1.00  0.00     0.012 A 
HETATM   22  C18 UNL     1      47.055  17.429   3.332  1.00  0.00     0.043 A 
HETATM   23  C19 UNL     1      48.001  16.542   3.816  1.00  0.00     0.116 A 
HETATM   24  F1  UNL     1      49.178  17.015   4.287  1.00  0.00    -0.206 F 
HETATM   25  C20 UNL     1      47.671  15.206   3.783  1.00  0.00     0.043 A 
HETATM   26  C21 UNL     1      46.454  14.761   3.292  1.00  0.00     0.012 A 
ENDBRANCH  19  20
ENDBRANCH  16  19
ENDBRANCH  15  16
ENDBRANCH  14  15
ENDBRANCH  12  14
ENDBRANCH   9  12
BRANCH   1  27
HETATM   27  N2  UNL     1      48.810   9.294   2.534  1.00  0.00    -0.356 N 
ATOM     28  H2  UNL     1      49.005  10.232   2.886  1.00  0.00     0.166 HD
BRANCH  27  29
HETATM   29  C5  UNL     1      49.361   8.221   3.243  1.00  0.00     0.034 A 
HETATM   30  C4  UNL     1      50.713   7.982   3.290  1.00  0.00     0.061 A 
HETATM   31  C3  UNL     1      51.255   6.891   3.984  1.00  0.00     0.062 A 
HETATM   32  N1  UNL     1      52.505   6.437   4.185  1.00  0.00    -0.344 N 
HETATM   33  C26 UNL     1      50.418   6.022   4.648  1.00  0.00     0.062 A 
HETATM   34  C2  UNL     1      52.491   5.326   4.941  1.00  0.00     0.080 A 
ATOM     35  H1  UNL     1      53.347   6.875   3.814  1.00  0.00     0.167 HD
HETATM   36  C1  UNL     1      53.667   4.511   5.393  1.00  0.00     0.089 C 
HETATM   37  N6  UNL     1      51.198   5.079   5.220  1.00  0.00    -0.339 N 
HETATM   38  C27 UNL     1      50.712   3.971   6.016  1.00  0.00     0.158 C 
HETATM   39  C25 UNL     1      49.068   6.259   4.603  1.00  0.00     0.034 A 
HETATM   40  C24 UNL     1      48.529   7.321   3.927  1.00  0.00     0.032 A 
ENDBRANCH  27  29
ENDBRANCH   1  27
TORSDOF 8
ENDMDL
MODEL 3
REMARK VINA RESULT: -8.860973454      3.389      6.651
REMARK  8 active torsions:
REMARK  status: ('A' for Active; 'I' for Inactive)
REMARK    1  A    between atoms: C5_7  and  N2_8 
REMARK    2  A    between atoms: N2_8  and  C6_10 
REMARK    3  A    between atoms: C12_18  and  N4_19 
REMARK    4  A    between atoms: N4_19  and  C13_21 
REMARK    5  A    between atoms: C13_21  and  C14_22 
REMARK    6  A    between atoms: C14_22  and  N5_23 
REMARK    7  A    between atoms: N5_23  and  C15_26 
REMARK    8  A    between atoms: C15_26  and  C16_27 
ROOT
HETATM    1  C6  UNL     1      46.537  12.684   2.599  1.00  0.00     0.033 A 
HETATM    2  C7  UNL     1      47.363  13.093   3.623  1.00  0.00     0.032 A 
HETATM    3  C8  UNL     1      47.358  14.404   4.023  1.00  0.00     0.033 A 
HETATM    4  C9  UNL     1      46.540  15.338   3.424  1.00  0.00     0.044 A 
HETATM    5  N3  UNL     1      46.552  16.618   3.833  1.00  0.00    -0.365 N 
ATOM      6  H3  UNL     1      47.178  16.882   4.595  1.00  0.00     0.165 HD
HETATM    7  C10 UNL     1      45.774  17.567   3.281  1.00  0.00     0.090 A 
HETATM    8  C11 UNL     1      44.919  17.218   2.241  1.00  0.00     0.047 A 
HETATM    9  C12 UNL     1      44.871  15.917   1.787  1.00  0.00     0.042 A 
HETATM   10  C22 UNL     1      45.696  14.975   2.392  1.00  0.00     0.019 A 
HETATM   11  C23 UNL     1      45.716  13.661   2.008  1.00  0.00     0.045 A 
ENDROOT
BRANCH   9  12
HETATM   12  N4  UNL     1      44.104  15.533   0.832  1.00  0.00    -0.388 N 
ATOM     13  H4  UNL     1      43.714  14.593   0.895  1.00  0.00     0.159 HD
BRANCH  12  14
HETATM   14  C13 UNL     1      43.747  16.323  -0.323  1.00  0.00     0.147 C 
BRANCH  14  15
HETATM   15  C14 UNL     1      43.708  15.406  -1.524  1.00  0.00     0.252 C 
BRANCH  15  16
HETATM   16  N5  UNL     1      44.506  14.222  -1.334  1.00  0.00    -0.070 N 
ATOM     17  H52 UNL     1      45.468  14.421  -1.060  1.00  0.00     0.277 HD
ATOM     18  H51 UNL     1      44.248  13.687  -0.505  1.00  0.00     0.277 HD
BRANCH  16  19
HETATM   19  C15 UNL     1      44.401  13.452  -2.583  1.00  0.00     0.270 C 
BRANCH  19  20
HETATM   20  C16 UNL     1      44.145  12.028  -2.188  1.00  0.00    -0.033 A 
HETATM   21  C17 UNL     1      44.655  11.520  -1.013  1.00  0.00     0.012 A 
HETATM   22  C18 UNL     1      44.423  10.206  -0.642  1.00  0.00     0.043 A 
HETATM   23  C19 UNL     1      43.672   9.351  -1.431  1.00  0.00     0.116 A 
HETATM   24  F1  UNL     1      43.473   8.076  -1.026  1.00  0.00    -0.206 F 
HETATM   25  C20 UNL     1      43.169   9.871  -2.602  1.00  0.00     0.043 A 
HETATM   26  C21 UNL     1      43.396  11.184  -2.981  1.00  0.00     0.012 A 
ENDBRANCH  19  20
ENDBRANCH  16  19
ENDBRANCH  15  16
ENDBRANCH  14  15
ENDBRANCH  12  14
ENDBRANCH   9  12
BRANCH   1  27
HETATM   27  N2  UNL     1      46.441  11.364   2.121  1.00  0.00    -0.356 N 
ATOM     28  H2  UNL     1      45.514  10.937   2.120  1.00  0.00     0.166 HD
BRANCH  27  29
HETATM   29  C5  UNL     1      47.502  10.585   1.647  1.00  0.00     0.034 A 
HETATM   30  C4  UNL     1      48.080   9.589   2.396  1.00  0.00     0.061 A 
HETATM   31  C3  UNL     1      49.157   8.827   1.921  1.00  0.00     0.062 A 
HETATM   32  N1  UNL     1      49.890   7.822   2.433  1.00  0.00    -0.344 N 
HETATM   33  C26 UNL     1      49.664   9.072   0.664  1.00  0.00     0.062 A 
HETATM   34  C2  UNL     1      50.830   7.426   1.557  1.00  0.00     0.080 A 
ATOM     35  H1  UNL     1      49.751   7.417   3.358  1.00  0.00     0.167 HD
HETATM   36  C1  UNL     1      51.849   6.340   1.737  1.00  0.00     0.089 C 
HETATM   37  N6  UNL     1      50.681   8.204   0.470  1.00  0.00    -0.339 N 
HETATM   38  C27 UNL     1      51.487   8.127  -0.731  1.00  0.00     0.158 C 
HETATM   39  C25 UNL     1      49.087  10.065  -0.086  1.00  0.00     0.034 A 
HETATM   40  C24 UNL     1      48.035  10.815   0.369  1.00  0.00     0.032 A 
ENDBRANCH  27  29
ENDBRANCH   1  27
TORSDOF 8
ENDMDL
MODEL 4
REMARK VINA RESULT: -8.780112687      1.673      2.969
REMARK  8 active torsions:
REMARK  status: ('A' for Active; 'I' for Inactive)
REMARK    1  A    between atoms: C5_7  and  N2_8 
REMARK    2  A    between atoms: N2_8  and  C6_10 
REMARK    3  A    between atoms: C12_18  and  N4_19 
REMARK    4  A    between atoms: N4_19  and  C13_21 
REMARK    5  A    between atoms: C13_21  and  C14_22 
REMARK    6  A    between atoms: C14_22  and  N5_23 
REMARK    7  A    between atoms: N5_23  and  C15_26 
REMARK    8  A    between atoms: C15_26  and  C16_27 
ROOT
HETATM    1  C6  UNL     1      46.001  10.181   0.518  1.00  0.00     0.033 A 
HETATM    2  C7  UNL     1      45.509   8.970   0.087  1.00  0.00     0.032 A 
HETATM    3  C8  UNL     1      44.633   8.923  -0.967  1.00  0.00     0.033 A 
HETATM    4  C9  UNL     1      44.226  10.069  -1.616  1.00  0.00     0.044 A 
HETATM    5  N3  UNL     1      43.366   9.999  -2.647  1.00  0.00    -0.365 N 
ATOM      6  H3  UNL     1      43.024   9.082  -2.937  1.00  0.00     0.165 HD
HETATM    7  C10 UNL     1      42.938  11.086  -3.314  1.00  0.00     0.090 A 
HETATM    8  C11 UNL     1      43.397  12.340  -2.926  1.00  0.00     0.047 A 
HETATM    9  C12 UNL     1      44.280  12.462  -1.874  1.00  0.00     0.042 A 
HETATM   10  C22 UNL     1      44.692  11.307  -1.218  1.00  0.00     0.019 A 
HETATM   11  C23 UNL     1      45.565  11.331  -0.165  1.00  0.00     0.045 A 
ENDROOT
BRANCH   9  12
HETATM   12  N4  UNL     1      44.739  13.590  -1.468  1.00  0.00    -0.388 N 
ATOM     13  H4  UNL     1      45.653  13.587  -1.014  1.00  0.00     0.159 HD
BRANCH  12  14
HETATM   14  C13 UNL     1      44.070  14.863  -1.602  1.00  0.00     0.147 C 
BRANCH  14  15
HETATM   15  C14 UNL     1      44.083  15.544  -0.253  1.00  0.00     0.252 C 
BRANCH  15  16
HETATM   16  N5  UNL     1      44.475  14.650   0.807  1.00  0.00    -0.070 N 
ATOM     17  H52 UNL     1      44.040  13.729   0.742  1.00  0.00     0.277 HD
ATOM     18  H51 UNL     1      45.442  14.337   0.737  1.00  0.00     0.277 HD
BRANCH  16  19
HETATM   19  C15 UNL     1      44.177  15.350   2.065  1.00  0.00     0.270 C 
BRANCH  19  20
HETATM   20  C16 UNL     1      45.495  15.751   2.656  1.00  0.00    -0.033 A 
HETATM   21  C17 UNL     1      45.808  17.081   2.843  1.00  0.00     0.012 A 
HETATM   22  C18 UNL     1      47.023  17.459   3.388  1.00  0.00     0.043 A 
HETATM   23  C19 UNL     1      47.972  16.524   3.766  1.00  0.00     0.116 A 
HETATM   24  F1  UNL     1      49.145  16.942   4.294  1.00  0.00    -0.206 F 
HETATM   25  C20 UNL     1      47.647  15.200   3.574  1.00  0.00     0.043 A 
HETATM   26  C21 UNL     1      46.433  14.812   3.029  1.00  0.00     0.012 A 
ENDBRANCH  19  20
ENDBRANCH  16  19
ENDBRANCH  15  16
ENDBRANCH  14  15
ENDBRANCH  12  14
ENDBRANCH   9  12
BRANCH   1  27
HETATM   27  N2  UNL     1      46.920  10.349   1.572  1.00  0.00    -0.356 N 
ATOM     28  H2  UNL     1      46.841  11.202   2.125  1.00  0.00     0.166 HD
BRANCH  27  29
HETATM   29  C5  UNL     1      47.931   9.449   1.927  1.00  0.00     0.034 A 
HETATM   30  C4  UNL     1      47.813   8.588   2.991  1.00  0.00     0.061 A 
HETATM   31  C3  UNL     1      48.840   7.705   3.354  1.00  0.00     0.062 A 
HETATM   32  N1  UNL     1      48.983   6.783   4.323  1.00  0.00    -0.344 N 
HETATM   33  C26 UNL     1      50.012   7.687   2.630  1.00  0.00     0.062 A 
HETATM   34  C2  UNL     1      50.187   6.190   4.240  1.00  0.00     0.080 A 
ATOM     35  H1  UNL     1      48.275   6.565   5.024  1.00  0.00     0.167 HD
HETATM   36  C1  UNL     1      50.739   5.114   5.128  1.00  0.00     0.089 C 
HETATM   37  N6  UNL     1      50.812   6.756   3.193  1.00  0.00    -0.339 N 
HETATM   38  C27 UNL     1      52.144   6.420   2.733  1.00  0.00     0.158 C 
HETATM   39  C25 UNL     1      50.131   8.546   1.567  1.00  0.00     0.034 A 
HETATM   40  C24 UNL     1      49.134   9.413   1.205  1.00  0.00     0.032 A 
ENDBRANCH  27  29
ENDBRANCH   1  27
TORSDOF 8
ENDMDL
MODEL 5
REMARK VINA RESULT: -8.756427770      4.867      7.494
REMARK  8 active torsions:
REMARK  status: ('A' for Active; 'I' for Inactive)
REMARK    1  A    between atoms: C5_7  and  N2_8 
REMARK    2  A    between atoms: N2_8  and  C6_10 
REMARK    3  A    between atoms: C12_18  and  N4_19 
REMARK    4  A    between atoms: N4_19  and  C13_21 
REMARK    5  A    between atoms: C13_21  and  C14_22 
REMARK    6  A    between atoms: C14_22  and  N5_23 
REMARK    7  A    between atoms: N5_23  and  C15_26 
REMARK    8  A    between atoms: C15_26  and  C16_27 
ROOT
HETATM    1  C6  UNL     1      46.649  12.927   2.920  1.00  0.00     0.033 A 
HETATM    2  C7  UNL     1      47.493  13.413   3.892  1.00  0.00     0.032 A 
HETATM    3  C8  UNL     1      47.479  14.748   4.206  1.00  0.00     0.033 A 
HETATM    4  C9  UNL     1      46.633  15.629   3.568  1.00  0.00     0.044 A 
HETATM    5  N3  UNL     1      46.636  16.933   3.892  1.00  0.00    -0.365 N 
ATOM      6  H3  UNL     1      47.277  17.255   4.618  1.00  0.00     0.165 HD
HETATM    7  C10 UNL     1      45.830  17.833   3.299  1.00  0.00     0.090 A 
HETATM    8  C11 UNL     1      44.954  17.406   2.307  1.00  0.00     0.047 A 
HETATM    9  C12 UNL     1      44.914  16.077   1.941  1.00  0.00     0.042 A 
HETATM   10  C22 UNL     1      45.768  15.187   2.585  1.00  0.00     0.019 A 
HETATM   11  C23 UNL     1      45.798  13.852   2.287  1.00  0.00     0.045 A 
ENDROOT
BRANCH   9  12
HETATM   12  N4  UNL     1      44.129  15.621   1.034  1.00  0.00    -0.388 N 
ATOM     13  H4  UNL     1      43.698  14.712   1.203  1.00  0.00     0.159 HD
BRANCH  12  14
HETATM   14  C13 UNL     1      43.806  16.288  -0.205  1.00  0.00     0.147 C 
BRANCH  14  15
HETATM   15  C14 UNL     1      43.852  15.264  -1.315  1.00  0.00     0.252 C 
BRANCH  15  16
HETATM   16  N5  UNL     1      44.526  14.054  -0.915  1.00  0.00    -0.070 N 
ATOM     17  H52 UNL     1      45.085  14.162  -0.069  1.00  0.00     0.277 HD
ATOM     18  H51 UNL     1      43.894  13.338  -0.557  1.00  0.00     0.277 HD
BRANCH  16  19
HETATM   19  C15 UNL     1      45.307  13.615  -2.082  1.00  0.00     0.270 C 
BRANCH  19  20
HETATM   20  C16 UNL     1      45.129  12.130  -2.183  1.00  0.00    -0.033 A 
HETATM   21  C17 UNL     1      44.423  11.437  -1.221  1.00  0.00     0.012 A 
HETATM   22  C18 UNL     1      44.255  10.066  -1.308  1.00  0.00     0.043 A 
HETATM   23  C19 UNL     1      44.784   9.334  -2.357  1.00  0.00     0.116 A 
HETATM   24  F1  UNL     1      44.592   7.996  -2.398  1.00  0.00    -0.206 F 
HETATM   25  C20 UNL     1      45.486  10.037  -3.310  1.00  0.00     0.043 A 
HETATM   26  C21 UNL     1      45.660  11.410  -3.232  1.00  0.00     0.012 A 
ENDBRANCH  19  20
ENDBRANCH  16  19
ENDBRANCH  15  16
ENDBRANCH  14  15
ENDBRANCH  12  14
ENDBRANCH   9  12
BRANCH   1  27
HETATM   27  N2  UNL     1      46.560  11.577   2.532  1.00  0.00    -0.356 N 
ATOM     28  H2  UNL     1      46.046  10.949   3.151  1.00  0.00     0.166 HD
BRANCH  27  29
HETATM   29  C5  UNL     1      47.112  11.019   1.374  1.00  0.00     0.034 A 
HETATM   30  C4  UNL     1      47.016   9.680   1.080  1.00  0.00     0.061 A 
HETATM   31  C3  UNL     1      47.592   9.126  -0.072  1.00  0.00     0.062 A 
HETATM   32  N1  UNL     1      47.648   7.884  -0.585  1.00  0.00    -0.344 N 
HETATM   33  C26 UNL     1      48.279   9.936  -0.948  1.00  0.00     0.062 A 
HETATM   34  C2  UNL     1      48.336   7.878  -1.740  1.00  0.00     0.080 A 
ATOM     35  H1  UNL     1      47.226   7.060  -0.157  1.00  0.00     0.167 HD
HETATM   36  C1  UNL     1      48.627   6.702  -2.625  1.00  0.00     0.089 C 
HETATM   37  N6  UNL     1      48.720   9.149  -1.954  1.00  0.00    -0.339 N 
HETATM   38  C27 UNL     1      49.491   9.609  -3.090  1.00  0.00     0.158 C 
HETATM   39  C25 UNL     1      48.375  11.273  -0.657  1.00  0.00     0.034 A 
HETATM   40  C24 UNL     1      47.816  11.824   0.465  1.00  0.00     0.032 A 
ENDBRANCH  27  29
ENDBRANCH   1  27
TORSDOF 8
ENDMDL
