MODEL 1
REMARK VINA RESULT: -9.042542956      0.000      0.000
REMARK  8 active torsions:
REMARK  status: ('A' for Active; 'I' for Inactive)
REMARK    1  A    between atoms: C5_8  and  S1_9 
REMARK    2  A    between atoms: S1_9  and  C6_10 
REMARK    3  A    between atoms: C8_12  and  N2_13 
REMARK    4  A    between atoms: N2_13  and  C9_15 
REMARK    5  A    between atoms: C12_18  and  C13_19 
REMARK    6  A    between atoms: C13_19  and  N3_20 
REMARK    7  A    between atoms: N3_20  and  C14_23 
REMARK    8  A    between atoms: C14_23  and  C15_24 
ROOT
HETATM    1  C6  UNL     1      45.896  10.680   0.330  1.00  0.00     0.077 A 
HETATM    2  C7  UNL     1      46.116   9.627   1.187  1.00  0.00     0.066 A 
HETATM    3  C8  UNL     1      46.988   8.589   0.842  1.00  0.00     0.036 A 
HETATM    4  C20 UNL     1      47.624   8.628  -0.361  1.00  0.00     0.046 A 
HETATM    5  C21 UNL     1      47.389   9.696  -1.207  1.00  0.00     0.091 A 
HETATM    6  N6  UNL     1      46.533  10.693  -0.843  1.00  0.00    -0.360 N 
ATOM      7  H6  UNL     1      46.376  11.469  -1.484  1.00  0.00     0.166 HD
ENDROOT
BRANCH   3   8
HETATM    8  N2  UNL     1      47.182   7.610   1.658  1.00  0.00    -0.356 N 
ATOM      9  H2  UNL     1      46.441   6.929   1.820  1.00  0.00     0.166 HD
BRANCH   8  10
HETATM   10  C9  UNL     1      48.421   7.477   2.328  1.00  0.00     0.032 A 
HETATM   11  C10 UNL     1      49.162   6.324   2.206  1.00  0.00     0.030 A 
HETATM   12  C11 UNL     1      50.380   6.183   2.860  1.00  0.00     0.011 A 
HETATM   13  C12 UNL     1      50.841   7.218   3.637  1.00  0.00    -0.033 A 
HETATM   14  C18 UNL     1      50.118   8.384   3.775  1.00  0.00     0.011 A 
HETATM   15  C19 UNL     1      48.900   8.502   3.110  1.00  0.00     0.030 A 
BRANCH  13  16
HETATM   16  C13 UNL     1      52.145   7.135   4.370  1.00  0.00     0.271 C 
BRANCH  16  17
HETATM   17  N3  UNL     1      52.086   5.956   5.196  1.00  0.00    -0.065 N 
ATOM     18  H32 UNL     1      51.956   6.176   6.183  1.00  0.00     0.277 HD
ATOM     19  H31 UNL     1      51.227   5.424   5.057  1.00  0.00     0.277 HD
BRANCH  17  20
HETATM   20  C14 UNL     1      53.285   5.160   4.950  1.00  0.00     0.308 C 
BRANCH  20  21
HETATM   21  C15 UNL     1      53.077   3.852   5.664  1.00  0.00     0.106 A 
HETATM   22  N4  UNL     1      51.986   3.503   6.393  1.00  0.00    -0.353 N 
HETATM   23  C16 UNL     1      52.159   2.261   6.880  1.00  0.00     0.106 A 
ATOM     24  H4  UNL     1      51.166   4.090   6.545  1.00  0.00     0.166 HD
HETATM   25  C17 UNL     1      53.388   1.810   6.450  1.00  0.00     0.106 A 
HETATM   26  N5  UNL     1      53.922   2.808   5.711  1.00  0.00    -0.353 N 
ATOM     27  H5  UNL     1      54.833   2.773   5.255  1.00  0.00     0.166 HD
ENDBRANCH  20  21
ENDBRANCH  17  20
ENDBRANCH  16  17
ENDBRANCH  13  16
ENDBRANCH   8  10
ENDBRANCH   3   8
BRANCH   1  28
HETATM   28  S1  UNL     1      44.778  11.970   0.820  1.00  0.00    -0.055 SA
BRANCH  28  29
HETATM   29  C5  UNL     1      45.680  13.122   1.878  1.00  0.00     0.076 A 
HETATM   30  N1  UNL     1      45.362  14.427   1.912  1.00  0.00    -0.350 N 
HETATM   31  C4  UNL     1      45.994  15.339   2.680  1.00  0.00     0.043 A 
ATOM     32  H1  UNL     1      44.596  14.749   1.320  1.00  0.00     0.166 HD
HETATM   33  C3  UNL     1      45.639  16.670   2.685  1.00  0.00     0.033 A 
HETATM   34  C24 UNL     1      47.029  14.888   3.475  1.00  0.00    -0.006 A 
HETATM   35  C2  UNL     1      46.282  17.604   3.468  1.00  0.00     0.044 A 
HETATM   36  C1  UNL     1      47.318  17.168   4.267  1.00  0.00     0.117 A 
HETATM   37  F1  UNL     1      47.972  18.080   5.055  1.00  0.00    -0.206 F 
HETATM   38  C25 UNL     1      47.670  15.835   4.258  1.00  0.00     0.056 A 
HETATM   39  C23 UNL     1      47.407  13.558   3.489  1.00  0.00     0.016 A 
HETATM   40  C22 UNL     1      46.710  12.691   2.674  1.00  0.00     0.038 A 
ENDBRANCH  28  29
ENDBRANCH   1  28
TORSDOF 8
ENDMDL
MODEL 2
REMARK VINA RESULT: -9.020856689      1.252      1.623
REMARK  8 active torsions:
REMARK  status: ('A' for Active; 'I' for Inactive)
REMARK    1  A    between atoms: C5_8  and  S1_9 
REMARK    2  A    between atoms: S1_9  and  C6_10 
REMARK    3  A    between atoms: C8_12  and  N2_13 
REMARK    4  A    between atoms: N2_13  and  C9_15 
REMARK    5  A    between atoms: C12_18  and  C13_19 
REMARK    6  A    between atoms: C13_19  and  N3_20 
REMARK    7  A    between atoms: N3_20  and  C14_23 
REMARK    8  A    between atoms: C14_23  and  C15_24 
ROOT
HETATM    1  C6  UNL     1      46.180  10.422   0.871  1.00  0.00     0.077 A 
HETATM    2  C7  UNL     1      47.292  10.324   1.673  1.00  0.00     0.066 A 
HETATM    3  C8  UNL     1      48.243   9.320   1.465  1.00  0.00     0.036 A 
HETATM    4  C20 UNL     1      48.058   8.429   0.453  1.00  0.00     0.046 A 
HETATM    5  C21 UNL     1      46.933   8.545  -0.342  1.00  0.00     0.091 A 
HETATM    6  N6  UNL     1      46.024   9.535  -0.115  1.00  0.00    -0.360 N 
ATOM      7  H6  UNL     1      45.202   9.600  -0.715  1.00  0.00     0.166 HD
ENDROOT
BRANCH   3   8
HETATM    8  N2  UNL     1      49.280   9.243   2.227  1.00  0.00    -0.356 N 
ATOM      9  H2  UNL     1      49.952  10.009   2.249  1.00  0.00     0.166 HD
BRANCH   8  10
HETATM   10  C9  UNL     1      49.489   8.098   3.033  1.00  0.00     0.032 A 
HETATM   11  C10 UNL     1      48.465   7.584   3.796  1.00  0.00     0.030 A 
HETATM   12  C11 UNL     1      48.659   6.461   4.591  1.00  0.00     0.011 A 
HETATM   13  C12 UNL     1      49.896   5.863   4.605  1.00  0.00    -0.033 A 
HETATM   14  C18 UNL     1      50.938   6.358   3.850  1.00  0.00     0.011 A 
HETATM   15  C19 UNL     1      50.719   7.485   3.061  1.00  0.00     0.030 A 
BRANCH  13  16
HETATM   16  C13 UNL     1      50.176   4.650   5.439  1.00  0.00     0.271 C 
BRANCH  16  17
HETATM   17  N3  UNL     1      51.489   4.825   6.004  1.00  0.00    -0.065 N 
ATOM     18  H32 UNL     1      52.233   4.624   5.336  1.00  0.00     0.277 HD
ATOM     19  H31 UNL     1      51.715   5.804   6.175  1.00  0.00     0.277 HD
BRANCH  17  20
HETATM   20  C14 UNL     1      51.583   4.009   7.212  1.00  0.00     0.308 C 
BRANCH  20  21
HETATM   21  C15 UNL     1      52.282   2.739   6.810  1.00  0.00     0.106 A 
HETATM   22  N4  UNL     1      53.471   2.652   6.160  1.00  0.00    -0.353 N 
HETATM   23  C16 UNL     1      53.778   1.355   5.971  1.00  0.00     0.106 A 
ATOM     24  H4  UNL     1      54.042   3.444   5.864  1.00  0.00     0.166 HD
HETATM   25  C17 UNL     1      52.759   0.601   6.513  1.00  0.00     0.106 A 
HETATM   26  N5  UNL     1      51.863   1.479   7.016  1.00  0.00    -0.353 N 
ATOM     27  H5  UNL     1      50.994   1.222   7.484  1.00  0.00     0.166 HD
ENDBRANCH  20  21
ENDBRANCH  17  20
ENDBRANCH  16  17
ENDBRANCH  13  16
ENDBRANCH   8  10
ENDBRANCH   3   8
BRANCH   1  28
HETATM   28  S1  UNL     1      45.006  11.717   1.180  1.00  0.00    -0.055 SA
BRANCH  28  29
HETATM   29  C5  UNL     1      45.823  12.992   2.164  1.00  0.00     0.076 A 
HETATM   30  N1  UNL     1      45.472  14.284   2.055  1.00  0.00    -0.350 N 
HETATM   31  C4  UNL     1      46.040  15.284   2.760  1.00  0.00     0.043 A 
ATOM     32  H1  UNL     1      44.729  14.525   1.398  1.00  0.00     0.166 HD
HETATM   33  C3  UNL     1      45.652  16.598   2.618  1.00  0.00     0.033 A 
HETATM   34  C24 UNL     1      47.044  14.942   3.644  1.00  0.00    -0.006 A 
HETATM   35  C2  UNL     1      46.230  17.621   3.336  1.00  0.00     0.044 A 
HETATM   36  C1  UNL     1      47.235  17.296   4.224  1.00  0.00     0.117 A 
HETATM   37  F1  UNL     1      47.825  18.299   4.949  1.00  0.00    -0.206 F 
HETATM   38  C25 UNL     1      47.620  15.979   4.362  1.00  0.00     0.056 A 
HETATM   39  C23 UNL     1      47.454  13.632   3.806  1.00  0.00     0.016 A 
HETATM   40  C22 UNL     1      46.821  12.670   3.047  1.00  0.00     0.038 A 
ENDBRANCH  28  29
ENDBRANCH   1  28
TORSDOF 8
ENDMDL
MODEL 3
REMARK VINA RESULT: -9.001003947      0.265      1.066
REMARK  8 active torsions:
REMARK  status: ('A' for Active; 'I' for Inactive)
REMARK    1  A    between atoms: C5_8  and  S1_9 
REMARK    2  A    between atoms: S1_9  and  C6_10 
REMARK    3  A    between atoms: C8_12  and  N2_13 
REMARK    4  A    between atoms: N2_13  and  C9_15 
REMARK    5  A    between atoms: C12_18  and  C13_19 
REMARK    6  A    between atoms: C13_19  and  N3_20 
REMARK    7  A    between atoms: N3_20  and  C14_23 
REMARK    8  A    between atoms: C14_23  and  C15_24 
ROOT
HETATM    1  C6  UNL     1      46.039  10.570   0.430  1.00  0.00     0.077 A 
HETATM    2  C7  UNL     1      46.244   9.515   1.288  1.00  0.00     0.066 A 
HETATM    3  C8  UNL     1      47.146   8.494   0.971  1.00  0.00     0.036 A 
HETATM    4  C20 UNL     1      47.827   8.551  -0.206  1.00  0.00     0.046 A 
HETATM    5  C21 UNL     1      47.606   9.620  -1.055  1.00  0.00     0.091 A 
HETATM    6  N6  UNL     1      46.721  10.600  -0.718  1.00  0.00    -0.360 N 
ATOM      7  H6  UNL     1      46.575  11.378  -1.361  1.00  0.00     0.166 HD
ENDROOT
BRANCH   3   8
HETATM    8  N2  UNL     1      47.326   7.513   1.788  1.00  0.00    -0.356 N 
ATOM      9  H2  UNL     1      46.575   6.843   1.950  1.00  0.00     0.166 HD
BRANCH   8  10
HETATM   10  C9  UNL     1      48.563   7.362   2.459  1.00  0.00     0.032 A 
HETATM   11  C10 UNL     1      49.106   8.409   3.167  1.00  0.00     0.030 A 
HETATM   12  C11 UNL     1      50.320   8.272   3.829  1.00  0.00     0.011 A 
HETATM   13  C12 UNL     1      50.976   7.066   3.770  1.00  0.00    -0.033 A 
HETATM   14  C18 UNL     1      50.453   6.001   3.068  1.00  0.00     0.011 A 
HETATM   15  C19 UNL     1      49.235   6.163   2.412  1.00  0.00     0.030 A 
BRANCH  13  16
HETATM   16  C13 UNL     1      52.288   6.847   4.460  1.00  0.00     0.271 C 
BRANCH  16  17
HETATM   17  N3  UNL     1      52.140   5.672   5.279  1.00  0.00    -0.065 N 
ATOM     18  H32 UNL     1      51.902   5.896   6.245  1.00  0.00     0.277 HD
ATOM     19  H31 UNL     1      51.302   5.138   5.049  1.00  0.00     0.277 HD
BRANCH  17  20
HETATM   20  C14 UNL     1      53.360   4.877   5.171  1.00  0.00     0.308 C 
BRANCH  20  21
HETATM   21  C15 UNL     1      53.036   3.527   5.750  1.00  0.00     0.106 A 
HETATM   22  N4  UNL     1      53.929   2.548   6.044  1.00  0.00    -0.353 N 
HETATM   23  C16 UNL     1      53.273   1.485   6.544  1.00  0.00     0.106 A 
ATOM     24  H4  UNL     1      54.939   2.609   5.908  1.00  0.00     0.166 HD
HETATM   25  C17 UNL     1      51.931   1.797   6.569  1.00  0.00     0.106 A 
HETATM   26  N5  UNL     1      51.822   3.051   6.076  1.00  0.00    -0.353 N 
ATOM     27  H5  UNL     1      50.946   3.561   5.967  1.00  0.00     0.166 HD
ENDBRANCH  20  21
ENDBRANCH  17  20
ENDBRANCH  16  17
ENDBRANCH  13  16
ENDBRANCH   8  10
ENDBRANCH   3   8
BRANCH   1  28
HETATM   28  S1  UNL     1      44.883  11.837   0.884  1.00  0.00    -0.055 SA
BRANCH  28  29
HETATM   29  C5  UNL     1      45.743  13.034   1.927  1.00  0.00     0.076 A 
HETATM   30  N1  UNL     1      45.398  14.333   1.922  1.00  0.00    -0.350 N 
HETATM   31  C4  UNL     1      45.998  15.277   2.676  1.00  0.00     0.043 A 
ATOM     32  H1  UNL     1      44.636  14.624   1.309  1.00  0.00     0.166 HD
HETATM   33  C3  UNL     1      45.616  16.600   2.641  1.00  0.00     0.033 A 
HETATM   34  C24 UNL     1      47.028  14.867   3.499  1.00  0.00    -0.006 A 
HETATM   35  C2  UNL     1      46.227  17.566   3.410  1.00  0.00     0.044 A 
HETATM   36  C1  UNL     1      47.257  17.172   4.238  1.00  0.00     0.117 A 
HETATM   37  F1  UNL     1      47.879  18.118   5.012  1.00  0.00    -0.206 F 
HETATM   38  C25 UNL     1      47.637  15.848   4.269  1.00  0.00     0.056 A 
HETATM   39  C23 UNL     1      47.433  13.547   3.554  1.00  0.00     0.016 A 
HETATM   40  C22 UNL     1      46.767  12.645   2.751  1.00  0.00     0.038 A 
ENDBRANCH  28  29
ENDBRANCH   1  28
TORSDOF 8
ENDMDL
MODEL 4
REMARK VINA RESULT: -8.958981159      1.493      2.188
REMARK  8 active torsions:
REMARK  status: ('A' for Active; 'I' for Inactive)
REMARK    1  A    between atoms: C5_8  and  S1_9 
REMARK    2  A    between atoms: S1_9  and  C6_10 
REMARK    3  A    between atoms: C8_12  and  N2_13 
REMARK    4  A    between atoms: N2_13  and  C9_15 
REMARK    5  A    between atoms: C12_18  and  C13_19 
REMARK    6  A    between atoms: C13_19  and  N3_20 
REMARK    7  A    between atoms: N3_20  and  C14_23 
REMARK    8  A    between atoms: C14_23  and  C15_24 
ROOT
HETATM    1  C6  UNL     1      46.723  10.034   0.824  1.00  0.00     0.077 A 
HETATM    2  C7  UNL     1      47.438   9.958   1.996  1.00  0.00     0.066 A 
HETATM    3  C8  UNL     1      48.706   9.369   2.029  1.00  0.00     0.036 A 
HETATM    4  C20 UNL     1      49.234   8.864   0.880  1.00  0.00     0.046 A 
HETATM    5  C21 UNL     1      48.498   8.950  -0.287  1.00  0.00     0.091 A 
HETATM    6  N6  UNL     1      47.265   9.531  -0.288  1.00  0.00    -0.360 N 
ATOM      7  H6  UNL     1      46.742   9.582  -1.161  1.00  0.00     0.166 HD
ENDROOT
BRANCH   3   8
HETATM    8  N2  UNL     1      49.363   9.307   3.137  1.00  0.00    -0.356 N 
ATOM      9  H2  UNL     1      49.651  10.165   3.606  1.00  0.00     0.166 HD
BRANCH   8  10
HETATM   10  C9  UNL     1      49.685   8.051   3.705  1.00  0.00     0.032 A 
HETATM   11  C10 UNL     1      48.690   7.186   4.098  1.00  0.00     0.030 A 
HETATM   12  C11 UNL     1      48.995   5.951   4.657  1.00  0.00     0.011 A 
HETATM   13  C12 UNL     1      50.314   5.599   4.811  1.00  0.00    -0.033 A 
HETATM   14  C18 UNL     1      51.330   6.447   4.424  1.00  0.00     0.011 A 
HETATM   15  C19 UNL     1      50.999   7.680   3.867  1.00  0.00     0.030 A 
BRANCH  13  16
HETATM   16  C13 UNL     1      50.715   4.284   5.406  1.00  0.00     0.271 C 
BRANCH  16  17
HETATM   17  N3  UNL     1      51.715   4.563   6.404  1.00  0.00    -0.065 N 
ATOM     18  H32 UNL     1      52.652   4.639   6.010  1.00  0.00     0.277 HD
ATOM     19  H31 UNL     1      51.643   5.510   6.776  1.00  0.00     0.277 HD
BRANCH  17  20
HETATM   20  C14 UNL     1      51.624   3.543   7.446  1.00  0.00     0.308 C 
BRANCH  20  21
HETATM   21  C15 UNL     1      52.355   2.338   6.920  1.00  0.00     0.106 A 
HETATM   22  N4  UNL     1      51.892   1.062   6.915  1.00  0.00    -0.353 N 
HETATM   23  C16 UNL     1      52.821   0.256   6.368  1.00  0.00     0.106 A 
ATOM     24  H4  UNL     1      50.983   0.762   7.268  1.00  0.00     0.166 HD
HETATM   25  C17 UNL     1      53.900   1.040   6.019  1.00  0.00     0.106 A 
HETATM   26  N5  UNL     1      53.581   2.305   6.371  1.00  0.00    -0.353 N 
ATOM     27  H5  UNL     1      54.184   3.117   6.239  1.00  0.00     0.166 HD
ENDBRANCH  20  21
ENDBRANCH  17  20
ENDBRANCH  16  17
ENDBRANCH  13  16
ENDBRANCH   8  10
ENDBRANCH   3   8
BRANCH   1  28
HETATM   28  S1  UNL     1      45.119  10.794   0.841  1.00  0.00    -0.055 SA
BRANCH  28  29
HETATM   29  C5  UNL     1      45.312  12.500   1.398  1.00  0.00     0.076 A 
HETATM   30  N1  UNL     1      46.272  12.840   2.275  1.00  0.00    -0.350 N 
HETATM   31  C4  UNL     1      46.470  14.095   2.730  1.00  0.00     0.043 A 
ATOM     32  H1  UNL     1      46.889  12.104   2.619  1.00  0.00     0.166 HD
HETATM   33  C3  UNL     1      47.465  14.402   3.631  1.00  0.00     0.033 A 
HETATM   34  C24 UNL     1      45.626  15.080   2.256  1.00  0.00    -0.006 A 
HETATM   35  C2  UNL     1      47.670  15.682   4.098  1.00  0.00     0.044 A 
HETATM   36  C1  UNL     1      46.836  16.677   3.633  1.00  0.00     0.117 A 
HETATM   37  F1  UNL     1      47.022  17.959   4.084  1.00  0.00    -0.206 F 
HETATM   38  C25 UNL     1      45.840  16.364   2.731  1.00  0.00     0.056 A 
HETATM   39  C23 UNL     1      44.619  14.799   1.351  1.00  0.00     0.016 A 
HETATM   40  C22 UNL     1      44.484  13.491   0.937  1.00  0.00     0.038 A 
ENDBRANCH  28  29
ENDBRANCH   1  28
TORSDOF 8
ENDMDL
MODEL 5
REMARK VINA RESULT: -8.742457951      1.878      3.541
REMARK  8 active torsions:
REMARK  status: ('A' for Active; 'I' for Inactive)
REMARK    1  A    between atoms: C5_8  and  S1_9 
REMARK    2  A    between atoms: S1_9  and  C6_10 
REMARK    3  A    between atoms: C8_12  and  N2_13 
REMARK    4  A    between atoms: N2_13  and  C9_15 
REMARK    5  A    between atoms: C12_18  and  C13_19 
REMARK    6  A    between atoms: C13_19  and  N3_20 
REMARK    7  A    between atoms: N3_20  and  C14_23 
REMARK    8  A    between atoms: C14_23  and  C15_24 
ROOT
HETATM    1  C6  UNL     1      48.290   8.891   1.835  1.00  0.00     0.077 A 
HETATM    2  C7  UNL     1      49.614   8.882   2.206  1.00  0.00     0.066 A 
HETATM    3  C8  UNL     1      50.049   8.132   3.303  1.00  0.00     0.036 A 
HETATM    4  C20 UNL     1      49.143   7.402   4.010  1.00  0.00     0.046 A 
HETATM    5  C21 UNL     1      47.816   7.425   3.620  1.00  0.00     0.091 A 
HETATM    6  N6  UNL     1      47.423   8.166   2.546  1.00  0.00    -0.360 N 
ATOM      7  H6  UNL     1      46.439   8.167   2.278  1.00  0.00     0.166 HD
ENDROOT
BRANCH   3   8
HETATM    8  N2  UNL     1      51.294   8.135   3.637  1.00  0.00    -0.356 N 
ATOM      9  H2  UNL     1      51.768   9.018   3.823  1.00  0.00     0.166 HD
BRANCH   8  10
HETATM   10  C9  UNL     1      52.006   6.917   3.745  1.00  0.00     0.032 A 
HETATM   11  C10 UNL     1      52.330   6.194   2.620  1.00  0.00     0.030 A 
HETATM   12  C11 UNL     1      53.028   4.996   2.715  1.00  0.00     0.011 A 
HETATM   13  C12 UNL     1      53.397   4.539   3.957  1.00  0.00    -0.033 A 
HETATM   14  C18 UNL     1      53.085   5.245   5.100  1.00  0.00     0.011 A 
HETATM   15  C19 UNL     1      52.384   6.442   4.979  1.00  0.00     0.030 A 
BRANCH  13  16
HETATM   16  C13 UNL     1      54.151   3.257   4.134  1.00  0.00     0.271 C 
BRANCH  16  17
HETATM   17  N3  UNL     1      53.822   2.754   5.443  1.00  0.00    -0.065 N 
ATOM     18  H32 UNL     1      54.630   2.723   6.064  1.00  0.00     0.277 HD
ATOM     19  H31 UNL     1      53.256   3.409   5.982  1.00  0.00     0.277 HD
BRANCH  17  20
HETATM   20  C14 UNL     1      53.180   1.452   5.289  1.00  0.00     0.308 C 
BRANCH  20  21
HETATM   21  C15 UNL     1      51.775   1.610   5.802  1.00  0.00     0.106 A 
HETATM   22  N4  UNL     1      50.799   2.367   5.239  1.00  0.00    -0.353 N 
HETATM   23  C16 UNL     1      49.678   2.263   5.976  1.00  0.00     0.106 A 
ATOM     24  H4  UNL     1      50.899   2.925   4.391  1.00  0.00     0.166 HD
HETATM   25  C17 UNL     1      49.949   1.421   7.033  1.00  0.00     0.106 A 
HETATM   26  N5  UNL     1      51.238   1.041   6.895  1.00  0.00    -0.353 N 
ATOM     27  H5  UNL     1      51.733   0.414   7.529  1.00  0.00     0.166 HD
ENDBRANCH  20  21
ENDBRANCH  17  20
ENDBRANCH  16  17
ENDBRANCH  13  16
ENDBRANCH   8  10
ENDBRANCH   3   8
BRANCH   1  28
HETATM   28  S1  UNL     1      47.794   9.862   0.434  1.00  0.00    -0.055 SA
BRANCH  28  29
HETATM   29  C5  UNL     1      47.007  11.368   1.045  1.00  0.00     0.076 A 
HETATM   30  N1  UNL     1      47.478  12.006   2.130  1.00  0.00    -0.350 N 
HETATM   31  C4  UNL     1      46.938  13.134   2.637  1.00  0.00     0.043 A 
ATOM     32  H1  UNL     1      48.294  11.614   2.600  1.00  0.00     0.166 HD
HETATM   33  C3  UNL     1      47.450  13.758   3.753  1.00  0.00     0.033 A 
HETATM   34  C24 UNL     1      45.834  13.652   1.989  1.00  0.00    -0.006 A 
HETATM   35  C2  UNL     1      46.902  14.909   4.273  1.00  0.00     0.044 A 
HETATM   36  C1  UNL     1      45.799  15.439   3.637  1.00  0.00     0.117 A 
HETATM   37  F1  UNL     1      45.236  16.586   4.138  1.00  0.00    -0.206 F 
HETATM   38  C25 UNL     1      45.289  14.811   2.521  1.00  0.00     0.056 A 
HETATM   39  C23 UNL     1      45.299  13.047   0.868  1.00  0.00     0.016 A 
HETATM   40  C22 UNL     1      45.911  11.897   0.414  1.00  0.00     0.038 A 
ENDBRANCH  28  29
ENDBRANCH   1  28
TORSDOF 8
ENDMDL
