MODEL 1
REMARK VINA RESULT: -8.583665981      0.000      0.000
REMARK  9 active torsions:
REMARK  status: ('A' for Active; 'I' for Inactive)
REMARK    1  A    between atoms: N1_1  and  N2_4 
REMARK       I    between atoms: N2_4  and  C1_6 
REMARK    2  A    between atoms: C1_6  and  C2_8 
REMARK    3  A    between atoms: C2_8  and  N3_9 
REMARK    4  A    between atoms: N3_9  and  C3_12 
REMARK    5  A    between atoms: C3_12  and  N4_13 
REMARK    6  A    between atoms: C5_15  and  N5_16 
REMARK    7  A    between atoms: N6_18  and  C6_20 
REMARK    8  A    between atoms: C9_23  and  S1_24 
REMARK    9  A    between atoms: S1_24  and  N7_25 
ROOT
HETATM    1  N4  UNL     1     -22.903  38.048  -5.476  1.00  0.00    -0.282 N 
HETATM    2  C4  UNL     1     -22.651  38.549  -4.263  1.00  0.00     0.134 A 
HETATM    3  C5  UNL     1     -22.122  37.745  -3.263  1.00  0.00     0.132 A 
HETATM    4  C12 UNL     1     -21.848  36.417  -3.502  1.00  0.00     0.279 A 
HETATM    5  O4  UNL     1     -21.373  35.650  -2.639  1.00  0.00    -0.265 OA
HETATM    6  N8  UNL     1     -22.120  35.945  -4.748  1.00  0.00    -0.273 N 
ATOM      7  H8  UNL     1     -21.933  34.966  -4.966  1.00  0.00     0.173 HD
HETATM    8  C13 UNL     1     -22.637  36.756  -5.706  1.00  0.00     0.330 A 
HETATM    9  O5  UNL     1     -22.886  36.314  -6.856  1.00  0.00    -0.246 OA
ENDROOT
BRANCH   3  10
HETATM   10  N5  UNL     1     -21.839  38.246  -1.951  1.00  0.00    -0.294 N 
HETATM   11  N6  UNL     1     -20.668  38.591  -1.668  1.00  0.00    -0.300 N 
ATOM     12  H6  UNL     1     -19.972  38.492  -2.408  1.00  0.00     0.187 HD
ATOM     13  H5  UNL     1     -22.581  38.320  -1.255  1.00  0.00     0.187 HD
BRANCH  11  14
HETATM   14  C6  UNL     1     -20.208  39.101  -0.434  1.00  0.00     0.048 A 
HETATM   15  C7  UNL     1     -19.150  39.966  -0.304  1.00  0.00     0.032 A 
HETATM   16  C8  UNL     1     -18.764  40.427   0.959  1.00  0.00     0.027 A 
HETATM   17  C9  UNL     1     -19.433  40.025   2.093  1.00  0.00     0.079 A 
HETATM   18  C10 UNL     1     -20.487  39.163   1.974  1.00  0.00     0.027 A 
HETATM   19  C11 UNL     1     -20.864  38.712   0.715  1.00  0.00     0.032 A 
BRANCH  17  20
HETATM   20  S1  UNL     1     -18.904  40.642   3.653  1.00  0.00     0.256 S 
HETATM   21  O2  UNL     1     -19.548  41.975   3.949  1.00  0.00    -0.201 OA
HETATM   22  O3  UNL     1     -19.220  39.670   4.728  1.00  0.00    -0.201 OA
BRANCH  20  23
HETATM   23  N7  UNL     1     -17.179  40.837   3.538  1.00  0.00    -0.324 N 
ATOM     24  H72 UNL     1     -16.477  40.281   4.026  1.00  0.00     0.169 HD
ATOM     25  H71 UNL     1     -17.023  41.610   2.891  1.00  0.00     0.169 HD
ENDBRANCH  20  23
ENDBRANCH  17  20
ENDBRANCH  11  14
ENDBRANCH   3  10
BRANCH   1  26
HETATM   26  C3  UNL     1     -23.446  38.892  -6.497  1.00  0.00     0.366 C 
BRANCH  26  27
HETATM   27  N3  UNL     1     -24.863  38.911  -6.553  1.00  0.00    -0.051 N 
ATOM     28  H32 UNL     1     -25.268  39.212  -5.666  1.00  0.00     0.279 HD
ATOM     29  H31 UNL     1     -25.247  37.966  -6.589  1.00  0.00     0.279 HD
BRANCH  27  30
HETATM   30  C2  UNL     1     -25.338  39.710  -7.642  1.00  0.00     0.338 C 
BRANCH  30  31
HETATM   31  C1  UNL     1     -25.438  41.145  -7.311  1.00  0.00     0.261 C 
HETATM   32  N2  UNL     1     -25.977  41.558  -6.053  1.00  0.00    -0.275 N 
ATOM     33  H2  UNL     1     -26.295  40.856  -5.384  1.00  0.00     0.189 HD
HETATM   34  O1  UNL     1     -25.065  42.054  -8.088  1.00  0.00    -0.270 OA
BRANCH  32  35
HETATM   35  N1  UNL     1     -26.073  42.905  -5.731  1.00  0.00    -0.343 N 
ATOM     36  H12 UNL     1     -25.263  43.505  -5.888  1.00  0.00     0.176 HD
ATOM     37  H11 UNL     1     -26.935  43.288  -5.344  1.00  0.00     0.176 HD
ENDBRANCH  32  35
ENDBRANCH  30  31
ENDBRANCH  27  30
ENDBRANCH  26  27
ENDBRANCH   1  26
TORSDOF 9
ENDMDL
MODEL 2
REMARK VINA RESULT: -8.581318934      0.896      1.365
REMARK  9 active torsions:
REMARK  status: ('A' for Active; 'I' for Inactive)
REMARK    1  A    between atoms: N1_1  and  N2_4 
REMARK       I    between atoms: N2_4  and  C1_6 
REMARK    2  A    between atoms: C1_6  and  C2_8 
REMARK    3  A    between atoms: C2_8  and  N3_9 
REMARK    4  A    between atoms: N3_9  and  C3_12 
REMARK    5  A    between atoms: C3_12  and  N4_13 
REMARK    6  A    between atoms: C5_15  and  N5_16 
REMARK    7  A    between atoms: N6_18  and  C6_20 
REMARK    8  A    between atoms: C9_23  and  S1_24 
REMARK    9  A    between atoms: S1_24  and  N7_25 
ROOT
HETATM    1  N4  UNL     1     -22.622  38.021  -5.203  1.00  0.00    -0.282 N 
HETATM    2  C4  UNL     1     -21.931  38.538  -4.182  1.00  0.00     0.134 A 
HETATM    3  C5  UNL     1     -21.414  37.715  -3.192  1.00  0.00     0.132 A 
HETATM    4  C12 UNL     1     -21.603  36.352  -3.242  1.00  0.00     0.279 A 
HETATM    5  O4  UNL     1     -21.159  35.568  -2.378  1.00  0.00    -0.265 OA
HETATM    6  N8  UNL     1     -22.311  35.866  -4.295  1.00  0.00    -0.273 N 
ATOM      7  H8  UNL     1     -22.475  34.862  -4.370  1.00  0.00     0.173 HD
HETATM    8  C13 UNL     1     -22.805  36.695  -5.250  1.00  0.00     0.330 A 
HETATM    9  O5  UNL     1     -23.459  36.239  -6.221  1.00  0.00    -0.246 OA
ENDROOT
BRANCH   3  10
HETATM   10  N5  UNL     1     -20.670  38.232  -2.082  1.00  0.00    -0.294 N 
HETATM   11  N6  UNL     1     -21.228  38.331  -0.965  1.00  0.00    -0.300 N 
ATOM     12  H6  UNL     1     -22.202  38.029  -0.914  1.00  0.00     0.187 HD
ATOM     13  H5  UNL     1     -19.697  38.516  -2.199  1.00  0.00     0.187 HD
BRANCH  11  14
HETATM   14  C6  UNL     1     -20.655  38.816   0.231  1.00  0.00     0.048 A 
HETATM   15  C7  UNL     1     -21.126  38.521   1.487  1.00  0.00     0.032 A 
HETATM   16  C8  UNL     1     -20.492  39.042   2.621  1.00  0.00     0.027 A 
HETATM   17  C9  UNL     1     -19.390  39.858   2.502  1.00  0.00     0.079 A 
HETATM   18  C10 UNL     1     -18.914  40.157   1.256  1.00  0.00     0.027 A 
HETATM   19  C11 UNL     1     -19.549  39.634   0.136  1.00  0.00     0.032 A 
BRANCH  17  20
HETATM   20  S1  UNL     1     -18.633  40.478   3.964  1.00  0.00     0.256 S 
HETATM   21  O2  UNL     1     -18.977  39.615   5.153  1.00  0.00    -0.201 OA
HETATM   22  O3  UNL     1     -17.162  40.555   3.793  1.00  0.00    -0.201 OA
BRANCH  20  23
HETATM   23  N7  UNL     1     -19.272  42.079   4.198  1.00  0.00    -0.324 N 
ATOM     24  H72 UNL     1     -20.246  42.317   4.388  1.00  0.00     0.169 HD
ATOM     25  H71 UNL     1     -18.480  42.717   4.107  1.00  0.00     0.169 HD
ENDBRANCH  20  23
ENDBRANCH  17  20
ENDBRANCH  11  14
ENDBRANCH   3  10
BRANCH   1  26
HETATM   26  C3  UNL     1     -23.146  38.883  -6.218  1.00  0.00     0.366 C 
BRANCH  26  27
HETATM   27  N3  UNL     1     -24.560  38.997  -6.220  1.00  0.00    -0.051 N 
ATOM     28  H32 UNL     1     -24.896  39.498  -5.397  1.00  0.00     0.279 HD
ATOM     29  H31 UNL     1     -25.006  38.095  -6.051  1.00  0.00     0.279 HD
BRANCH  27  30
HETATM   30  C2  UNL     1     -25.039  39.598  -7.428  1.00  0.00     0.338 C 
BRANCH  30  31
HETATM   31  C1  UNL     1     -25.352  41.034  -7.280  1.00  0.00     0.261 C 
HETATM   32  N2  UNL     1     -25.616  41.583  -5.987  1.00  0.00    -0.275 N 
ATOM     33  H2  UNL     1     -25.588  40.978  -5.166  1.00  0.00     0.189 HD
HETATM   34  O1  UNL     1     -25.401  41.827  -8.248  1.00  0.00    -0.270 OA
BRANCH  32  35
HETATM   35  N1  UNL     1     -25.908  42.931  -5.836  1.00  0.00    -0.343 N 
ATOM     36  H12 UNL     1     -25.928  43.524  -6.666  1.00  0.00     0.176 HD
ATOM     37  H11 UNL     1     -26.099  43.323  -4.914  1.00  0.00     0.176 HD
ENDBRANCH  32  35
ENDBRANCH  30  31
ENDBRANCH  27  30
ENDBRANCH  26  27
ENDBRANCH   1  26
TORSDOF 9
ENDMDL
MODEL 3
REMARK VINA RESULT: -8.299384299      3.740      9.886
REMARK  9 active torsions:
REMARK  status: ('A' for Active; 'I' for Inactive)
REMARK    1  A    between atoms: N1_1  and  N2_4 
REMARK       I    between atoms: N2_4  and  C1_6 
REMARK    2  A    between atoms: C1_6  and  C2_8 
REMARK    3  A    between atoms: C2_8  and  N3_9 
REMARK    4  A    between atoms: N3_9  and  C3_12 
REMARK    5  A    between atoms: C3_12  and  N4_13 
REMARK    6  A    between atoms: C5_15  and  N5_16 
REMARK    7  A    between atoms: N6_18  and  C6_20 
REMARK    8  A    between atoms: C9_23  and  S1_24 
REMARK    9  A    between atoms: S1_24  and  N7_25 
ROOT
HETATM    1  N4  UNL     1     -18.328  39.216   2.733  1.00  0.00    -0.282 N 
HETATM    2  C4  UNL     1     -18.572  38.854   1.470  1.00  0.00     0.134 A 
HETATM    3  C5  UNL     1     -19.825  38.387   1.100  1.00  0.00     0.132 A 
HETATM    4  C12 UNL     1     -20.838  38.286   2.026  1.00  0.00     0.279 A 
HETATM    5  O4  UNL     1     -21.983  37.873   1.747  1.00  0.00    -0.265 OA
HETATM    6  N8  UNL     1     -20.549  38.663   3.301  1.00  0.00    -0.273 N 
ATOM      7  H8  UNL     1     -21.272  38.603   4.019  1.00  0.00     0.173 HD
HETATM    8  C13 UNL     1     -19.314  39.117   3.633  1.00  0.00     0.330 A 
HETATM    9  O5  UNL     1     -19.053  39.463   4.813  1.00  0.00    -0.246 OA
ENDROOT
BRANCH   3  10
HETATM   10  N5  UNL     1     -20.125  37.989  -0.243  1.00  0.00    -0.294 N 
HETATM   11  N6  UNL     1     -21.043  38.575  -0.863  1.00  0.00    -0.300 N 
ATOM     12  H6  UNL     1     -21.531  39.317  -0.361  1.00  0.00     0.187 HD
ATOM     13  H5  UNL     1     -19.598  37.239  -0.690  1.00  0.00     0.187 HD
BRANCH  11  14
HETATM   14  C6  UNL     1     -21.475  38.317  -2.183  1.00  0.00     0.048 A 
HETATM   15  C7  UNL     1     -22.740  38.583  -2.646  1.00  0.00     0.032 A 
HETATM   16  C8  UNL     1     -23.082  38.299  -3.973  1.00  0.00     0.027 A 
HETATM   17  C9  UNL     1     -22.162  37.749  -4.838  1.00  0.00     0.079 A 
HETATM   18  C10 UNL     1     -20.901  37.480  -4.385  1.00  0.00     0.027 A 
HETATM   19  C11 UNL     1     -20.571  37.766  -3.067  1.00  0.00     0.032 A 
BRANCH  17  20
HETATM   20  S1  UNL     1     -22.650  37.420  -6.495  1.00  0.00     0.256 S 
HETATM   21  O2  UNL     1     -23.439  36.136  -6.578  1.00  0.00    -0.201 OA
HETATM   22  O3  UNL     1     -23.448  38.548  -7.034  1.00  0.00    -0.201 OA
BRANCH  20  23
HETATM   23  N7  UNL     1     -21.179  37.264  -7.411  1.00  0.00    -0.324 N 
ATOM     24  H72 UNL     1     -20.256  37.041  -7.035  1.00  0.00     0.169 HD
ATOM     25  H71 UNL     1     -21.430  37.438  -8.384  1.00  0.00     0.169 HD
ENDBRANCH  20  23
ENDBRANCH  17  20
ENDBRANCH  11  14
ENDBRANCH   3  10
BRANCH   1  26
HETATM   26  C3  UNL     1     -17.030  39.699   3.097  1.00  0.00     0.366 C 
BRANCH  26  27
HETATM   27  N3  UNL     1     -16.741  41.010   2.638  1.00  0.00    -0.051 N 
ATOM     28  H32 UNL     1     -17.518  41.398   2.104  1.00  0.00     0.279 HD
ATOM     29  H31 UNL     1     -16.033  40.999   1.903  1.00  0.00     0.279 HD
BRANCH  27  30
HETATM   30  C2  UNL     1     -16.362  41.875   3.714  1.00  0.00     0.338 C 
BRANCH  30  31
HETATM   31  C1  UNL     1     -17.467  42.731   4.189  1.00  0.00     0.261 C 
HETATM   32  N2  UNL     1     -17.216  43.768   5.142  1.00  0.00    -0.275 N 
ATOM     33  H2  UNL     1     -16.270  43.912   5.493  1.00  0.00     0.189 HD
HETATM   34  O1  UNL     1     -18.650  42.604   3.796  1.00  0.00    -0.270 OA
BRANCH  32  35
HETATM   35  N1  UNL     1     -18.248  44.579   5.593  1.00  0.00    -0.343 N 
ATOM     36  H12 UNL     1     -19.144  44.150   5.823  1.00  0.00     0.176 HD
ATOM     37  H11 UNL     1     -18.113  45.585   5.694  1.00  0.00     0.176 HD
ENDBRANCH  32  35
ENDBRANCH  30  31
ENDBRANCH  27  30
ENDBRANCH  26  27
ENDBRANCH   1  26
TORSDOF 9
ENDMDL
MODEL 4
REMARK VINA RESULT: -8.259781134      1.164      1.547
REMARK  9 active torsions:
REMARK  status: ('A' for Active; 'I' for Inactive)
REMARK    1  A    between atoms: N1_1  and  N2_4 
REMARK       I    between atoms: N2_4  and  C1_6 
REMARK    2  A    between atoms: C1_6  and  C2_8 
REMARK    3  A    between atoms: C2_8  and  N3_9 
REMARK    4  A    between atoms: N3_9  and  C3_12 
REMARK    5  A    between atoms: C3_12  and  N4_13 
REMARK    6  A    between atoms: C5_15  and  N5_16 
REMARK    7  A    between atoms: N6_18  and  C6_20 
REMARK    8  A    between atoms: C9_23  and  S1_24 
REMARK    9  A    between atoms: S1_24  and  N7_25 
ROOT
HETATM    1  N4  UNL     1     -22.312  37.810  -5.106  1.00  0.00    -0.282 N 
HETATM    2  C4  UNL     1     -21.659  38.406  -4.104  1.00  0.00     0.134 A 
HETATM    3  C5  UNL     1     -21.169  37.661  -3.040  1.00  0.00     0.132 A 
HETATM    4  C12 UNL     1     -21.348  36.297  -2.997  1.00  0.00     0.279 A 
HETATM    5  O4  UNL     1     -20.928  35.580  -2.065  1.00  0.00    -0.265 OA
HETATM    6  N8  UNL     1     -22.018  35.729  -4.035  1.00  0.00    -0.273 N 
ATOM      7  H8  UNL     1     -22.173  34.721  -4.042  1.00  0.00     0.173 HD
HETATM    8  C13 UNL     1     -22.486  36.483  -5.063  1.00  0.00     0.330 A 
HETATM    9  O5  UNL     1     -23.105  35.953  -6.019  1.00  0.00    -0.246 OA
ENDROOT
BRANCH   3  10
HETATM   10  N5  UNL     1     -20.465  38.263  -1.947  1.00  0.00    -0.294 N 
HETATM   11  N6  UNL     1     -21.043  38.389  -0.843  1.00  0.00    -0.300 N 
ATOM     12  H6  UNL     1     -22.003  38.046  -0.790  1.00  0.00     0.187 HD
ATOM     13  H5  UNL     1     -19.504  38.585  -2.066  1.00  0.00     0.187 HD
BRANCH  11  14
HETATM   14  C6  UNL     1     -20.509  38.955   0.335  1.00  0.00     0.048 A 
HETATM   15  C7  UNL     1     -20.938  38.646   1.602  1.00  0.00     0.032 A 
HETATM   16  C8  UNL     1     -20.348  39.252   2.717  1.00  0.00     0.027 A 
HETATM   17  C9  UNL     1     -19.332  40.169   2.568  1.00  0.00     0.079 A 
HETATM   18  C10 UNL     1     -18.899  40.484   1.310  1.00  0.00     0.027 A 
HETATM   19  C11 UNL     1     -19.490  39.876   0.210  1.00  0.00     0.032 A 
BRANCH  17  20
HETATM   20  S1  UNL     1     -18.627  40.894   4.007  1.00  0.00     0.256 S 
HETATM   21  O2  UNL     1     -19.110  42.313   4.184  1.00  0.00    -0.201 OA
HETATM   22  O3  UNL     1     -18.956  40.087   5.207  1.00  0.00    -0.201 OA
BRANCH  20  23
HETATM   23  N7  UNL     1     -16.906  40.886   3.759  1.00  0.00    -0.324 N 
ATOM     24  H72 UNL     1     -16.212  40.453   4.369  1.00  0.00     0.169 HD
ATOM     25  H71 UNL     1     -16.741  41.397   2.892  1.00  0.00     0.169 HD
ENDBRANCH  20  23
ENDBRANCH  17  20
ENDBRANCH  11  14
ENDBRANCH   3  10
BRANCH   1  26
HETATM   26  C3  UNL     1     -22.808  38.593  -6.198  1.00  0.00     0.366 C 
BRANCH  26  27
HETATM   27  N3  UNL     1     -24.187  38.916  -6.111  1.00  0.00    -0.051 N 
ATOM     28  H32 UNL     1     -24.663  38.337  -5.418  1.00  0.00     0.279 HD
ATOM     29  H31 UNL     1     -24.693  38.615  -6.944  1.00  0.00     0.279 HD
BRANCH  27  30
HETATM   30  C2  UNL     1     -24.387  40.310  -5.853  1.00  0.00     0.338 C 
BRANCH  30  31
HETATM   31  C1  UNL     1     -25.007  41.029  -6.984  1.00  0.00     0.261 C 
HETATM   32  N2  UNL     1     -25.258  40.349  -8.217  1.00  0.00    -0.275 N 
ATOM     33  H2  UNL     1     -25.005  39.366  -8.312  1.00  0.00     0.189 HD
HETATM   34  O1  UNL     1     -25.339  42.235  -6.929  1.00  0.00    -0.270 OA
BRANCH  32  35
HETATM   35  N1  UNL     1     -25.842  41.015  -9.286  1.00  0.00    -0.343 N 
ATOM     36  H12 UNL     1     -26.822  41.290  -9.215  1.00  0.00     0.176 HD
ATOM     37  H11 UNL     1     -25.303  41.225 -10.126  1.00  0.00     0.176 HD
ENDBRANCH  32  35
ENDBRANCH  30  31
ENDBRANCH  27  30
ENDBRANCH  26  27
ENDBRANCH   1  26
TORSDOF 9
ENDMDL
MODEL 5
REMARK VINA RESULT: -7.949507119      2.462      3.423
REMARK  9 active torsions:
REMARK  status: ('A' for Active; 'I' for Inactive)
REMARK    1  A    between atoms: N1_1  and  N2_4 
REMARK       I    between atoms: N2_4  and  C1_6 
REMARK    2  A    between atoms: C1_6  and  C2_8 
REMARK    3  A    between atoms: C2_8  and  N3_9 
REMARK    4  A    between atoms: N3_9  and  C3_12 
REMARK    5  A    between atoms: C3_12  and  N4_13 
REMARK    6  A    between atoms: C5_15  and  N5_16 
REMARK    7  A    between atoms: N6_18  and  C6_20 
REMARK    8  A    between atoms: C9_23  and  S1_24 
REMARK    9  A    between atoms: S1_24  and  N7_25 
ROOT
HETATM    1  N4  UNL     1     -22.935  37.389  -2.369  1.00  0.00    -0.282 N 
HETATM    2  C4  UNL     1     -21.831  37.811  -1.747  1.00  0.00     0.134 A 
HETATM    3  C5  UNL     1     -21.743  37.774  -0.363  1.00  0.00     0.132 A 
HETATM    4  C12 UNL     1     -22.792  37.303   0.395  1.00  0.00     0.279 A 
HETATM    5  O4  UNL     1     -22.765  37.248   1.642  1.00  0.00    -0.265 OA
HETATM    6  N8  UNL     1     -23.898  36.883  -0.276  1.00  0.00    -0.273 N 
ATOM      7  H8  UNL     1     -24.698  36.528   0.247  1.00  0.00     0.173 HD
HETATM    8  C13 UNL     1     -23.955  36.931  -1.632  1.00  0.00     0.330 A 
HETATM    9  O5  UNL     1     -24.980  36.542  -2.245  1.00  0.00    -0.246 OA
ENDROOT
BRANCH   3  10
HETATM   10  N5  UNL     1     -20.576  38.219   0.340  1.00  0.00    -0.294 N 
HETATM   11  N6  UNL     1     -20.697  39.087   1.235  1.00  0.00    -0.300 N 
ATOM     12  H6  UNL     1     -21.641  39.431   1.412  1.00  0.00     0.187 HD
ATOM     13  H5  UNL     1     -19.659  37.833   0.115  1.00  0.00     0.187 HD
BRANCH  11  14
HETATM   14  C6  UNL     1     -19.665  39.641   2.024  1.00  0.00     0.048 A 
HETATM   15  C7  UNL     1     -19.678  39.675   3.397  1.00  0.00     0.032 A 
HETATM   16  C8  UNL     1     -18.609  40.240   4.101  1.00  0.00     0.027 A 
HETATM   17  C9  UNL     1     -17.527  40.773   3.437  1.00  0.00     0.079 A 
HETATM   18  C10 UNL     1     -17.506  40.744   2.070  1.00  0.00     0.027 A 
HETATM   19  C11 UNL     1     -18.572  40.180   1.380  1.00  0.00     0.032 A 
BRANCH  17  20
HETATM   20  S1  UNL     1     -16.212  41.464   4.377  1.00  0.00     0.256 S 
HETATM   21  O2  UNL     1     -15.933  40.631   5.604  1.00  0.00    -0.201 OA
HETATM   22  O3  UNL     1     -14.988  41.581   3.547  1.00  0.00    -0.201 OA
BRANCH  20  23
HETATM   23  N7  UNL     1     -16.740  43.052   4.854  1.00  0.00    -0.324 N 
ATOM     24  H72 UNL     1     -16.847  43.860   4.241  1.00  0.00     0.169 HD
ATOM     25  H71 UNL     1     -16.916  43.003   5.858  1.00  0.00     0.169 HD
ENDBRANCH  20  23
ENDBRANCH  17  20
ENDBRANCH  11  14
ENDBRANCH   3  10
BRANCH   1  26
HETATM   26  C3  UNL     1     -23.008  37.431  -3.799  1.00  0.00     0.366 C 
BRANCH  26  27
HETATM   27  N3  UNL     1     -23.491  38.656  -4.327  1.00  0.00    -0.051 N 
ATOM     28  H32 UNL     1     -22.973  39.453  -3.954  1.00  0.00     0.279 HD
ATOM     29  H31 UNL     1     -24.415  38.882  -3.960  1.00  0.00     0.279 HD
BRANCH  27  30
HETATM   30  C2  UNL     1     -23.483  38.653  -5.759  1.00  0.00     0.338 C 
BRANCH  30  31
HETATM   31  C1  UNL     1     -24.201  39.801  -6.348  1.00  0.00     0.261 C 
HETATM   32  N2  UNL     1     -24.688  39.734  -7.691  1.00  0.00    -0.275 N 
ATOM     33  H2  UNL     1     -24.536  38.888  -8.241  1.00  0.00     0.189 HD
HETATM   34  O1  UNL     1     -24.418  40.866  -5.724  1.00  0.00    -0.270 OA
BRANCH  32  35
HETATM   35  N1  UNL     1     -25.365  40.807  -8.253  1.00  0.00    -0.343 N 
ATOM     36  H12 UNL     1     -24.940  41.733  -8.208  1.00  0.00     0.176 HD
ATOM     37  H11 UNL     1     -26.271  40.673  -8.703  1.00  0.00     0.176 HD
ENDBRANCH  32  35
ENDBRANCH  30  31
ENDBRANCH  27  30
ENDBRANCH  26  27
ENDBRANCH   1  26
TORSDOF 9
ENDMDL
