MODEL 1
REMARK VINA RESULT: -7.721417786      0.000      0.000
REMARK  9 active torsions:
REMARK  status: ('A' for Active; 'I' for Inactive)
REMARK    1  A    between atoms: O1_2  and  N1_3 
REMARK    2  A    between atoms: N1_3  and  C2_4 
REMARK    3  A    between atoms: C2_4  and  C3_5 
REMARK    4  A    between atoms: C2_4  and  C11_24 
REMARK    5  A    between atoms: C3_5  and  N2_6 
REMARK       I    between atoms: N2_6  and  C4_8 
REMARK    6  A    between atoms: C4_8  and  C5_10 
REMARK    7  A    between atoms: C5_10  and  N3_12 
REMARK       I    between atoms: N3_12  and  C7_14 
REMARK    8  A    between atoms: C7_14  and  C8_16 
REMARK    9  A    between atoms: C13_27  and  N5_28 
ROOT
HETATM    1  N2  UNL     1     -20.897  37.964  -0.890  1.00  0.00    -0.352 N 
ATOM      2  H2  UNL     1     -21.446  37.365  -0.274  1.00  0.00     0.162 HD
HETATM    3  C4  UNL     1     -20.032  38.926  -0.338  1.00  0.00     0.240 C 
HETATM    4  O2  UNL     1     -19.363  39.655  -1.106  1.00  0.00    -0.271 OA
ENDROOT
BRANCH   1   5
HETATM    5  C3  UNL     1     -21.011  37.820  -2.302  1.00  0.00     0.200 C 
BRANCH   5   6
HETATM    6  C2  UNL     1     -22.368  38.190  -2.813  1.00  0.00     0.162 C 
BRANCH   6   7
HETATM    7  N1  UNL     1     -23.229  38.473  -2.022  1.00  0.00    -0.282 NA
BRANCH   7   8
HETATM    8  O1  UNL     1     -24.069  38.736  -1.134  1.00  0.00    -0.214 OA
HETATM    9  C1  UNL     1     -25.105  37.837  -0.718  1.00  0.00     0.255 C 
ENDBRANCH   7   8
ENDBRANCH   6   7
BRANCH   6  10
HETATM   10  C11 UNL     1     -22.572  38.191  -4.313  1.00  0.00     0.082 A 
HETATM   11  C12 UNL     1     -21.763  37.480  -5.152  1.00  0.00     0.086 A 
HETATM   12  S1  UNL     1     -22.427  37.837  -6.683  1.00  0.00    -0.064 SA
HETATM   13  C13 UNL     1     -23.686  38.863  -6.172  1.00  0.00     0.142 A 
HETATM   14  N6  UNL     1     -23.546  38.891  -4.853  1.00  0.00    -0.334 N 
ATOM     15  H6  UNL     1     -24.178  39.441  -4.272  1.00  0.00     0.168 HD
BRANCH  13  16
HETATM   16  N5  UNL     1     -24.571  39.471  -6.926  1.00  0.00    -0.380 N 
ATOM     17  H52 UNL     1     -25.251  39.071  -7.574  1.00  0.00     0.158 HD
ATOM     18  H51 UNL     1     -24.738  40.474  -6.996  1.00  0.00     0.158 HD
ENDBRANCH  13  16
ENDBRANCH   6  10
ENDBRANCH   5   6
ENDBRANCH   1   5
BRANCH   3  19
HETATM   19  C5  UNL     1     -19.887  39.104   1.128  1.00  0.00     0.172 C 
HETATM   20  C6  UNL     1     -19.353  37.817   1.726  1.00  0.00     0.042 C 
BRANCH  19  21
HETATM   21  N3  UNL     1     -18.958  40.185   1.395  1.00  0.00    -0.346 N 
HETATM   22  C7  UNL     1     -19.052  41.012   2.535  1.00  0.00     0.257 C 
HETATM   23  O3  UNL     1     -19.972  40.817   3.361  1.00  0.00    -0.270 OA
ATOM     24  H3  UNL     1     -18.204  40.355   0.730  1.00  0.00     0.163 HD
BRANCH  22  25
HETATM   25  C8  UNL     1     -18.093  42.108   2.785  1.00  0.00     0.317 C 
HETATM   26  O4  UNL     1     -18.613  43.061   3.670  1.00  0.00    -0.279 OA
HETATM   27  C9  UNL     1     -17.650  43.387   4.642  1.00  0.00     0.368 C 
HETATM   28  O5  UNL     1     -17.650  44.337   5.461  1.00  0.00    -0.238 OA
HETATM   29  N4  UNL     1     -16.593  42.430   4.578  1.00  0.00    -0.270 N 
HETATM   30  C10 UNL     1     -16.945  41.512   3.535  1.00  0.00     0.265 C 
ATOM     31  H4  UNL     1     -15.755  42.404   5.159  1.00  0.00     0.174 HD
HETATM   32  O6  UNL     1     -16.415  40.422   3.277  1.00  0.00    -0.270 OA
ENDBRANCH  22  25
ENDBRANCH  19  21
ENDBRANCH   3  19
TORSDOF 9
ENDMDL
MODEL 2
REMARK VINA RESULT: -7.663241643      3.583      9.351
REMARK  9 active torsions:
REMARK  status: ('A' for Active; 'I' for Inactive)
REMARK    1  A    between atoms: O1_2  and  N1_3 
REMARK    2  A    between atoms: N1_3  and  C2_4 
REMARK    3  A    between atoms: C2_4  and  C3_5 
REMARK    4  A    between atoms: C2_4  and  C11_24 
REMARK    5  A    between atoms: C3_5  and  N2_6 
REMARK       I    between atoms: N2_6  and  C4_8 
REMARK    6  A    between atoms: C4_8  and  C5_10 
REMARK    7  A    between atoms: C5_10  and  N3_12 
REMARK       I    between atoms: N3_12  and  C7_14 
REMARK    8  A    between atoms: C7_14  and  C8_16 
REMARK    9  A    between atoms: C13_27  and  N5_28 
ROOT
HETATM    1  N2  UNL     1     -21.215  38.030  -0.375  1.00  0.00    -0.352 N 
ATOM      2  H2  UNL     1     -21.983  38.202   0.274  1.00  0.00     0.162 HD
HETATM    3  C4  UNL     1     -21.482  37.882  -1.749  1.00  0.00     0.240 C 
HETATM    4  O2  UNL     1     -20.530  37.672  -2.534  1.00  0.00    -0.271 OA
ENDROOT
BRANCH   1   5
HETATM    5  C3  UNL     1     -19.882  37.942   0.114  1.00  0.00     0.200 C 
BRANCH   5   6
HETATM    6  C2  UNL     1     -19.313  39.276   0.488  1.00  0.00     0.162 C 
BRANCH   6   7
HETATM    7  N1  UNL     1     -18.955  40.020  -0.387  1.00  0.00    -0.282 NA
BRANCH   7   8
HETATM    8  O1  UNL     1     -18.554  40.848  -1.233  1.00  0.00    -0.214 OA
HETATM    9  C1  UNL     1     -18.148  42.186  -0.915  1.00  0.00     0.255 C 
ENDBRANCH   7   8
ENDBRANCH   6   7
BRANCH   6  10
HETATM   10  C11 UNL     1     -19.231  39.611   1.962  1.00  0.00     0.082 A 
HETATM   11  C12 UNL     1     -19.188  38.640   2.921  1.00  0.00     0.086 A 
HETATM   12  S1  UNL     1     -19.106  39.557   4.358  1.00  0.00    -0.064 SA
HETATM   13  C13 UNL     1     -19.131  41.110   3.662  1.00  0.00     0.142 A 
HETATM   14  N6  UNL     1     -19.201  40.864   2.360  1.00  0.00    -0.334 N 
ATOM     15  H6  UNL     1     -19.233  41.628   1.685  1.00  0.00     0.168 HD
BRANCH  13  16
HETATM   16  N5  UNL     1     -19.089  42.263   4.288  1.00  0.00    -0.380 N 
ATOM     17  H52 UNL     1     -18.672  42.493   5.190  1.00  0.00     0.158 HD
ATOM     18  H51 UNL     1     -19.477  43.151   3.972  1.00  0.00     0.158 HD
ENDBRANCH  13  16
ENDBRANCH   6  10
ENDBRANCH   5   6
ENDBRANCH   1   5
BRANCH   3  19
HETATM   19  C5  UNL     1     -22.858  37.968  -2.296  1.00  0.00     0.172 C 
HETATM   20  C6  UNL     1     -23.781  38.497  -1.215  1.00  0.00     0.042 C 
BRANCH  19  21
HETATM   21  N3  UNL     1     -22.873  38.870  -3.431  1.00  0.00    -0.346 N 
HETATM   22  C7  UNL     1     -23.344  38.488  -4.707  1.00  0.00     0.257 C 
HETATM   23  O3  UNL     1     -23.769  37.324  -4.881  1.00  0.00    -0.270 OA
ATOM     24  H3  UNL     1     -22.529  39.821  -3.302  1.00  0.00     0.163 HD
BRANCH  22  25
HETATM   25  C8  UNL     1     -23.349  39.426  -5.848  1.00  0.00     0.317 C 
HETATM   26  O4  UNL     1     -23.944  38.860  -6.982  1.00  0.00    -0.279 OA
HETATM   27  C9  UNL     1     -24.841  39.777  -7.560  1.00  0.00     0.368 C 
HETATM   28  O5  UNL     1     -25.394  39.732  -8.685  1.00  0.00    -0.238 OA
HETATM   29  N4  UNL     1     -25.062  40.843  -6.638  1.00  0.00    -0.270 N 
HETATM   30  C10 UNL     1     -24.270  40.545  -5.482  1.00  0.00     0.265 C 
ATOM     31  H4  UNL     1     -25.664  41.655  -6.775  1.00  0.00     0.174 HD
HETATM   32  O6  UNL     1     -24.315  41.096  -4.372  1.00  0.00    -0.270 OA
ENDBRANCH  22  25
ENDBRANCH  19  21
ENDBRANCH   3  19
TORSDOF 9
ENDMDL
MODEL 3
REMARK VINA RESULT: -7.652256044      2.290      3.764
REMARK  9 active torsions:
REMARK  status: ('A' for Active; 'I' for Inactive)
REMARK    1  A    between atoms: O1_2  and  N1_3 
REMARK    2  A    between atoms: N1_3  and  C2_4 
REMARK    3  A    between atoms: C2_4  and  C3_5 
REMARK    4  A    between atoms: C2_4  and  C11_24 
REMARK    5  A    between atoms: C3_5  and  N2_6 
REMARK       I    between atoms: N2_6  and  C4_8 
REMARK    6  A    between atoms: C4_8  and  C5_10 
REMARK    7  A    between atoms: C5_10  and  N3_12 
REMARK       I    between atoms: N3_12  and  C7_14 
REMARK    8  A    between atoms: C7_14  and  C8_16 
REMARK    9  A    between atoms: C13_27  and  N5_28 
ROOT
HETATM    1  N2  UNL     1     -22.434  38.275  -2.982  1.00  0.00    -0.352 N 
ATOM      2  H2  UNL     1     -21.667  37.877  -3.525  1.00  0.00     0.162 HD
HETATM    3  C4  UNL     1     -22.517  38.020  -1.601  1.00  0.00     0.240 C 
HETATM    4  O2  UNL     1     -23.464  38.515  -0.948  1.00  0.00    -0.271 OA
ENDROOT
BRANCH   1   5
HETATM    5  C3  UNL     1     -23.411  39.084  -3.627  1.00  0.00     0.200 C 
BRANCH   5   6
HETATM    6  C2  UNL     1     -23.399  38.929  -5.117  1.00  0.00     0.162 C 
BRANCH   6   7
HETATM    7  N1  UNL     1     -22.795  38.007  -5.598  1.00  0.00    -0.282 NA
BRANCH   7   8
HETATM    8  O1  UNL     1     -22.094  37.079  -6.057  1.00  0.00    -0.214 OA
HETATM    9  C1  UNL     1     -20.662  37.050  -5.996  1.00  0.00     0.255 C 
ENDBRANCH   7   8
ENDBRANCH   6   7
BRANCH   6  10
HETATM   10  C11 UNL     1     -24.163  39.951  -5.931  1.00  0.00     0.082 A 
HETATM   11  C12 UNL     1     -24.533  41.158  -5.410  1.00  0.00     0.086 A 
HETATM   12  S1  UNL     1     -25.345  41.884  -6.723  1.00  0.00    -0.064 SA
HETATM   13  C13 UNL     1     -25.169  40.621  -7.851  1.00  0.00     0.142 A 
HETATM   14  N6  UNL     1     -24.498  39.696  -7.176  1.00  0.00    -0.334 N 
ATOM     15  H6  UNL     1     -24.248  38.809  -7.614  1.00  0.00     0.168 HD
BRANCH  13  16
HETATM   16  N5  UNL     1     -25.605  40.593  -9.088  1.00  0.00    -0.380 N 
ATOM     17  H52 UNL     1     -25.247  41.082  -9.909  1.00  0.00     0.158 HD
ATOM     18  H51 UNL     1     -26.396  40.064  -9.452  1.00  0.00     0.158 HD
ENDBRANCH  13  16
ENDBRANCH   6  10
ENDBRANCH   5   6
ENDBRANCH   1   5
BRANCH   3  19
HETATM   19  C5  UNL     1     -21.518  37.182  -0.895  1.00  0.00     0.172 C 
HETATM   20  C6  UNL     1     -20.894  36.222  -1.890  1.00  0.00     0.042 C 
BRANCH  19  21
HETATM   21  N3  UNL     1     -20.488  38.030  -0.328  1.00  0.00    -0.346 N 
HETATM   22  C7  UNL     1     -20.474  38.415   1.031  1.00  0.00     0.257 C 
HETATM   23  O3  UNL     1     -21.383  38.015   1.791  1.00  0.00    -0.270 OA
ATOM     24  H3  UNL     1     -19.741  38.363  -0.937  1.00  0.00     0.163 HD
BRANCH  22  25
HETATM   25  C8  UNL     1     -19.412  39.281   1.585  1.00  0.00     0.317 C 
HETATM   26  O4  UNL     1     -19.944  40.334   2.340  1.00  0.00    -0.279 OA
HETATM   27  C9  UNL     1     -19.240  40.456   3.552  1.00  0.00     0.368 C 
HETATM   28  O5  UNL     1     -19.266  41.393   4.385  1.00  0.00    -0.238 OA
HETATM   29  N4  UNL     1     -18.433  39.293   3.731  1.00  0.00    -0.270 N 
HETATM   30  C10 UNL     1     -18.668  38.461   2.588  1.00  0.00     0.265 C 
ATOM     31  H4  UNL     1     -17.812  39.094   4.516  1.00  0.00     0.174 HD
HETATM   32  O6  UNL     1     -18.328  37.279   2.431  1.00  0.00    -0.270 OA
ENDBRANCH  22  25
ENDBRANCH  19  21
ENDBRANCH   3  19
TORSDOF 9
ENDMDL
MODEL 4
REMARK VINA RESULT: -7.590902436      2.378      3.818
REMARK  9 active torsions:
REMARK  status: ('A' for Active; 'I' for Inactive)
REMARK    1  A    between atoms: O1_2  and  N1_3 
REMARK    2  A    between atoms: N1_3  and  C2_4 
REMARK    3  A    between atoms: C2_4  and  C3_5 
REMARK    4  A    between atoms: C2_4  and  C11_24 
REMARK    5  A    between atoms: C3_5  and  N2_6 
REMARK       I    between atoms: N2_6  and  C4_8 
REMARK    6  A    between atoms: C4_8  and  C5_10 
REMARK    7  A    between atoms: C5_10  and  N3_12 
REMARK       I    between atoms: N3_12  and  C7_14 
REMARK    8  A    between atoms: C7_14  and  C8_16 
REMARK    9  A    between atoms: C13_27  and  N5_28 
ROOT
HETATM    1  N2  UNL     1     -22.530  38.461  -2.866  1.00  0.00    -0.352 N 
ATOM      2  H2  UNL     1     -21.710  38.102  -3.356  1.00  0.00     0.162 HD
HETATM    3  C4  UNL     1     -22.746  38.114  -1.521  1.00  0.00     0.240 C 
HETATM    4  O2  UNL     1     -23.757  38.562  -0.932  1.00  0.00    -0.271 OA
ENDROOT
BRANCH   1   5
HETATM    5  C3  UNL     1     -23.445  39.310  -3.550  1.00  0.00     0.200 C 
BRANCH   5   6
HETATM    6  C2  UNL     1     -23.483  39.053  -5.024  1.00  0.00     0.162 C 
BRANCH   6   7
HETATM    7  N1  UNL     1     -22.925  38.079  -5.457  1.00  0.00    -0.282 NA
BRANCH   7   8
HETATM    8  O1  UNL     1     -22.286  37.075  -5.839  1.00  0.00    -0.214 OA
HETATM    9  C1  UNL     1     -20.867  37.057  -6.043  1.00  0.00     0.255 C 
ENDBRANCH   7   8
ENDBRANCH   6   7
BRANCH   6  10
HETATM   10  C11 UNL     1     -24.237  40.042  -5.886  1.00  0.00     0.082 A 
HETATM   11  C12 UNL     1     -24.654  39.729  -7.148  1.00  0.00     0.086 A 
HETATM   12  S1  UNL     1     -25.424  41.170  -7.642  1.00  0.00    -0.064 SA
HETATM   13  C13 UNL     1     -25.173  42.081  -6.226  1.00  0.00     0.142 A 
HETATM   14  N6  UNL     1     -24.511  41.247  -5.435  1.00  0.00    -0.334 N 
ATOM     15  H6  UNL     1     -24.221  41.533  -4.500  1.00  0.00     0.168 HD
BRANCH  13  16
HETATM   16  N5  UNL     1     -25.554  43.316  -5.998  1.00  0.00    -0.380 N 
ATOM     17  H52 UNL     1     -25.719  43.786  -5.107  1.00  0.00     0.158 HD
ATOM     18  H51 UNL     1     -25.754  44.038  -6.689  1.00  0.00     0.158 HD
ENDBRANCH  13  16
ENDBRANCH   6  10
ENDBRANCH   5   6
ENDBRANCH   1   5
BRANCH   3  19
HETATM   19  C5  UNL     1     -21.815  37.231  -0.776  1.00  0.00     0.172 C 
HETATM   20  C6  UNL     1     -21.265  36.187  -1.729  1.00  0.00     0.042 C 
BRANCH  19  21
HETATM   21  N3  UNL     1     -20.724  38.021  -0.240  1.00  0.00    -0.346 N 
HETATM   22  C7  UNL     1     -20.692  38.478   1.096  1.00  0.00     0.257 C 
HETATM   23  O3  UNL     1     -21.641  38.198   1.863  1.00  0.00    -0.270 OA
ATOM     24  H3  UNL     1     -19.945  38.256  -0.854  1.00  0.00     0.163 HD
BRANCH  22  25
HETATM   25  C8  UNL     1     -19.569  39.282   1.619  1.00  0.00     0.317 C 
HETATM   26  O4  UNL     1     -20.013  40.310   2.459  1.00  0.00    -0.279 OA
HETATM   27  C9  UNL     1     -19.228  40.349   3.625  1.00  0.00     0.368 C 
HETATM   28  O5  UNL     1     -19.168  41.243   4.502  1.00  0.00    -0.238 OA
HETATM   29  N4  UNL     1     -18.451  39.155   3.693  1.00  0.00    -0.270 N 
HETATM   30  C10 UNL     1     -18.788  38.389   2.530  1.00  0.00     0.265 C 
ATOM     31  H4  UNL     1     -17.788  38.897   4.424  1.00  0.00     0.174 HD
HETATM   32  O6  UNL     1     -18.500  37.207   2.293  1.00  0.00    -0.270 OA
ENDBRANCH  22  25
ENDBRANCH  19  21
ENDBRANCH   3  19
TORSDOF 9
ENDMDL
MODEL 5
REMARK VINA RESULT: -7.554108858      4.197      9.426
REMARK  9 active torsions:
REMARK  status: ('A' for Active; 'I' for Inactive)
REMARK    1  A    between atoms: O1_2  and  N1_3 
REMARK    2  A    between atoms: N1_3  and  C2_4 
REMARK    3  A    between atoms: C2_4  and  C3_5 
REMARK    4  A    between atoms: C2_4  and  C11_24 
REMARK    5  A    between atoms: C3_5  and  N2_6 
REMARK       I    between atoms: N2_6  and  C4_8 
REMARK    6  A    between atoms: C4_8  and  C5_10 
REMARK    7  A    between atoms: C5_10  and  N3_12 
REMARK       I    between atoms: N3_12  and  C7_14 
REMARK    8  A    between atoms: C7_14  and  C8_16 
REMARK    9  A    between atoms: C13_27  and  N5_28 
ROOT
HETATM    1  N2  UNL     1     -20.394  36.070  -1.568  1.00  0.00    -0.352 N 
ATOM      2  H2  UNL     1     -21.017  35.888  -0.781  1.00  0.00     0.162 HD
HETATM    3  C4  UNL     1     -20.860  36.816  -2.667  1.00  0.00     0.240 C 
HETATM    4  O2  UNL     1     -20.085  37.031  -3.627  1.00  0.00    -0.271 OA
ENDROOT
BRANCH   1   5
HETATM    5  C3  UNL     1     -19.063  35.568  -1.548  1.00  0.00     0.200 C 
BRANCH   5   6
HETATM    6  C2  UNL     1     -18.219  36.209  -0.490  1.00  0.00     0.162 C 
BRANCH   6   7
HETATM    7  N1  UNL     1     -18.322  37.393  -0.305  1.00  0.00    -0.282 NA
BRANCH   7   8
HETATM    8  O1  UNL     1     -18.493  38.625  -0.176  1.00  0.00    -0.214 OA
HETATM    9  C1  UNL     1     -19.628  39.213   0.474  1.00  0.00     0.255 C 
ENDBRANCH   7   8
ENDBRANCH   6   7
BRANCH   6  10
HETATM   10  C11 UNL     1     -17.285  35.313   0.294  1.00  0.00     0.082 A 
HETATM   11  C12 UNL     1     -15.957  35.214  -0.009  1.00  0.00     0.086 A 
HETATM   12  S1  UNL     1     -15.403  34.098   1.157  1.00  0.00    -0.064 SA
HETATM   13  C13 UNL     1     -16.880  33.824   1.958  1.00  0.00     0.142 A 
HETATM   14  N6  UNL     1     -17.736  34.596   1.300  1.00  0.00    -0.334 N 
ATOM     15  H6  UNL     1     -18.719  34.632   1.567  1.00  0.00     0.168 HD
BRANCH  13  16
HETATM   16  N5  UNL     1     -17.095  33.031   2.980  1.00  0.00    -0.380 N 
ATOM     17  H52 UNL     1     -16.872  32.041   3.088  1.00  0.00     0.158 HD
ATOM     18  H51 UNL     1     -17.532  33.273   3.869  1.00  0.00     0.158 HD
ENDBRANCH  13  16
ENDBRANCH   6  10
ENDBRANCH   5   6
ENDBRANCH   1   5
BRANCH   3  19
HETATM   19  C5  UNL     1     -22.241  37.355  -2.724  1.00  0.00     0.172 C 
HETATM   20  C6  UNL     1     -22.573  37.987  -1.386  1.00  0.00     0.042 C 
BRANCH  19  21
HETATM   21  N3  UNL     1     -22.327  38.356  -3.769  1.00  0.00    -0.346 N 
HETATM   22  C7  UNL     1     -23.132  38.198  -4.918  1.00  0.00     0.257 C 
HETATM   23  O3  UNL     1     -23.805  37.152  -5.056  1.00  0.00    -0.270 OA
ATOM     24  H3  UNL     1     -21.783  39.213  -3.669  1.00  0.00     0.163 HD
BRANCH  22  25
HETATM   25  C8  UNL     1     -23.203  39.233  -5.969  1.00  0.00     0.317 C 
HETATM   26  O4  UNL     1     -23.830  38.755  -7.127  1.00  0.00    -0.279 OA
HETATM   27  C9  UNL     1     -24.769  39.696  -7.586  1.00  0.00     0.368 C 
HETATM   28  O5  UNL     1     -25.364  39.738  -8.689  1.00  0.00    -0.238 OA
HETATM   29  N4  UNL     1     -24.978  40.669  -6.564  1.00  0.00    -0.270 N 
HETATM   30  C10 UNL     1     -24.134  40.290  -5.469  1.00  0.00     0.265 C 
ATOM     31  H4  UNL     1     -25.604  41.474  -6.604  1.00  0.00     0.174 HD
HETATM   32  O6  UNL     1     -24.149  40.738  -4.313  1.00  0.00    -0.270 OA
ENDBRANCH  22  25
ENDBRANCH  19  21
ENDBRANCH   3  19
TORSDOF 9
ENDMDL
