MODEL 1
REMARK VINA RESULT: -7.183335653      0.000      0.000
REMARK  10 active torsions:
REMARK  status: ('A' for Active; 'I' for Inactive)
REMARK    1  A    between atoms: N1_1  and  C1_4 
REMARK    2  A    between atoms: C2_7  and  N3_8 
REMARK    3  A    between atoms: N4_11  and  C5_12 
REMARK    4  A    between atoms: C5_12  and  C6_13 
REMARK    5  A    between atoms: C6_13  and  O1_14 
REMARK    6  A    between atoms: C9_20  and  N6_21 
REMARK    7  A    between atoms: C14_29  and  S1_30 
REMARK    8  A    between atoms: S1_30  and  C15_31 
REMARK    9  A    between atoms: C15_31  and  C16_32 
REMARK   10  A    between atoms: C16_32  and  N8_33 
ROOT
HETATM    1  C1  UNL     1     -21.290  38.435   0.617  1.00  0.00     0.135 A 
HETATM    2  N2  UNL     1     -20.240  39.276   0.744  1.00  0.00    -0.176 N 
ATOM      3  H2  UNL     1     -19.957  39.563   1.681  1.00  0.00     0.186 HD
HETATM    4  C2  UNL     1     -19.544  39.756  -0.319  1.00  0.00     0.683 A 
HETATM    5  N5  UNL     1     -19.952  39.354  -1.538  1.00  0.00    -0.175 N 
ATOM      6  H5  UNL     1     -19.451  39.699  -2.357  1.00  0.00     0.186 HD
HETATM    7  C9  UNL     1     -20.989  38.519  -1.726  1.00  0.00     0.140 A 
HETATM    8  C14 UNL     1     -21.688  38.036  -0.634  1.00  0.00     0.089 A 
ENDROOT
BRANCH   4   9
HETATM    9  N3  UNL     1     -18.458  40.650  -0.142  1.00  0.00    -0.211 N 
HETATM   10  C3  UNL     1     -17.383  40.333   0.763  1.00  0.00     0.186 C 
HETATM   11  C4  UNL     1     -16.779  41.603   1.330  1.00  0.00     0.083 C 
HETATM   12  N4  UNL     1     -17.687  42.670   1.351  1.00  0.00    -0.369 N 
HETATM   13  C7  UNL     1     -18.440  42.999   0.222  1.00  0.00     0.147 C 
HETATM   14  C8  UNL     1     -18.387  41.899  -0.857  1.00  0.00     0.161 C 
BRANCH  12  15
HETATM   15  C5  UNL     1     -18.067  43.151   2.616  1.00  0.00     0.089 C 
BRANCH  15  16
HETATM   16  C6  UNL     1     -18.667  42.122   3.541  1.00  0.00     0.208 C 
BRANCH  16  17
HETATM   17  O1  UNL     1     -19.840  41.595   2.971  1.00  0.00    -0.396 OA
ATOM     18  H1  UNL     1     -20.452  41.357   3.657  1.00  0.00     0.209 HD
ENDBRANCH  16  17
ENDBRANCH  15  16
ENDBRANCH  12  15
ENDBRANCH   4   9
BRANCH   1  19
HETATM   19  N1  UNL     1     -21.904  38.035   1.708  1.00  0.00    -0.384 N 
ATOM     20  H12 UNL     1     -21.778  38.504   2.606  1.00  0.00     0.157 HD
ATOM     21  H11 UNL     1     -22.518  37.223   1.647  1.00  0.00     0.157 HD
ENDBRANCH   1  19
BRANCH   7  22
HETATM   22  N6  UNL     1     -21.450  38.083  -2.996  1.00  0.00    -0.362 N 
HETATM   23  C10 UNL     1     -20.872  36.991  -3.736  1.00  0.00     0.152 C 
HETATM   24  C11 UNL     1     -22.011  36.133  -4.280  1.00  0.00     0.252 C 
HETATM   25  N7  UNL     1     -22.824  36.887  -5.204  1.00  0.00    -0.072 N 
HETATM   26  C12 UNL     1     -22.630  38.319  -5.081  1.00  0.00     0.252 C 
ATOM     27  H72 UNL     1     -22.668  36.577  -6.163  1.00  0.00     0.277 HD
ATOM     28  H71 UNL     1     -23.809  36.641  -5.108  1.00  0.00     0.277 HD
HETATM   29  C13 UNL     1     -22.595  38.751  -3.629  1.00  0.00     0.152 C 
ENDBRANCH   7  22
BRANCH   8  30
HETATM   30  S1  UNL     1     -23.040  36.936  -0.846  1.00  0.00    -0.121 SA
BRANCH  30  31
HETATM   31  C15 UNL     1     -24.633  37.716  -1.042  1.00  0.00     0.107 C 
BRANCH  31  32
HETATM   32  C16 UNL     1     -25.690  37.252  -0.070  1.00  0.00     0.240 C 
BRANCH  32  33
HETATM   33  N8  UNL     1     -25.091  36.893   1.213  1.00  0.00    -0.079 N 
ATOM     34  H83 UNL     1     -25.752  36.398   1.813  1.00  0.00     0.274 HD
ATOM     35  H82 UNL     1     -24.393  36.157   1.112  1.00  0.00     0.274 HD
ATOM     36  H81 UNL     1     -24.706  37.717   1.675  1.00  0.00     0.274 HD
ENDBRANCH  32  33
ENDBRANCH  31  32
ENDBRANCH  30  31
ENDBRANCH   8  30
TORSDOF 10
ENDMDL
MODEL 2
REMARK VINA RESULT: -7.067273897      1.245      1.381
REMARK  10 active torsions:
REMARK  status: ('A' for Active; 'I' for Inactive)
REMARK    1  A    between atoms: N1_1  and  C1_4 
REMARK    2  A    between atoms: C2_7  and  N3_8 
REMARK    3  A    between atoms: N4_11  and  C5_12 
REMARK    4  A    between atoms: C5_12  and  C6_13 
REMARK    5  A    between atoms: C6_13  and  O1_14 
REMARK    6  A    between atoms: C9_20  and  N6_21 
REMARK    7  A    between atoms: C14_29  and  S1_30 
REMARK    8  A    between atoms: S1_30  and  C15_31 
REMARK    9  A    between atoms: C15_31  and  C16_32 
REMARK   10  A    between atoms: C16_32  and  N8_33 
ROOT
HETATM    1  C1  UNL     1     -21.831  37.722   0.558  1.00  0.00     0.135 A 
HETATM    2  N2  UNL     1     -20.789  38.512   0.899  1.00  0.00    -0.176 N 
ATOM      3  H2  UNL     1     -20.588  38.653   1.889  1.00  0.00     0.186 HD
HETATM    4  C2  UNL     1     -19.998  39.129  -0.017  1.00  0.00     0.683 A 
HETATM    5  N5  UNL     1     -20.299  38.919  -1.313  1.00  0.00    -0.175 N 
ATOM      6  H5  UNL     1     -19.724  39.369  -2.025  1.00  0.00     0.186 HD
HETATM    7  C9  UNL     1     -21.321  38.143  -1.711  1.00  0.00     0.140 A 
HETATM    8  C14 UNL     1     -22.119  37.520  -0.768  1.00  0.00     0.089 A 
ENDROOT
BRANCH   4   9
HETATM    9  N3  UNL     1     -18.925  39.963   0.385  1.00  0.00    -0.211 N 
HETATM   10  C3  UNL     1     -17.607  39.421   0.593  1.00  0.00     0.186 C 
HETATM   11  C4  UNL     1     -16.863  40.227   1.641  1.00  0.00     0.083 C 
HETATM   12  N4  UNL     1     -17.726  40.868   2.540  1.00  0.00    -0.369 N 
HETATM   13  C7  UNL     1     -18.814  41.618   2.089  1.00  0.00     0.147 C 
HETATM   14  C8  UNL     1     -19.109  41.378   0.595  1.00  0.00     0.161 C 
BRANCH  12  15
HETATM   15  C5  UNL     1     -17.670  40.442   3.880  1.00  0.00     0.089 C 
BRANCH  15  16
HETATM   16  C6  UNL     1     -18.926  39.788   4.398  1.00  0.00     0.208 C 
BRANCH  16  17
HETATM   17  O1  UNL     1     -19.173  38.600   3.687  1.00  0.00    -0.396 OA
ATOM     18  H1  UNL     1     -19.434  38.806   2.798  1.00  0.00     0.209 HD
ENDBRANCH  16  17
ENDBRANCH  15  16
ENDBRANCH  12  15
ENDBRANCH   4   9
BRANCH   1  19
HETATM   19  N1  UNL     1     -22.542  37.179   1.521  1.00  0.00    -0.384 N 
ATOM     20  H12 UNL     1     -22.650  37.622   2.434  1.00  0.00     0.157 HD
ATOM     21  H11 UNL     1     -22.993  36.281   1.342  1.00  0.00     0.157 HD
ENDBRANCH   1  19
BRANCH   7  22
HETATM   22  N6  UNL     1     -21.671  37.907  -3.067  1.00  0.00    -0.362 N 
HETATM   23  C10 UNL     1     -21.032  36.932  -3.910  1.00  0.00     0.152 C 
HETATM   24  C11 UNL     1     -22.120  36.179  -4.672  1.00  0.00     0.252 C 
HETATM   25  N7  UNL     1     -22.850  37.073  -5.538  1.00  0.00    -0.072 N 
HETATM   26  C12 UNL     1     -22.667  38.469  -5.186  1.00  0.00     0.252 C 
ATOM     27  H72 UNL     1     -22.612  36.909  -6.517  1.00  0.00     0.277 HD
ATOM     28  H71 UNL     1     -23.840  36.829  -5.565  1.00  0.00     0.277 HD
HETATM   29  C13 UNL     1     -22.757  38.677  -3.688  1.00  0.00     0.152 C 
ENDBRANCH   7  22
BRANCH   8  30
HETATM   30  S1  UNL     1     -23.456  36.491  -1.257  1.00  0.00    -0.121 SA
BRANCH  30  31
HETATM   31  C15 UNL     1     -25.031  37.314  -1.416  1.00  0.00     0.107 C 
BRANCH  31  32
HETATM   32  C16 UNL     1     -25.683  37.694  -0.110  1.00  0.00     0.240 C 
BRANCH  32  33
HETATM   33  N8  UNL     1     -25.844  36.522   0.748  1.00  0.00    -0.079 N 
ATOM     34  H83 UNL     1     -26.040  35.681   0.205  1.00  0.00     0.274 HD
ATOM     35  H82 UNL     1     -24.958  36.234   1.164  1.00  0.00     0.274 HD
ATOM     36  H81 UNL     1     -26.557  36.689   1.458  1.00  0.00     0.274 HD
ENDBRANCH  32  33
ENDBRANCH  31  32
ENDBRANCH  30  31
ENDBRANCH   8  30
TORSDOF 10
ENDMDL
MODEL 3
REMARK VINA RESULT: -7.054559426      2.845      7.267
REMARK  10 active torsions:
REMARK  status: ('A' for Active; 'I' for Inactive)
REMARK    1  A    between atoms: N1_1  and  C1_4 
REMARK    2  A    between atoms: C2_7  and  N3_8 
REMARK    3  A    between atoms: N4_11  and  C5_12 
REMARK    4  A    between atoms: C5_12  and  C6_13 
REMARK    5  A    between atoms: C6_13  and  O1_14 
REMARK    6  A    between atoms: C9_20  and  N6_21 
REMARK    7  A    between atoms: C14_29  and  S1_30 
REMARK    8  A    between atoms: S1_30  and  C15_31 
REMARK    9  A    between atoms: C15_31  and  C16_32 
REMARK   10  A    between atoms: C16_32  and  N8_33 
ROOT
HETATM    1  C1  UNL     1     -18.375  37.428   1.198  1.00  0.00     0.135 A 
HETATM    2  N2  UNL     1     -19.345  37.084   0.322  1.00  0.00    -0.176 N 
ATOM      3  H2  UNL     1     -19.686  36.123   0.326  1.00  0.00     0.186 HD
HETATM    4  C2  UNL     1     -19.886  37.961  -0.564  1.00  0.00     0.683 A 
HETATM    5  N5  UNL     1     -19.405  39.219  -0.537  1.00  0.00    -0.175 N 
ATOM      6  H5  UNL     1     -19.791  39.900  -1.192  1.00  0.00     0.186 HD
HETATM    7  C9  UNL     1     -18.443  39.618   0.311  1.00  0.00     0.140 A 
HETATM    8  C14 UNL     1     -17.902  38.716   1.210  1.00  0.00     0.089 A 
ENDROOT
BRANCH   4   9
HETATM    9  N3  UNL     1     -20.891  37.554  -1.477  1.00  0.00    -0.211 N 
HETATM   10  C3  UNL     1     -21.494  38.501  -2.379  1.00  0.00     0.186 C 
HETATM   11  C4  UNL     1     -22.919  38.091  -2.700  1.00  0.00     0.083 C 
HETATM   12  N4  UNL     1     -23.499  37.319  -1.685  1.00  0.00    -0.369 N 
HETATM   13  C7  UNL     1     -22.831  36.221  -1.140  1.00  0.00     0.147 C 
HETATM   14  C8  UNL     1     -21.342  36.186  -1.540  1.00  0.00     0.161 C 
BRANCH  12  15
HETATM   15  C5  UNL     1     -24.589  37.889  -1.003  1.00  0.00     0.089 C 
BRANCH  15  16
HETATM   16  C6  UNL     1     -25.451  36.915  -0.240  1.00  0.00     0.208 C 
BRANCH  16  17
HETATM   17  O1  UNL     1     -25.335  37.158   1.140  1.00  0.00    -0.396 OA
ATOM     18  H1  UNL     1     -24.849  36.453   1.551  1.00  0.00     0.209 HD
ENDBRANCH  16  17
ENDBRANCH  15  16
ENDBRANCH  12  15
ENDBRANCH   4   9
BRANCH   1  19
HETATM   19  N1  UNL     1     -17.910  36.503   2.007  1.00  0.00    -0.384 N 
ATOM     20  H12 UNL     1     -18.415  35.635   2.189  1.00  0.00     0.157 HD
ATOM     21  H11 UNL     1     -17.017  36.671   2.472  1.00  0.00     0.157 HD
ENDBRANCH   1  19
BRANCH   7  22
HETATM   22  N6  UNL     1     -17.909  40.933   0.360  1.00  0.00    -0.362 N 
HETATM   23  C10 UNL     1     -16.672  41.328  -0.262  1.00  0.00     0.152 C 
HETATM   24  C11 UNL     1     -16.904  42.658  -0.974  1.00  0.00     0.252 C 
HETATM   25  N7  UNL     1     -17.249  43.691  -0.027  1.00  0.00    -0.072 N 
HETATM   26  C12 UNL     1     -17.683  43.158   1.251  1.00  0.00     0.252 C 
ATOM     27  H72 UNL     1     -16.478  44.348   0.094  1.00  0.00     0.277 HD
ATOM     28  H71 UNL     1     -17.948  44.325  -0.416  1.00  0.00     0.277 HD
HETATM   29  C13 UNL     1     -18.635  41.994   1.070  1.00  0.00     0.152 C 
ENDBRANCH   7  22
BRANCH   8  30
HETATM   30  S1  UNL     1     -16.650  39.210   2.339  1.00  0.00    -0.121 SA
BRANCH  30  31
HETATM   31  C15 UNL     1     -17.235  40.018   3.818  1.00  0.00     0.107 C 
BRANCH  31  32
HETATM   32  C16 UNL     1     -16.153  40.598   4.695  1.00  0.00     0.240 C 
BRANCH  32  33
HETATM   33  N8  UNL     1     -15.845  41.969   4.297  1.00  0.00    -0.079 N 
ATOM     34  H83 UNL     1     -16.519  42.327   3.621  1.00  0.00     0.274 HD
ATOM     35  H82 UNL     1     -16.019  42.631   5.054  1.00  0.00     0.274 HD
ATOM     36  H81 UNL     1     -14.888  42.039   3.949  1.00  0.00     0.274 HD
ENDBRANCH  32  33
ENDBRANCH  31  32
ENDBRANCH  30  31
ENDBRANCH   8  30
TORSDOF 10
ENDMDL
MODEL 4
REMARK VINA RESULT: -7.050433210      2.714      7.046
REMARK  10 active torsions:
REMARK  status: ('A' for Active; 'I' for Inactive)
REMARK    1  A    between atoms: N1_1  and  C1_4 
REMARK    2  A    between atoms: C2_7  and  N3_8 
REMARK    3  A    between atoms: N4_11  and  C5_12 
REMARK    4  A    between atoms: C5_12  and  C6_13 
REMARK    5  A    between atoms: C6_13  and  O1_14 
REMARK    6  A    between atoms: C9_20  and  N6_21 
REMARK    7  A    between atoms: C14_29  and  S1_30 
REMARK    8  A    between atoms: S1_30  and  C15_31 
REMARK    9  A    between atoms: C15_31  and  C16_32 
REMARK   10  A    between atoms: C16_32  and  N8_33 
ROOT
HETATM    1  C1  UNL     1     -18.518  37.739   1.156  1.00  0.00     0.135 A 
HETATM    2  N2  UNL     1     -19.475  37.312   0.302  1.00  0.00    -0.176 N 
ATOM      3  H2  UNL     1     -19.801  36.349   0.378  1.00  0.00     0.186 HD
HETATM    4  C2  UNL     1     -20.020  38.108  -0.653  1.00  0.00     0.683 A 
HETATM    5  N5  UNL     1     -19.560  39.372  -0.721  1.00  0.00    -0.175 N 
ATOM      6  H5  UNL     1     -19.949  39.994  -1.430  1.00  0.00     0.186 HD
HETATM    7  C9  UNL     1     -18.612  39.852   0.102  1.00  0.00     0.140 A 
HETATM    8  C14 UNL     1     -18.065  39.030   1.072  1.00  0.00     0.089 A 
ENDROOT
BRANCH   4   9
HETATM    9  N3  UNL     1     -21.010  37.616  -1.541  1.00  0.00    -0.211 N 
HETATM   10  C3  UNL     1     -21.650  38.490  -2.490  1.00  0.00     0.186 C 
HETATM   11  C4  UNL     1     -23.058  38.010  -2.785  1.00  0.00     0.083 C 
HETATM   12  N4  UNL     1     -23.608  37.273  -1.728  1.00  0.00    -0.369 N 
HETATM   13  C7  UNL     1     -22.899  36.232  -1.126  1.00  0.00     0.147 C 
HETATM   14  C8  UNL     1     -21.410  36.231  -1.528  1.00  0.00     0.161 C 
BRANCH  12  15
HETATM   15  C5  UNL     1     -24.718  37.838  -1.075  1.00  0.00     0.089 C 
BRANCH  15  16
HETATM   16  C6  UNL     1     -25.481  36.900  -0.175  1.00  0.00     0.208 C 
BRANCH  16  17
HETATM   17  O1  UNL     1     -25.196  37.193   1.171  1.00  0.00    -0.396 OA
ATOM     18  H1  UNL     1     -25.638  37.993   1.426  1.00  0.00     0.209 HD
ENDBRANCH  16  17
ENDBRANCH  15  16
ENDBRANCH  12  15
ENDBRANCH   4   9
BRANCH   1  19
HETATM   19  N1  UNL     1     -18.047  36.887   2.039  1.00  0.00    -0.384 N 
ATOM     20  H12 UNL     1     -18.640  36.451   2.746  1.00  0.00     0.157 HD
ATOM     21  H11 UNL     1     -17.051  36.666   2.015  1.00  0.00     0.157 HD
ENDBRANCH   1  19
BRANCH   7  22
HETATM   22  N6  UNL     1     -18.098  41.174   0.052  1.00  0.00    -0.362 N 
HETATM   23  C10 UNL     1     -18.771  42.326   0.594  1.00  0.00     0.152 C 
HETATM   24  C11 UNL     1     -17.745  43.158   1.359  1.00  0.00     0.252 C 
HETATM   25  N7  UNL     1     -16.720  43.648   0.469  1.00  0.00    -0.072 N 
HETATM   26  C12 UNL     1     -16.676  42.926  -0.788  1.00  0.00     0.252 C 
ATOM     27  H72 UNL     1     -16.822  44.651   0.312  1.00  0.00     0.277 HD
ATOM     28  H71 UNL     1     -15.808  43.644   0.926  1.00  0.00     0.277 HD
HETATM   29  C13 UNL     1     -16.793  41.432  -0.572  1.00  0.00     0.152 C 
ENDBRANCH   7  22
BRANCH   8  30
HETATM   30  S1  UNL     1     -16.832  39.631   2.169  1.00  0.00    -0.121 SA
BRANCH  30  31
HETATM   31  C15 UNL     1     -17.412  40.076   3.797  1.00  0.00     0.107 C 
BRANCH  31  32
HETATM   32  C16 UNL     1     -18.855  40.511   3.859  1.00  0.00     0.240 C 
BRANCH  32  33
HETATM   33  N8  UNL     1     -18.979  41.798   4.538  1.00  0.00    -0.079 N 
ATOM     34  H83 UNL     1     -18.303  41.892   5.296  1.00  0.00     0.274 HD
ATOM     35  H82 UNL     1     -18.660  42.568   3.950  1.00  0.00     0.274 HD
ATOM     36  H81 UNL     1     -19.935  41.944   4.865  1.00  0.00     0.274 HD
ENDBRANCH  32  33
ENDBRANCH  31  32
ENDBRANCH  30  31
ENDBRANCH   8  30
TORSDOF 10
ENDMDL
MODEL 5
REMARK VINA RESULT: -7.002357174      1.293      1.330
REMARK  10 active torsions:
REMARK  status: ('A' for Active; 'I' for Inactive)
REMARK    1  A    between atoms: N1_1  and  C1_4 
REMARK    2  A    between atoms: C2_7  and  N3_8 
REMARK    3  A    between atoms: N4_11  and  C5_12 
REMARK    4  A    between atoms: C5_12  and  C6_13 
REMARK    5  A    between atoms: C6_13  and  O1_14 
REMARK    6  A    between atoms: C9_20  and  N6_21 
REMARK    7  A    between atoms: C14_29  and  S1_30 
REMARK    8  A    between atoms: S1_30  and  C15_31 
REMARK    9  A    between atoms: C15_31  and  C16_32 
REMARK   10  A    between atoms: C16_32  and  N8_33 
ROOT
HETATM    1  C1  UNL     1     -21.044  38.864   1.342  1.00  0.00     0.135 A 
HETATM    2  N2  UNL     1     -19.973  39.683   1.437  1.00  0.00    -0.176 N 
ATOM      3  H2  UNL     1     -19.762  40.105   2.340  1.00  0.00     0.186 HD
HETATM    4  C2  UNL     1     -19.166  39.968   0.383  1.00  0.00     0.683 A 
HETATM    5  N5  UNL     1     -19.482  39.390  -0.793  1.00  0.00    -0.175 N 
ATOM      6  H5  UNL     1     -18.895  39.587  -1.604  1.00  0.00     0.186 HD
HETATM    7  C9  UNL     1     -20.533  38.568  -0.947  1.00  0.00     0.140 A 
HETATM    8  C14 UNL     1     -21.347  38.285   0.136  1.00  0.00     0.089 A 
ENDROOT
BRANCH   4   9
HETATM    9  N3  UNL     1     -18.061  40.845   0.521  1.00  0.00    -0.211 N 
HETATM   10  C3  UNL     1     -16.769  40.347   0.915  1.00  0.00     0.186 C 
HETATM   11  C4  UNL     1     -15.998  41.413   1.669  1.00  0.00     0.083 C 
HETATM   12  N4  UNL     1     -16.838  42.336   2.306  1.00  0.00    -0.369 N 
HETATM   13  C7  UNL     1     -17.891  42.946   1.622  1.00  0.00     0.147 C 
HETATM   14  C8  UNL     1     -18.188  42.260   0.274  1.00  0.00     0.161 C 
BRANCH  12  15
HETATM   15  C5  UNL     1     -16.808  42.351   3.712  1.00  0.00     0.089 C 
BRANCH  15  16
HETATM   16  C6  UNL     1     -17.919  43.129   4.370  1.00  0.00     0.208 C 
BRANCH  16  17
HETATM   17  O1  UNL     1     -17.375  44.129   5.197  1.00  0.00    -0.396 OA
ATOM     18  H1  UNL     1     -18.075  44.636   5.590  1.00  0.00     0.209 HD
ENDBRANCH  16  17
ENDBRANCH  15  16
ENDBRANCH  12  15
ENDBRANCH   4   9
BRANCH   1  19
HETATM   19  N1  UNL     1     -21.770  38.660   2.419  1.00  0.00    -0.384 N 
ATOM     20  H12 UNL     1     -21.355  38.389   3.311  1.00  0.00     0.157 HD
ATOM     21  H11 UNL     1     -22.782  38.771   2.349  1.00  0.00     0.157 HD
ENDBRANCH   1  19
BRANCH   7  22
HETATM   22  N6  UNL     1     -20.899  37.951  -2.171  1.00  0.00    -0.362 N 
HETATM   23  C10 UNL     1     -20.533  36.609  -2.543  1.00  0.00     0.152 C 
HETATM   24  C11 UNL     1     -21.766  35.926  -3.129  1.00  0.00     0.252 C 
HETATM   25  N7  UNL     1     -22.197  36.595  -4.333  1.00  0.00    -0.072 N 
HETATM   26  C12 UNL     1     -21.645  37.931  -4.461  1.00  0.00     0.252 C 
ATOM     27  H72 UNL     1     -21.988  36.033  -5.158  1.00  0.00     0.277 HD
ATOM     28  H71 UNL     1     -23.215  36.612  -4.397  1.00  0.00     0.277 HD
HETATM   29  C13 UNL     1     -21.713  38.685  -3.149  1.00  0.00     0.152 C 
ENDBRANCH   7  22
BRANCH   8  30
HETATM   30  S1  UNL     1     -22.723  37.205  -0.030  1.00  0.00    -0.121 SA
BRANCH  30  31
HETATM   31  C15 UNL     1     -24.214  37.963  -0.654  1.00  0.00     0.107 C 
BRANCH  31  32
HETATM   32  C16 UNL     1     -25.435  37.078  -0.621  1.00  0.00     0.240 C 
BRANCH  32  33
HETATM   33  N8  UNL     1     -25.738  36.664   0.746  1.00  0.00    -0.079 N 
ATOM     34  H83 UNL     1     -25.273  35.789   0.987  1.00  0.00     0.274 HD
ATOM     35  H82 UNL     1     -25.290  37.271   1.433  1.00  0.00     0.274 HD
ATOM     36  H81 UNL     1     -26.746  36.608   0.893  1.00  0.00     0.274 HD
ENDBRANCH  32  33
ENDBRANCH  31  32
ENDBRANCH  30  31
ENDBRANCH   8  30
TORSDOF 10
ENDMDL
