MODEL 1
REMARK VINA RESULT: -9.120520130      0.000      0.000
REMARK  9 active torsions:
REMARK  status: ('A' for Active; 'I' for Inactive)
REMARK    1  A    between atoms: O1_2  and  N1_3 
REMARK       I    between atoms: N1_3  and  C2_5 
REMARK    2  A    between atoms: C2_5  and  C3_7 
REMARK    3  A    between atoms: C6_10  and  C7_11 
REMARK       I    between atoms: C7_11  and  N2_13 
REMARK    4  A    between atoms: N2_13  and  S1_14 
REMARK    5  A    between atoms: S1_14  and  O6_17 
REMARK    6  A    between atoms: O6_17  and  C8_18 
REMARK    7  A    between atoms: C8_18  and  C9_19 
REMARK    8  A    between atoms: C11_21  and  N3_22 
REMARK    9  A    between atoms: N3_22  and  N4_24 
ROOT
HETATM    1  S1  UNL     1     -23.414  38.269  -2.637  1.00  0.00     0.434 S 
HETATM    2  O4  UNL     1     -24.087  39.063  -1.565  1.00  0.00    -0.163 OA
HETATM    3  O5  UNL     1     -24.322  36.890  -2.634  1.00  0.00    -0.163 OA
ENDROOT
BRANCH   1   4
HETATM    4  N2  UNL     1     -21.887  37.714  -2.326  1.00  0.00    -0.254 NA
HETATM    5  C7  UNL     1     -20.621  37.246  -2.080  1.00  0.00     0.362 C 
HETATM    6  O3  UNL     1     -19.653  36.763  -2.121  1.00  0.00    -0.248 OA
BRANCH   5   7
HETATM    7  C6  UNL     1     -20.436  38.030  -0.576  1.00  0.00     0.159 A 
HETATM    8  C5  UNL     1     -19.790  39.226  -0.650  1.00  0.00     0.047 A 
HETATM    9  C4  UNL     1     -19.817  39.630   0.692  1.00  0.00     0.046 A 
HETATM   10  C3  UNL     1     -20.437  38.660   1.387  1.00  0.00     0.146 A 
HETATM   11  O8  UNL     1     -20.807  37.674   0.542  1.00  0.00    -0.298 OA
BRANCH  10  12
HETATM   12  C2  UNL     1     -20.597  38.805   2.856  1.00  0.00     0.298 C 
HETATM   13  N1  UNL     1     -19.382  38.853   3.531  1.00  0.00    -0.230 N 
ATOM     14  H1  UNL     1     -18.558  38.713   2.944  1.00  0.00     0.198 HD
HETATM   15  O2  UNL     1     -21.758  38.887   3.362  1.00  0.00    -0.263 OA
BRANCH  13  16
HETATM   16  O1  UNL     1     -19.121  39.052   4.827  1.00  0.00    -0.282 OA
HETATM   17  C1  UNL     1     -18.798  40.461   4.872  1.00  0.00     0.237 C 
ENDBRANCH  13  16
ENDBRANCH  10  12
ENDBRANCH   5   7
ENDBRANCH   1   4
BRANCH   1  18
HETATM   18  O6  UNL     1     -23.579  38.894  -4.077  1.00  0.00    -0.242 OA
BRANCH  18  19
HETATM   19  C8  UNL     1     -23.115  38.529  -5.299  1.00  0.00     0.258 C 
BRANCH  19  20
HETATM   20  C9  UNL     1     -24.016  39.520  -6.072  1.00  0.00     0.085 A 
HETATM   21  C10 UNL     1     -24.253  40.685  -5.439  1.00  0.00     0.085 A 
HETATM   22  C11 UNL     1     -24.986  41.691  -6.093  1.00  0.00     0.124 A 
HETATM   23  N5  UNL     1     -25.423  41.387  -7.336  1.00  0.00    -0.307 N 
HETATM   24  C12 UNL     1     -25.134  40.158  -7.892  1.00  0.00     0.223 A 
ATOM     25  H5  UNL     1     -25.968  42.069  -7.864  1.00  0.00     0.171 HD
HETATM   26  N6  UNL     1     -25.595  39.997  -9.108  1.00  0.00    -0.365 N 
HETATM   27  O7  UNL     1     -24.431  39.244  -7.255  1.00  0.00    -0.282 OA
ATOM     28  H62 UNL     1     -26.140  40.704  -9.601  1.00  0.00     0.159 HD
ATOM     29  H61 UNL     1     -25.382  39.087  -9.518  1.00  0.00     0.159 HD
BRANCH  22  30
HETATM   30  N3  UNL     1     -25.040  42.785  -5.486  1.00  0.00    -0.292 N 
ATOM     31  H3  UNL     1     -24.889  42.716  -4.479  1.00  0.00     0.188 HD
BRANCH  30  32
HETATM   32  N4  UNL     1     -25.264  44.036  -5.932  1.00  0.00    -0.344 N 
ATOM     33  H42 UNL     1     -26.155  44.135  -6.418  1.00  0.00     0.176 HD
ATOM     34  H41 UNL     1     -24.700  44.883  -5.866  1.00  0.00     0.176 HD
ENDBRANCH  30  32
ENDBRANCH  22  30
ENDBRANCH  19  20
ENDBRANCH  18  19
ENDBRANCH   1  18
TORSDOF 9
ENDMDL
MODEL 2
REMARK VINA RESULT: -9.096379814      1.397      2.217
REMARK  9 active torsions:
REMARK  status: ('A' for Active; 'I' for Inactive)
REMARK    1  A    between atoms: O1_2  and  N1_3 
REMARK       I    between atoms: N1_3  and  C2_5 
REMARK    2  A    between atoms: C2_5  and  C3_7 
REMARK    3  A    between atoms: C6_10  and  C7_11 
REMARK       I    between atoms: C7_11  and  N2_13 
REMARK    4  A    between atoms: N2_13  and  S1_14 
REMARK    5  A    between atoms: S1_14  and  O6_17 
REMARK    6  A    between atoms: O6_17  and  C8_18 
REMARK    7  A    between atoms: C8_18  and  C9_19 
REMARK    8  A    between atoms: C11_21  and  N3_22 
REMARK    9  A    between atoms: N3_22  and  N4_24 
ROOT
HETATM    1  S1  UNL     1     -23.182  37.690  -1.738  1.00  0.00     0.434 S 
HETATM    2  O4  UNL     1     -23.782  38.700  -0.814  1.00  0.00    -0.163 OA
HETATM    3  O5  UNL     1     -23.970  36.317  -1.268  1.00  0.00    -0.163 OA
ENDROOT
BRANCH   1   4
HETATM    4  N2  UNL     1     -21.590  37.305  -1.513  1.00  0.00    -0.254 NA
HETATM    5  C7  UNL     1     -20.270  36.975  -1.337  1.00  0.00     0.362 C 
HETATM    6  O3  UNL     1     -19.275  36.552  -1.397  1.00  0.00    -0.248 OA
BRANCH   5   7
HETATM    7  C6  UNL     1     -19.986  38.074  -0.062  1.00  0.00     0.159 A 
HETATM    8  C5  UNL     1     -19.759  39.352  -0.473  1.00  0.00     0.047 A 
HETATM    9  C4  UNL     1     -19.597  40.005   0.758  1.00  0.00     0.046 A 
HETATM   10  C3  UNL     1     -19.725  39.075   1.721  1.00  0.00     0.146 A 
HETATM   11  O8  UNL     1     -19.968  37.875   1.152  1.00  0.00    -0.298 OA
BRANCH  10  12
HETATM   12  C2  UNL     1     -19.580  39.476   3.143  1.00  0.00     0.298 C 
HETATM   13  N1  UNL     1     -19.188  40.802   3.295  1.00  0.00    -0.230 N 
ATOM     14  H1  UNL     1     -18.989  41.293   2.424  1.00  0.00     0.198 HD
HETATM   15  O2  UNL     1     -19.822  38.638   4.065  1.00  0.00    -0.263 OA
BRANCH  13  16
HETATM   16  O1  UNL     1     -19.032  41.534   4.402  1.00  0.00    -0.282 OA
HETATM   17  C1  UNL     1     -18.242  42.652   3.934  1.00  0.00     0.237 C 
ENDBRANCH  13  16
ENDBRANCH  10  12
ENDBRANCH   5   7
ENDBRANCH   1   4
BRANCH   1  18
HETATM   18  O6  UNL     1     -23.571  37.917  -3.251  1.00  0.00    -0.242 OA
BRANCH  18  19
HETATM   19  C8  UNL     1     -22.849  37.901  -4.401  1.00  0.00     0.258 C 
BRANCH  19  20
HETATM   20  C9  UNL     1     -23.536  39.154  -4.992  1.00  0.00     0.085 A 
HETATM   21  C10 UNL     1     -23.909  39.042  -6.282  1.00  0.00     0.085 A 
HETATM   22  C11 UNL     1     -24.621  40.091  -6.890  1.00  0.00     0.124 A 
HETATM   23  N5  UNL     1     -24.862  41.169  -6.108  1.00  0.00    -0.307 N 
HETATM   24  C12 UNL     1     -24.427  41.188  -4.799  1.00  0.00     0.223 A 
ATOM     25  H5  UNL     1     -25.367  41.969  -6.488  1.00  0.00     0.171 HD
HETATM   26  N6  UNL     1     -24.742  42.278  -4.144  1.00  0.00    -0.365 N 
HETATM   27  O7  UNL     1     -23.775  40.179  -4.258  1.00  0.00    -0.282 OA
ATOM     28  H62 UNL     1     -25.247  43.059  -4.563  1.00  0.00     0.159 HD
ATOM     29  H61 UNL     1     -24.420  42.292  -3.176  1.00  0.00     0.159 HD
BRANCH  22  30
HETATM   30  N3  UNL     1     -25.044  39.845  -8.042  1.00  0.00    -0.292 N 
ATOM     31  H3  UNL     1     -25.100  38.852  -8.267  1.00  0.00     0.188 HD
BRANCH  30  32
HETATM   32  N4  UNL     1     -25.438  40.665  -9.035  1.00  0.00    -0.344 N 
ATOM     33  H42 UNL     1     -24.946  41.560  -9.036  1.00  0.00     0.176 HD
ATOM     34  H41 UNL     1     -26.132  40.542  -9.771  1.00  0.00     0.176 HD
ENDBRANCH  30  32
ENDBRANCH  22  30
ENDBRANCH  19  20
ENDBRANCH  18  19
ENDBRANCH   1  18
TORSDOF 9
ENDMDL
MODEL 3
REMARK VINA RESULT: -9.083270933      1.622      1.805
REMARK  9 active torsions:
REMARK  status: ('A' for Active; 'I' for Inactive)
REMARK    1  A    between atoms: O1_2  and  N1_3 
REMARK       I    between atoms: N1_3  and  C2_5 
REMARK    2  A    between atoms: C2_5  and  C3_7 
REMARK    3  A    between atoms: C6_10  and  C7_11 
REMARK       I    between atoms: C7_11  and  N2_13 
REMARK    4  A    between atoms: N2_13  and  S1_14 
REMARK    5  A    between atoms: S1_14  and  O6_17 
REMARK    6  A    between atoms: O6_17  and  C8_18 
REMARK    7  A    between atoms: C8_18  and  C9_19 
REMARK    8  A    between atoms: C11_21  and  N3_22 
REMARK    9  A    between atoms: N3_22  and  N4_24 
ROOT
HETATM    1  S1  UNL     1     -23.530  38.388  -2.404  1.00  0.00     0.434 S 
HETATM    2  O4  UNL     1     -24.218  39.223  -1.373  1.00  0.00    -0.163 OA
HETATM    3  O5  UNL     1     -24.417  36.997  -2.335  1.00  0.00    -0.163 OA
ENDROOT
BRANCH   1   4
HETATM    4  N2  UNL     1     -21.996  37.873  -2.063  1.00  0.00    -0.254 NA
HETATM    5  C7  UNL     1     -20.724  37.437  -1.792  1.00  0.00     0.362 C 
HETATM    6  O3  UNL     1     -19.753  36.957  -1.800  1.00  0.00    -0.248 OA
BRANCH   5   7
HETATM    7  C6  UNL     1     -20.523  38.361  -0.372  1.00  0.00     0.159 A 
HETATM    8  C5  UNL     1     -21.312  37.963   0.664  1.00  0.00     0.047 A 
HETATM    9  C4  UNL     1     -20.913  38.860   1.665  1.00  0.00     0.046 A 
HETATM   10  C3  UNL     1     -19.981  39.667   1.129  1.00  0.00     0.146 A 
HETATM   11  O8  UNL     1     -19.772  39.312  -0.157  1.00  0.00    -0.298 OA
BRANCH  10  12
HETATM   12  C2  UNL     1     -19.384  40.742   1.960  1.00  0.00     0.298 C 
HETATM   13  N1  UNL     1     -18.270  41.328   1.369  1.00  0.00    -0.230 N 
ATOM     14  H1  UNL     1     -17.975  40.901   0.490  1.00  0.00     0.198 HD
HETATM   15  O2  UNL     1     -19.907  41.044   3.076  1.00  0.00    -0.263 OA
BRANCH  13  16
HETATM   16  O1  UNL     1     -17.523  42.362   1.769  1.00  0.00    -0.282 OA
HETATM   17  C1  UNL     1     -18.142  43.480   1.092  1.00  0.00     0.237 C 
ENDBRANCH  13  16
ENDBRANCH  10  12
ENDBRANCH   5   7
ENDBRANCH   1   4
BRANCH   1  18
HETATM   18  O6  UNL     1     -23.701  38.939  -3.872  1.00  0.00    -0.242 OA
BRANCH  18  19
HETATM   19  C8  UNL     1     -23.124  38.606  -5.055  1.00  0.00     0.258 C 
BRANCH  19  20
HETATM   20  C9  UNL     1     -24.007  39.559  -5.894  1.00  0.00     0.085 A 
HETATM   21  C10 UNL     1     -24.275  40.745  -5.312  1.00  0.00     0.085 A 
HETATM   22  C11 UNL     1     -24.995  41.719  -6.027  1.00  0.00     0.124 A 
HETATM   23  N5  UNL     1     -25.386  41.365  -7.272  1.00  0.00    -0.307 N 
HETATM   24  C12 UNL     1     -25.068  40.119  -7.773  1.00  0.00     0.223 A 
ATOM     25  H5  UNL     1     -25.919  42.021  -7.843  1.00  0.00     0.171 HD
HETATM   26  N6  UNL     1     -25.487  39.909  -8.996  1.00  0.00    -0.365 N 
HETATM   27  O7  UNL     1     -24.379  39.237  -7.079  1.00  0.00    -0.282 OA
ATOM     28  H62 UNL     1     -26.020  40.593  -9.534  1.00  0.00     0.159 HD
ATOM     29  H61 UNL     1     -25.251  38.988  -9.366  1.00  0.00     0.159 HD
BRANCH  22  30
HETATM   30  N3  UNL     1     -25.079  42.833  -5.463  1.00  0.00    -0.292 N 
ATOM     31  H3  UNL     1     -25.011  42.797  -4.446  1.00  0.00     0.188 HD
BRANCH  30  32
HETATM   32  N4  UNL     1     -25.244  44.071  -5.967  1.00  0.00    -0.344 N 
ATOM     33  H42 UNL     1     -25.417  44.076  -6.972  1.00  0.00     0.176 HD
ATOM     34  H41 UNL     1     -25.226  44.986  -5.518  1.00  0.00     0.176 HD
ENDBRANCH  30  32
ENDBRANCH  22  30
ENDBRANCH  19  20
ENDBRANCH  18  19
ENDBRANCH   1  18
TORSDOF 9
ENDMDL
MODEL 4
REMARK VINA RESULT: -8.928344037      2.169      2.997
REMARK  9 active torsions:
REMARK  status: ('A' for Active; 'I' for Inactive)
REMARK    1  A    between atoms: O1_2  and  N1_3 
REMARK       I    between atoms: N1_3  and  C2_5 
REMARK    2  A    between atoms: C2_5  and  C3_7 
REMARK    3  A    between atoms: C6_10  and  C7_11 
REMARK       I    between atoms: C7_11  and  N2_13 
REMARK    4  A    between atoms: N2_13  and  S1_14 
REMARK    5  A    between atoms: S1_14  and  O6_17 
REMARK    6  A    between atoms: O6_17  and  C8_18 
REMARK    7  A    between atoms: C8_18  and  C9_19 
REMARK    8  A    between atoms: C11_21  and  N3_22 
REMARK    9  A    between atoms: N3_22  and  N4_24 
ROOT
HETATM    1  S1  UNL     1     -23.255  37.804  -1.720  1.00  0.00     0.434 S 
HETATM    2  O4  UNL     1     -23.996  38.784  -0.870  1.00  0.00    -0.163 OA
HETATM    3  O5  UNL     1     -23.936  36.380  -1.235  1.00  0.00    -0.163 OA
ENDROOT
BRANCH   1   4
HETATM    4  N2  UNL     1     -21.648  37.580  -1.396  1.00  0.00    -0.254 NA
HETATM    5  C7  UNL     1     -20.315  37.384  -1.138  1.00  0.00     0.362 C 
HETATM    6  O3  UNL     1     -19.286  37.050  -1.123  1.00  0.00    -0.248 OA
BRANCH   5   7
HETATM    7  C6  UNL     1     -20.193  38.592   0.061  1.00  0.00     0.159 A 
HETATM    8  C5  UNL     1     -20.715  38.231   1.266  1.00  0.00     0.047 A 
HETATM    9  C4  UNL     1     -20.447  39.376   2.029  1.00  0.00     0.046 A 
HETATM   10  C3  UNL     1     -19.835  40.259   1.220  1.00  0.00     0.146 A 
HETATM   11  O8  UNL     1     -19.700  39.717  -0.008  1.00  0.00    -0.298 OA
BRANCH  10  12
HETATM   12  C2  UNL     1     -19.446  41.588   1.755  1.00  0.00     0.298 C 
HETATM   13  N1  UNL     1     -18.918  42.431   0.783  1.00  0.00    -0.230 N 
ATOM     14  H1  UNL     1     -18.806  42.006  -0.138  1.00  0.00     0.198 HD
HETATM   15  O2  UNL     1     -19.624  41.853   2.984  1.00  0.00    -0.263 OA
BRANCH  13  16
HETATM   16  O1  UNL     1     -18.534  43.708   0.864  1.00  0.00    -0.282 OA
HETATM   17  C1  UNL     1     -17.226  43.686   0.246  1.00  0.00     0.237 C 
ENDBRANCH  13  16
ENDBRANCH  10  12
ENDBRANCH   5   7
ENDBRANCH   1   4
BRANCH   1  18
HETATM   18  O6  UNL     1     -23.578  37.938  -3.259  1.00  0.00    -0.242 OA
BRANCH  18  19
HETATM   19  C8  UNL     1     -22.793  37.987  -4.365  1.00  0.00     0.258 C 
BRANCH  19  20
HETATM   20  C9  UNL     1     -23.513  39.213  -4.971  1.00  0.00     0.085 A 
HETATM   21  C10 UNL     1     -23.923  39.059  -6.246  1.00  0.00     0.085 A 
HETATM   22  C11 UNL     1     -24.666  40.082  -6.861  1.00  0.00     0.124 A 
HETATM   23  N5  UNL     1     -24.899  41.178  -6.104  1.00  0.00    -0.307 N 
HETATM   24  C12 UNL     1     -24.426  41.241  -4.809  1.00  0.00     0.223 A 
ATOM     25  H5  UNL     1     -25.426  41.961  -6.491  1.00  0.00     0.171 HD
HETATM   26  N6  UNL     1     -24.738  42.345  -4.177  1.00  0.00    -0.365 N 
HETATM   27  O7  UNL     1     -23.745  40.256  -4.260  1.00  0.00    -0.282 OA
ATOM     28  H62 UNL     1     -25.266  43.107  -4.602  1.00  0.00     0.159 HD
ATOM     29  H61 UNL     1     -24.388  42.391  -3.220  1.00  0.00     0.159 HD
BRANCH  22  30
HETATM   30  N3  UNL     1     -25.119  39.798  -7.993  1.00  0.00    -0.292 N 
ATOM     31  H3  UNL     1     -25.221  38.798  -8.167  1.00  0.00     0.188 HD
BRANCH  30  32
HETATM   32  N4  UNL     1     -25.495  40.584  -9.020  1.00  0.00    -0.344 N 
ATOM     33  H42 UNL     1     -26.064  41.379  -8.731  1.00  0.00     0.176 HD
ATOM     34  H41 UNL     1     -25.307  40.516 -10.021  1.00  0.00     0.176 HD
ENDBRANCH  30  32
ENDBRANCH  22  30
ENDBRANCH  19  20
ENDBRANCH  18  19
ENDBRANCH   1  18
TORSDOF 9
ENDMDL
MODEL 5
REMARK VINA RESULT: -8.872954554      2.274      9.667
REMARK  9 active torsions:
REMARK  status: ('A' for Active; 'I' for Inactive)
REMARK    1  A    between atoms: O1_2  and  N1_3 
REMARK       I    between atoms: N1_3  and  C2_5 
REMARK    2  A    between atoms: C2_5  and  C3_7 
REMARK    3  A    between atoms: C6_10  and  C7_11 
REMARK       I    between atoms: C7_11  and  N2_13 
REMARK    4  A    between atoms: N2_13  and  S1_14 
REMARK    5  A    between atoms: S1_14  and  O6_17 
REMARK    6  A    between atoms: O6_17  and  C8_18 
REMARK    7  A    between atoms: C8_18  and  C9_19 
REMARK    8  A    between atoms: C11_21  and  N3_22 
REMARK    9  A    between atoms: N3_22  and  N4_24 
ROOT
HETATM    1  S1  UNL     1     -20.436  38.515  -0.538  1.00  0.00     0.434 S 
HETATM    2  O4  UNL     1     -19.611  39.598  -1.153  1.00  0.00    -0.163 OA
HETATM    3  O5  UNL     1     -19.852  37.183  -1.320  1.00  0.00    -0.163 OA
ENDROOT
BRANCH   1   4
HETATM    4  N2  UNL     1     -22.049  38.488  -0.904  1.00  0.00    -0.254 NA
HETATM    5  C7  UNL     1     -23.390  38.469  -1.193  1.00  0.00     0.362 C 
HETATM    6  O3  UNL     1     -24.471  38.512  -1.167  1.00  0.00    -0.248 OA
BRANCH   5   7
HETATM    7  C6  UNL     1     -23.203  38.126  -2.854  1.00  0.00     0.159 A 
HETATM    8  C5  UNL     1     -22.785  36.855  -3.114  1.00  0.00     0.047 A 
HETATM    9  C4  UNL     1     -22.756  36.864  -4.515  1.00  0.00     0.046 A 
HETATM   10  C3  UNL     1     -23.127  38.093  -4.914  1.00  0.00     0.146 A 
HETATM   11  O8  UNL     1     -23.397  38.850  -3.830  1.00  0.00    -0.298 OA
BRANCH  10  12
HETATM   12  C2  UNL     1     -23.170  38.406  -6.365  1.00  0.00     0.298 C 
HETATM   13  N1  UNL     1     -24.328  39.077  -6.741  1.00  0.00    -0.230 N 
ATOM     14  H1  UNL     1     -25.014  39.201  -5.996  1.00  0.00     0.198 HD
HETATM   15  O2  UNL     1     -22.200  38.073  -7.113  1.00  0.00    -0.263 OA
BRANCH  13  16
HETATM   16  O1  UNL     1     -24.685  39.586  -7.924  1.00  0.00    -0.282 OA
HETATM   17  C1  UNL     1     -25.336  40.823  -7.554  1.00  0.00     0.237 C 
ENDBRANCH  13  16
ENDBRANCH  10  12
ENDBRANCH   5   7
ENDBRANCH   1   4
BRANCH   1  18
HETATM   18  O6  UNL     1     -20.130  38.288   0.994  1.00  0.00    -0.242 OA
BRANCH  18  19
HETATM   19  C8  UNL     1     -20.834  38.553   2.124  1.00  0.00     0.258 C 
BRANCH  19  20
HETATM   20  C9  UNL     1     -19.692  39.349   2.795  1.00  0.00     0.085 A 
HETATM   21  C10 UNL     1     -18.464  38.813   2.651  1.00  0.00     0.085 A 
HETATM   22  C11 UNL     1     -17.345  39.504   3.148  1.00  0.00     0.124 A 
HETATM   23  N5  UNL     1     -17.605  40.680   3.764  1.00  0.00    -0.307 N 
HETATM   24  C12 UNL     1     -18.902  41.137   3.868  1.00  0.00     0.223 A 
ATOM     25  H5  UNL     1     -16.839  41.229   4.154  1.00  0.00     0.171 HD
HETATM   26  N6  UNL     1     -19.017  42.296   4.468  1.00  0.00    -0.365 N 
HETATM   27  O7  UNL     1     -19.926  40.468   3.378  1.00  0.00    -0.282 OA
ATOM     28  H62 UNL     1     -18.224  42.814   4.847  1.00  0.00     0.159 HD
ATOM     29  H61 UNL     1     -19.976  42.634   4.544  1.00  0.00     0.159 HD
BRANCH  22  30
HETATM   30  N3  UNL     1     -16.238  39.000   2.850  1.00  0.00    -0.292 N 
ATOM     31  H3  UNL     1     -16.280  38.294   2.115  1.00  0.00     0.188 HD
BRANCH  30  32
HETATM   32  N4  UNL     1     -15.002  39.229   3.334  1.00  0.00    -0.344 N 
ATOM     33  H42 UNL     1     -14.946  39.146   4.349  1.00  0.00     0.176 HD
ATOM     34  H41 UNL     1     -14.130  39.466   2.861  1.00  0.00     0.176 HD
ENDBRANCH  30  32
ENDBRANCH  22  30
ENDBRANCH  19  20
ENDBRANCH  18  19
ENDBRANCH   1  18
TORSDOF 9
ENDMDL
