MODEL 1
REMARK VINA RESULT: -6.994628326      0.000      0.000
REMARK  15 active torsions:
REMARK  status: ('A' for Active; 'I' for Inactive)
REMARK    1  A    between atoms: C2_2  and  C3_3 
REMARK    2  A    between atoms: N1_10  and  C7_11 
REMARK    3  A    between atoms: C8_13  and  C9_14 
REMARK    4  A    between atoms: C9_14  and  O4_15 
REMARK    5  A    between atoms: C11_17  and  O5_18 
REMARK    6  A    between atoms: C12_20  and  C13_21 
REMARK    7  A    between atoms: C13_21  and  C14_22 
REMARK    8  A    between atoms: C15_23  and  C16_24 
REMARK    9  A    between atoms: C16_24  and  C17_25 
REMARK   10  A    between atoms: C21_29  and  O6_30 
REMARK   11  A    between atoms: O6_30  and  C22_31 
REMARK   12  A    between atoms: C22_31  and  C23_33 
REMARK   13  A    between atoms: C23_33  and  N2_34 
REMARK       I    between atoms: N2_34  and  C24_36 
REMARK   14  A    between atoms: C24_36  and  O9_38 
REMARK   15  A    between atoms: O9_38  and  C25_39 
ROOT
HETATM    1  C7  UNL     1      24.337  25.974  19.822  1.00  0.00     0.210 A 
HETATM    2  O3  UNL     1      24.287  27.026  20.743  1.00  0.00    -0.333 OA
HETATM    3  C8  UNL     1      23.985  25.722  21.155  1.00  0.00     0.165 A 
HETATM    4  C11 UNL     1      22.565  25.570  21.591  1.00  0.00     0.165 C 
HETATM    5  C12 UNL     1      21.557  25.936  20.583  1.00  0.00     0.027 C 
HETATM    6  C19 UNL     1      21.934  25.357  19.266  1.00  0.00     0.023 C 
HETATM    7  C20 UNL     1      21.962  23.860  19.316  1.00  0.00     0.013 C 
HETATM    8  C21 UNL     1      23.275  25.874  18.789  1.00  0.00     0.196 C 
ENDROOT
BRANCH   8   9
HETATM    9  O6  UNL     1      23.045  27.099  18.109  1.00  0.00    -0.309 OA
BRANCH   9  10
HETATM   10  C22 UNL     1      22.851  27.117  16.759  1.00  0.00     0.277 C 
HETATM   11  O7  UNL     1      23.543  26.364  16.046  1.00  0.00    -0.263 OA
BRANCH  10  12
HETATM   12  C23 UNL     1      21.845  28.005  16.132  1.00  0.00     0.235 C 
BRANCH  12  13
HETATM   13  N2  UNL     1      20.521  27.415  16.268  1.00  0.00    -0.328 N 
HETATM   14  C24 UNL     1      19.937  26.727  15.154  1.00  0.00     0.361 C 
HETATM   15  O8  UNL     1      20.531  26.614  14.060  1.00  0.00    -0.238 OA
ATOM     16  H2  UNL     1      20.012  27.490  17.149  1.00  0.00     0.165 HD
BRANCH  14  17
HETATM   17  O9  UNL     1      18.687  26.173  15.293  1.00  0.00    -0.294 OA
BRANCH  17  18
HETATM   18  C25 UNL     1      18.461  24.988  16.025  1.00  0.00     0.061 C 
HETATM   19  C26 UNL     1      19.745  24.204  16.236  1.00  0.00     0.046 C 
HETATM   20  C27 UNL     1      17.439  24.167  15.278  1.00  0.00     0.046 C 
HETATM   21  C28 UNL     1      17.894  25.278  17.401  1.00  0.00     0.046 C 
ENDBRANCH  17  18
ENDBRANCH  14  17
ENDBRANCH  12  13
ENDBRANCH  10  12
ENDBRANCH   9  10
ENDBRANCH   8   9
BRANCH   1  22
HETATM   22  N1  UNL     1      25.678  25.868  19.267  1.00  0.00    -0.263 N 
HETATM   23  C3  UNL     1      25.859  24.883  18.282  1.00  0.00     0.121 C 
HETATM   24  C4  UNL     1      26.718  25.216  17.098  1.00  0.00     0.031 C 
HETATM   25  C5  UNL     1      28.025  25.856  17.423  1.00  0.00     0.019 C 
HETATM   26  C6  UNL     1      27.807  27.268  17.922  1.00  0.00     0.163 C 
HETATM   27  S1  UNL     1      26.497  27.328  19.121  1.00  0.00     0.231 S 
HETATM   28  O1  UNL     1      25.596  28.529  18.861  1.00  0.00    -0.206 OA
HETATM   29  O2  UNL     1      27.178  27.674  20.437  1.00  0.00    -0.206 OA
BRANCH  23  30
HETATM   30  C2  UNL     1      26.417  23.584  18.787  1.00  0.00    -0.011 C 
HETATM   31  C1  UNL     1      25.679  22.574  19.153  1.00  0.00     0.009 C 
ENDBRANCH  23  30
ENDBRANCH   1  22
BRANCH   3  32
HETATM   32  C9  UNL     1      24.907  25.128  22.222  1.00  0.00     0.213 C 
BRANCH  32  33
HETATM   33  O4  UNL     1      25.276  26.198  23.066  1.00  0.00    -0.393 OA
HETATM   34  C10 UNL     1      25.483  25.667  24.340  1.00  0.00     0.201 C 
ENDBRANCH  32  33
ENDBRANCH   3  32
BRANCH   5  35
HETATM   35  C13 UNL     1      20.137  25.762  20.993  1.00  0.00     0.034 C 
BRANCH  35  36
HETATM   36  C14 UNL     1      19.644  24.397  21.138  1.00  0.00    -0.030 C 
HETATM   37  C15 UNL     1      18.427  24.041  20.668  1.00  0.00    -0.031 C 
BRANCH  37  38
HETATM   38  C16 UNL     1      17.879  22.681  20.785  1.00  0.00     0.026 C 
BRANCH  38  39
HETATM   39  C17 UNL     1      18.727  21.749  19.938  1.00  0.00    -0.001 C 
HETATM   40  C18 UNL     1      18.223  21.724  18.517  1.00  0.00     0.005 C 
ENDBRANCH  38  39
ENDBRANCH  37  38
ENDBRANCH  35  36
ENDBRANCH   5  35
BRANCH   4  41
HETATM   41  O5  UNL     1      22.426  26.416  22.736  1.00  0.00    -0.392 OA
ATOM     42  H5  UNL     1      22.943  26.005  23.418  1.00  0.00     0.210 HD
ENDBRANCH   4  41
TORSDOF 15
ENDMDL
MODEL 2
REMARK VINA RESULT: -6.873733490      1.061      1.281
REMARK  15 active torsions:
REMARK  status: ('A' for Active; 'I' for Inactive)
REMARK    1  A    between atoms: C2_2  and  C3_3 
REMARK    2  A    between atoms: N1_10  and  C7_11 
REMARK    3  A    between atoms: C8_13  and  C9_14 
REMARK    4  A    between atoms: C9_14  and  O4_15 
REMARK    5  A    between atoms: C11_17  and  O5_18 
REMARK    6  A    between atoms: C12_20  and  C13_21 
REMARK    7  A    between atoms: C13_21  and  C14_22 
REMARK    8  A    between atoms: C15_23  and  C16_24 
REMARK    9  A    between atoms: C16_24  and  C17_25 
REMARK   10  A    between atoms: C21_29  and  O6_30 
REMARK   11  A    between atoms: O6_30  and  C22_31 
REMARK   12  A    between atoms: C22_31  and  C23_33 
REMARK   13  A    between atoms: C23_33  and  N2_34 
REMARK       I    between atoms: N2_34  and  C24_36 
REMARK   14  A    between atoms: C24_36  and  O9_38 
REMARK   15  A    between atoms: O9_38  and  C25_39 
ROOT
HETATM    1  C7  UNL     1      24.683  25.821  20.157  1.00  0.00     0.210 A 
HETATM    2  O3  UNL     1      24.546  26.978  20.934  1.00  0.00    -0.333 OA
HETATM    3  C8  UNL     1      24.235  25.727  21.482  1.00  0.00     0.165 A 
HETATM    4  C11 UNL     1      22.789  25.594  21.828  1.00  0.00     0.165 C 
HETATM    5  C12 UNL     1      21.855  25.807  20.712  1.00  0.00     0.027 C 
HETATM    6  C19 UNL     1      22.339  25.079  19.508  1.00  0.00     0.023 C 
HETATM    7  C20 UNL     1      22.387  23.602  19.748  1.00  0.00     0.013 C 
HETATM    8  C21 UNL     1      23.704  25.568  19.070  1.00  0.00     0.196 C 
ENDROOT
BRANCH   8   9
HETATM    9  O6  UNL     1      23.506  26.693  18.227  1.00  0.00    -0.309 OA
BRANCH   9  10
HETATM   10  C22 UNL     1      23.612  26.572  16.873  1.00  0.00     0.277 C 
HETATM   11  O7  UNL     1      24.691  26.177  16.390  1.00  0.00    -0.263 OA
BRANCH  10  12
HETATM   12  C23 UNL     1      22.479  26.897  15.975  1.00  0.00     0.235 C 
BRANCH  12  13
HETATM   13  N2  UNL     1      21.532  25.791  15.964  1.00  0.00    -0.328 N 
HETATM   14  C24 UNL     1      20.332  25.883  16.742  1.00  0.00     0.361 C 
HETATM   15  O8  UNL     1      20.067  26.889  17.435  1.00  0.00    -0.238 OA
ATOM     16  H2  UNL     1      21.721  24.957  15.407  1.00  0.00     0.165 HD
BRANCH  14  17
HETATM   17  O9  UNL     1      19.444  24.833  16.725  1.00  0.00    -0.294 OA
BRANCH  17  18
HETATM   18  C25 UNL     1      18.182  24.919  16.100  1.00  0.00     0.061 C 
HETATM   19  C26 UNL     1      18.204  25.871  14.917  1.00  0.00     0.046 C 
HETATM   20  C27 UNL     1      17.179  25.363  17.136  1.00  0.00     0.046 C 
HETATM   21  C28 UNL     1      17.724  23.575  15.572  1.00  0.00     0.046 C 
ENDBRANCH  17  18
ENDBRANCH  14  17
ENDBRANCH  12  13
ENDBRANCH  10  12
ENDBRANCH   9  10
ENDBRANCH   8   9
BRANCH   1  22
HETATM   22  N1  UNL     1      26.064  25.682  19.719  1.00  0.00    -0.263 N 
HETATM   23  C3  UNL     1      26.335  24.584  18.886  1.00  0.00     0.121 C 
HETATM   24  C4  UNL     1      27.275  24.787  17.734  1.00  0.00     0.031 C 
HETATM   25  C5  UNL     1      28.543  25.499  18.067  1.00  0.00     0.019 C 
HETATM   26  C6  UNL     1      28.263  26.956  18.364  1.00  0.00     0.163 C 
HETATM   27  S1  UNL     1      26.866  27.133  19.447  1.00  0.00     0.231 S 
HETATM   28  O1  UNL     1      25.967  28.267  18.969  1.00  0.00    -0.206 OA
HETATM   29  O2  UNL     1      27.439  27.662  20.753  1.00  0.00    -0.206 OA
BRANCH  23  30
HETATM   30  C2  UNL     1      26.876  23.376  19.593  1.00  0.00    -0.011 C 
HETATM   31  C1  UNL     1      26.402  22.173  19.432  1.00  0.00     0.009 C 
ENDBRANCH  23  30
ENDBRANCH   1  22
BRANCH   3  32
HETATM   32  C9  UNL     1      25.083  25.294  22.679  1.00  0.00     0.213 C 
BRANCH  32  33
HETATM   33  O4  UNL     1      25.356  26.466  23.417  1.00  0.00    -0.393 OA
HETATM   34  C10 UNL     1      26.584  26.279  24.053  1.00  0.00     0.201 C 
ENDBRANCH  32  33
ENDBRANCH   3  32
BRANCH   5  35
HETATM   35  C13 UNL     1      20.410  25.648  21.036  1.00  0.00     0.034 C 
BRANCH  35  36
HETATM   36  C14 UNL     1      19.642  24.706  20.231  1.00  0.00    -0.030 C 
HETATM   37  C15 UNL     1      18.567  24.065  20.742  1.00  0.00    -0.031 C 
BRANCH  37  38
HETATM   38  C16 UNL     1      17.756  23.105  19.978  1.00  0.00     0.026 C 
BRANCH  38  39
HETATM   39  C17 UNL     1      18.524  21.798  19.885  1.00  0.00    -0.001 C 
HETATM   40  C18 UNL     1      18.894  21.308  21.262  1.00  0.00     0.005 C 
ENDBRANCH  38  39
ENDBRANCH  37  38
ENDBRANCH  35  36
ENDBRANCH   5  35
BRANCH   4  41
HETATM   41  O5  UNL     1      22.550  26.572  22.845  1.00  0.00    -0.392 OA
ATOM     42  H5  UNL     1      21.686  26.373  23.188  1.00  0.00     0.210 HD
ENDBRANCH   4  41
TORSDOF 15
ENDMDL
MODEL 3
REMARK VINA RESULT: -6.609919512      7.499     12.041
REMARK  15 active torsions:
REMARK  status: ('A' for Active; 'I' for Inactive)
REMARK    1  A    between atoms: C2_2  and  C3_3 
REMARK    2  A    between atoms: N1_10  and  C7_11 
REMARK    3  A    between atoms: C8_13  and  C9_14 
REMARK    4  A    between atoms: C9_14  and  O4_15 
REMARK    5  A    between atoms: C11_17  and  O5_18 
REMARK    6  A    between atoms: C12_20  and  C13_21 
REMARK    7  A    between atoms: C13_21  and  C14_22 
REMARK    8  A    between atoms: C15_23  and  C16_24 
REMARK    9  A    between atoms: C16_24  and  C17_25 
REMARK   10  A    between atoms: C21_29  and  O6_30 
REMARK   11  A    between atoms: O6_30  and  C22_31 
REMARK   12  A    between atoms: C22_31  and  C23_33 
REMARK   13  A    between atoms: C23_33  and  N2_34 
REMARK       I    between atoms: N2_34  and  C24_36 
REMARK   14  A    between atoms: C24_36  and  O9_38 
REMARK   15  A    between atoms: O9_38  and  C25_39 
ROOT
HETATM    1  C7  UNL     1      14.232  21.460  16.280  1.00  0.00     0.210 A 
HETATM    2  O3  UNL     1      13.432  22.404  16.934  1.00  0.00    -0.333 OA
HETATM    3  C8  UNL     1      14.751  22.724  16.590  1.00  0.00     0.165 A 
HETATM    4  C11 UNL     1      15.616  22.960  17.785  1.00  0.00     0.165 C 
HETATM    5  C12 UNL     1      15.690  21.840  18.736  1.00  0.00     0.027 C 
HETATM    6  C19 UNL     1      15.881  20.565  17.995  1.00  0.00     0.023 C 
HETATM    7  C20 UNL     1      17.172  20.564  17.235  1.00  0.00     0.013 C 
HETATM    8  C21 UNL     1      14.734  20.291  17.045  1.00  0.00     0.196 C 
ENDROOT
BRANCH   8   9
HETATM    9  O6  UNL     1      13.716  19.632  17.782  1.00  0.00    -0.309 OA
BRANCH   9  10
HETATM   10  C22 UNL     1      13.850  18.319  18.129  1.00  0.00     0.277 C 
HETATM   11  O7  UNL     1      14.996  17.857  18.290  1.00  0.00    -0.263 OA
BRANCH  10  12
HETATM   12  C23 UNL     1      12.670  17.442  18.315  1.00  0.00     0.235 C 
BRANCH  12  13
HETATM   13  N2  UNL     1      11.932  17.345  17.064  1.00  0.00    -0.328 N 
HETATM   14  C24 UNL     1      10.576  16.880  17.080  1.00  0.00     0.361 C 
HETATM   15  O8  UNL     1      10.000  16.552  18.139  1.00  0.00    -0.238 OA
ATOM     16  H2  UNL     1      12.375  17.607  16.183  1.00  0.00     0.165 HD
BRANCH  14  17
HETATM   17  O9  UNL     1       9.887  16.792  15.893  1.00  0.00    -0.294 OA
BRANCH  17  18
HETATM   18  C25 UNL     1       9.993  15.675  15.038  1.00  0.00     0.061 C 
HETATM   19  C26 UNL     1      11.029  15.895  13.949  1.00  0.00     0.046 C 
HETATM   20  C27 UNL     1       8.631  15.411  14.446  1.00  0.00     0.046 C 
HETATM   21  C28 UNL     1      10.410  14.428  15.792  1.00  0.00     0.046 C 
ENDBRANCH  17  18
ENDBRANCH  14  17
ENDBRANCH  12  13
ENDBRANCH  10  12
ENDBRANCH   9  10
ENDBRANCH   8   9
BRANCH   1  22
HETATM   22  N1  UNL     1      13.617  21.086  15.014  1.00  0.00    -0.263 N 
HETATM   23  C3  UNL     1      14.428  20.353  14.132  1.00  0.00     0.121 C 
HETATM   24  C4  UNL     1      13.799  19.224  13.368  1.00  0.00     0.031 C 
HETATM   25  C5  UNL     1      12.498  19.548  12.714  1.00  0.00     0.019 C 
HETATM   26  C6  UNL     1      11.416  19.717  13.758  1.00  0.00     0.163 C 
HETATM   27  S1  UNL     1      11.977  20.730  15.105  1.00  0.00     0.231 S 
HETATM   28  O1  UNL     1      11.539  20.131  16.436  1.00  0.00    -0.206 OA
HETATM   29  O2  UNL     1      11.162  22.011  15.007  1.00  0.00    -0.206 OA
BRANCH  23  30
HETATM   30  C2  UNL     1      15.114  21.172  13.078  1.00  0.00    -0.011 C 
HETATM   31  C1  UNL     1      14.507  22.070  12.353  1.00  0.00     0.009 C 
ENDBRANCH  23  30
ENDBRANCH   1  22
BRANCH   3  32
HETATM   32  C9  UNL     1      14.923  23.883  15.606  1.00  0.00     0.213 C 
BRANCH  32  33
HETATM   33  O4  UNL     1      16.237  24.365  15.787  1.00  0.00    -0.393 OA
HETATM   34  C10 UNL     1      17.075  23.597  14.979  1.00  0.00     0.201 C 
ENDBRANCH  32  33
ENDBRANCH   3  32
BRANCH   5  35
HETATM   35  C13 UNL     1      16.572  22.050  19.917  1.00  0.00     0.034 C 
BRANCH  35  36
HETATM   36  C14 UNL     1      17.789  22.826  19.715  1.00  0.00    -0.030 C 
HETATM   37  C15 UNL     1      18.272  23.634  20.686  1.00  0.00    -0.031 C 
BRANCH  37  38
HETATM   38  C16 UNL     1      19.494  24.439  20.539  1.00  0.00     0.026 C 
BRANCH  38  39
HETATM   39  C17 UNL     1      20.453  23.690  19.632  1.00  0.00    -0.001 C 
HETATM   40  C18 UNL     1      21.875  24.104  19.915  1.00  0.00     0.005 C 
ENDBRANCH  38  39
ENDBRANCH  37  38
ENDBRANCH  35  36
ENDBRANCH   5  35
BRANCH   4  41
HETATM   41  O5  UNL     1      15.061  24.106  18.436  1.00  0.00    -0.392 OA
ATOM     42  H5  UNL     1      15.721  24.388  19.058  1.00  0.00     0.210 HD
ENDBRANCH   4  41
TORSDOF 15
ENDMDL
MODEL 4
REMARK VINA RESULT: -6.452866326      3.878      6.340
REMARK  15 active torsions:
REMARK  status: ('A' for Active; 'I' for Inactive)
REMARK    1  A    between atoms: C2_2  and  C3_3 
REMARK    2  A    between atoms: N1_10  and  C7_11 
REMARK    3  A    between atoms: C8_13  and  C9_14 
REMARK    4  A    between atoms: C9_14  and  O4_15 
REMARK    5  A    between atoms: C11_17  and  O5_18 
REMARK    6  A    between atoms: C12_20  and  C13_21 
REMARK    7  A    between atoms: C13_21  and  C14_22 
REMARK    8  A    between atoms: C15_23  and  C16_24 
REMARK    9  A    between atoms: C16_24  and  C17_25 
REMARK   10  A    between atoms: C21_29  and  O6_30 
REMARK   11  A    between atoms: O6_30  and  C22_31 
REMARK   12  A    between atoms: C22_31  and  C23_33 
REMARK   13  A    between atoms: C23_33  and  N2_34 
REMARK       I    between atoms: N2_34  and  C24_36 
REMARK   14  A    between atoms: C24_36  and  O9_38 
REMARK   15  A    between atoms: O9_38  and  C25_39 
ROOT
HETATM    1  C7  UNL     1      19.507  24.693  18.203  1.00  0.00     0.210 A 
HETATM    2  O3  UNL     1      19.308  24.858  19.579  1.00  0.00    -0.333 OA
HETATM    3  C8  UNL     1      20.067  23.779  19.107  1.00  0.00     0.165 A 
HETATM    4  C11 UNL     1      19.434  22.459  19.400  1.00  0.00     0.165 C 
HETATM    5  C12 UNL     1      18.075  22.282  18.866  1.00  0.00     0.027 C 
HETATM    6  C19 UNL     1      18.022  22.768  17.462  1.00  0.00     0.023 C 
HETATM    7  C20 UNL     1      18.933  21.976  16.576  1.00  0.00     0.013 C 
HETATM    8  C21 UNL     1      18.370  24.238  17.363  1.00  0.00     0.196 C 
ENDROOT
BRANCH   8   9
HETATM    9  O6  UNL     1      17.180  24.977  17.593  1.00  0.00    -0.309 OA
BRANCH   9  10
HETATM   10  C22 UNL     1      15.964  24.448  17.276  1.00  0.00     0.277 C 
HETATM   11  O7  UNL     1      15.114  24.318  18.180  1.00  0.00    -0.263 OA
BRANCH  10  12
HETATM   12  C23 UNL     1      15.636  24.029  15.893  1.00  0.00     0.235 C 
BRANCH  12  13
HETATM   13  N2  UNL     1      14.719  22.899  15.930  1.00  0.00    -0.328 N 
HETATM   14  C24 UNL     1      14.960  21.768  15.083  1.00  0.00     0.361 C 
HETATM   15  O8  UNL     1      15.939  21.717  14.308  1.00  0.00    -0.238 OA
ATOM     16  H2  UNL     1      13.912  22.911  16.554  1.00  0.00     0.165 HD
BRANCH  14  17
HETATM   17  O9  UNL     1      14.088  20.706  15.125  1.00  0.00    -0.294 OA
BRANCH  17  18
HETATM   18  C25 UNL     1      12.872  20.697  14.409  1.00  0.00     0.061 C 
HETATM   19  C26 UNL     1      12.484  22.088  13.939  1.00  0.00     0.046 C 
HETATM   20  C27 UNL     1      11.809  20.110  15.306  1.00  0.00     0.046 C 
HETATM   21  C28 UNL     1      12.955  19.824  13.173  1.00  0.00     0.046 C 
ENDBRANCH  17  18
ENDBRANCH  14  17
ENDBRANCH  12  13
ENDBRANCH  10  12
ENDBRANCH   9  10
ENDBRANCH   8   9
BRANCH   1  22
HETATM   22  N1  UNL     1      20.180  25.864  17.659  1.00  0.00    -0.263 N 
HETATM   23  C3  UNL     1      21.222  26.390  18.439  1.00  0.00     0.121 C 
HETATM   24  C4  UNL     1      22.458  26.868  17.736  1.00  0.00     0.031 C 
HETATM   25  C5  UNL     1      22.217  27.744  16.552  1.00  0.00     0.019 C 
HETATM   26  C6  UNL     1      21.633  26.935  15.414  1.00  0.00     0.163 C 
HETATM   27  S1  UNL     1      20.324  25.877  15.985  1.00  0.00     0.231 S 
HETATM   28  O1  UNL     1      20.448  24.496  15.354  1.00  0.00    -0.206 OA
HETATM   29  O2  UNL     1      19.057  26.440  15.359  1.00  0.00    -0.206 OA
BRANCH  23  30
HETATM   30  C2  UNL     1      20.831  27.542  19.318  1.00  0.00    -0.011 C 
HETATM   31  C1  UNL     1      21.189  27.652  20.566  1.00  0.00     0.009 C 
ENDBRANCH  23  30
ENDBRANCH   1  22
BRANCH   3  32
HETATM   32  C9  UNL     1      21.531  23.748  19.549  1.00  0.00     0.213 C 
BRANCH  32  33
HETATM   33  O4  UNL     1      21.539  24.102  20.915  1.00  0.00    -0.393 OA
HETATM   34  C10 UNL     1      22.867  24.339  21.273  1.00  0.00     0.201 C 
ENDBRANCH  32  33
ENDBRANCH   3  32
BRANCH   5  35
HETATM   35  C13 UNL     1      17.443  20.959  19.126  1.00  0.00     0.034 C 
BRANCH  35  36
HETATM   36  C14 UNL     1      16.165  20.688  18.478  1.00  0.00    -0.030 C 
HETATM   37  C15 UNL     1      15.007  20.727  19.175  1.00  0.00    -0.031 C 
BRANCH  37  38
HETATM   38  C16 UNL     1      13.690  20.463  18.575  1.00  0.00     0.026 C 
BRANCH  38  39
HETATM   39  C17 UNL     1      13.339  19.006  18.815  1.00  0.00    -0.001 C 
HETATM   40  C18 UNL     1      13.523  18.654  20.270  1.00  0.00     0.005 C 
ENDBRANCH  38  39
ENDBRANCH  37  38
ENDBRANCH  35  36
ENDBRANCH   5  35
BRANCH   4  41
HETATM   41  O5  UNL     1      19.404  22.360  20.827  1.00  0.00    -0.392 OA
ATOM     42  H5  UNL     1      19.130  21.470  21.013  1.00  0.00     0.210 HD
ENDBRANCH   4  41
TORSDOF 15
ENDMDL
MODEL 5
REMARK VINA RESULT: -6.431946070      6.866     11.281
REMARK  15 active torsions:
REMARK  status: ('A' for Active; 'I' for Inactive)
REMARK    1  A    between atoms: C2_2  and  C3_3 
REMARK    2  A    between atoms: N1_10  and  C7_11 
REMARK    3  A    between atoms: C8_13  and  C9_14 
REMARK    4  A    between atoms: C9_14  and  O4_15 
REMARK    5  A    between atoms: C11_17  and  O5_18 
REMARK    6  A    between atoms: C12_20  and  C13_21 
REMARK    7  A    between atoms: C13_21  and  C14_22 
REMARK    8  A    between atoms: C15_23  and  C16_24 
REMARK    9  A    between atoms: C16_24  and  C17_25 
REMARK   10  A    between atoms: C21_29  and  O6_30 
REMARK   11  A    between atoms: O6_30  and  C22_31 
REMARK   12  A    between atoms: C22_31  and  C23_33 
REMARK   13  A    between atoms: C23_33  and  N2_34 
REMARK       I    between atoms: N2_34  and  C24_36 
REMARK   14  A    between atoms: C24_36  and  O9_38 
REMARK   15  A    between atoms: O9_38  and  C25_39 
ROOT
HETATM    1  C7  UNL     1      15.901  22.077  16.334  1.00  0.00     0.210 A 
HETATM    2  O3  UNL     1      16.725  21.332  15.482  1.00  0.00    -0.333 OA
HETATM    3  C8  UNL     1      16.166  22.535  15.036  1.00  0.00     0.165 A 
HETATM    4  C11 UNL     1      15.205  22.341  13.909  1.00  0.00     0.165 C 
HETATM    5  C12 UNL     1      14.080  21.436  14.194  1.00  0.00     0.027 C 
HETATM    6  C19 UNL     1      13.511  21.751  15.531  1.00  0.00     0.023 C 
HETATM    7  C20 UNL     1      12.959  23.142  15.576  1.00  0.00     0.013 C 
HETATM    8  C21 UNL     1      14.536  21.575  16.632  1.00  0.00     0.196 C 
ENDROOT
BRANCH   8   9
HETATM    9  O6  UNL     1      14.519  20.210  17.020  1.00  0.00    -0.309 OA
BRANCH   9  10
HETATM   10  C22 UNL     1      14.031  19.841  18.239  1.00  0.00     0.277 C 
HETATM   11  O7  UNL     1      13.330  20.654  18.873  1.00  0.00    -0.263 OA
BRANCH  10  12
HETATM   12  C23 UNL     1      14.316  18.507  18.817  1.00  0.00     0.235 C 
BRANCH  12  13
HETATM   13  N2  UNL     1      13.692  17.478  17.999  1.00  0.00    -0.328 N 
HETATM   14  C24 UNL     1      12.392  16.986  18.354  1.00  0.00     0.361 C 
HETATM   15  O8  UNL     1      11.771  17.416  19.349  1.00  0.00    -0.238 OA
ATOM     16  H2  UNL     1      14.175  17.108  17.180  1.00  0.00     0.165 HD
BRANCH  14  17
HETATM   17  O9  UNL     1      11.812  16.014  17.575  1.00  0.00    -0.294 OA
BRANCH  17  18
HETATM   18  C25 UNL     1      10.748  16.289  16.689  1.00  0.00     0.061 C 
HETATM   19  C26 UNL     1      10.690  17.761  16.319  1.00  0.00     0.046 C 
HETATM   20  C27 UNL     1       9.466  15.843  17.348  1.00  0.00     0.046 C 
HETATM   21  C28 UNL     1      10.885  15.518  15.391  1.00  0.00     0.046 C 
ENDBRANCH  17  18
ENDBRANCH  14  17
ENDBRANCH  12  13
ENDBRANCH  10  12
ENDBRANCH   9  10
ENDBRANCH   8   9
BRANCH   1  22
HETATM   22  N1  UNL     1      16.640  22.453  17.530  1.00  0.00    -0.263 N 
HETATM   23  C3  UNL     1      15.878  22.997  18.577  1.00  0.00     0.121 C 
HETATM   24  C4  UNL     1      16.212  22.588  19.981  1.00  0.00     0.031 C 
HETATM   25  C5  UNL     1      17.662  22.639  20.328  1.00  0.00     0.019 C 
HETATM   26  C6  UNL     1      18.411  21.538  19.610  1.00  0.00     0.163 C 
HETATM   27  S1  UNL     1      17.938  21.450  17.899  1.00  0.00     0.231 S 
HETATM   28  O1  UNL     1      17.749  19.999  17.476  1.00  0.00    -0.206 OA
HETATM   29  O2  UNL     1      19.170  21.890  17.123  1.00  0.00    -0.206 OA
BRANCH  23  30
HETATM   30  C2  UNL     1      15.856  24.497  18.626  1.00  0.00    -0.011 C 
HETATM   31  C1  UNL     1      16.831  25.247  18.197  1.00  0.00     0.009 C 
ENDBRANCH  23  30
ENDBRANCH   1  22
BRANCH   3  32
HETATM   32  C9  UNL     1      17.161  23.637  14.667  1.00  0.00     0.213 C 
BRANCH  32  33
HETATM   33  O4  UNL     1      16.562  24.856  15.051  1.00  0.00    -0.393 OA
HETATM   34  C10 UNL     1      17.524  25.856  14.901  1.00  0.00     0.201 C 
ENDBRANCH  32  33
ENDBRANCH   3  32
BRANCH   5  35
HETATM   35  C13 UNL     1      13.098  21.256  13.089  1.00  0.00     0.034 C 
BRANCH  35  36
HETATM   36  C14 UNL     1      12.152  20.153  13.208  1.00  0.00    -0.030 C 
HETATM   37  C15 UNL     1      12.383  18.966  12.603  1.00  0.00    -0.031 C 
BRANCH  37  38
HETATM   38  C16 UNL     1      11.466  17.820  12.688  1.00  0.00     0.026 C 
BRANCH  38  39
HETATM   39  C17 UNL     1      11.733  16.906  11.505  1.00  0.00    -0.001 C 
HETATM   40  C18 UNL     1      12.912  16.010  11.789  1.00  0.00     0.005 C 
ENDBRANCH  38  39
ENDBRANCH  37  38
ENDBRANCH  35  36
ENDBRANCH   5  35
BRANCH   4  41
HETATM   41  O5  UNL     1      15.984  21.813  12.832  1.00  0.00    -0.392 OA
ATOM     42  H5  UNL     1      16.502  22.543  12.514  1.00  0.00     0.210 HD
ENDBRANCH   4  41
TORSDOF 15
ENDMDL
