MODEL 1
REMARK VINA RESULT: -9.600237545      0.000      0.000
REMARK  14 active torsions:
REMARK  status: ('A' for Active; 'I' for Inactive)
REMARK       I    between atoms: C2_2  and  N1_4 
REMARK    1  A    between atoms: N1_4  and  C3_6 
REMARK    2  A    between atoms: C4_11  and  C5_12 
REMARK    3  A    between atoms: C5_12  and  C6_13 
REMARK    4  A    between atoms: C6_13  and  C7_14 
REMARK    5  A    between atoms: C7_14  and  C8_15 
REMARK    6  A    between atoms: C8_15  and  C9_16 
REMARK    7  A    between atoms: C11_20  and  N5_21 
REMARK       I    between atoms: N5_21  and  C12_23 
REMARK    8  A    between atoms: C12_23  and  C13_25 
REMARK    9  A    between atoms: C13_25  and  C14_26 
REMARK   10  A    between atoms: C14_26  and  C15_27 
REMARK   11  A    between atoms: C15_27  and  O3_29 
REMARK   12  A    between atoms: O3_29  and  C17_30 
REMARK   13  A    between atoms: C17_30  and  C18_32 
REMARK   14  A    between atoms: N6_37  and  C23_38 
ROOT
HETATM    1  C9  UNL     1      13.917  22.915  14.608  1.00  0.00     0.095 A 
HETATM    2  N4  UNL     1      13.733  23.348  15.896  1.00  0.00    -0.351 N 
ATOM      3  H4  UNL     1      12.842  23.727  16.217  1.00  0.00     0.166 HD
HETATM    4  C10 UNL     1      14.798  23.243  16.708  1.00  0.00     0.139 A 
HETATM    5  C11 UNL     1      16.018  22.737  16.306  1.00  0.00     0.138 A 
HETATM    6  N7  UNL     1      16.147  22.320  15.014  1.00  0.00    -0.283 N 
ATOM      7  H7  UNL     1      17.029  21.940  14.670  1.00  0.00     0.188 HD
HETATM    8  N8  UNL     1      15.103  22.424  14.224  1.00  0.00    -0.287 N 
ATOM      9  H8  UNL     1      15.201  22.111  13.259  1.00  0.00     0.188 HD
ENDROOT
BRANCH   5  10
HETATM   10  N5  UNL     1      17.042  22.636  17.087  1.00  0.00    -0.311 N 
HETATM   11  C12 UNL     1      17.472  21.336  17.504  1.00  0.00     0.223 C 
HETATM   12  O2  UNL     1      18.090  20.673  16.635  1.00  0.00    -0.273 OA
ATOM     13  H5  UNL     1      17.536  23.471  17.402  1.00  0.00     0.170 HD
BRANCH  11  14
HETATM   14  C13 UNL     1      17.209  20.818  18.861  1.00  0.00     0.105 C 
BRANCH  14  15
HETATM   15  C14 UNL     1      17.430  21.863  19.885  1.00  0.00     0.041 C 
BRANCH  15  16
HETATM   16  C15 UNL     1      18.833  22.204  20.224  1.00  0.00     0.128 C 
HETATM   17  C16 UNL     1      19.252  21.712  21.593  1.00  0.00     0.040 C 
BRANCH  16  18
HETATM   18  O3  UNL     1      19.028  23.615  20.236  1.00  0.00    -0.315 OA
BRANCH  18  19
HETATM   19  C17 UNL     1      18.922  24.399  19.109  1.00  0.00     0.281 C 
HETATM   20  O4  UNL     1      17.834  24.938  18.860  1.00  0.00    -0.263 OA
BRANCH  19  21
HETATM   21  C18 UNL     1      20.140  24.557  18.237  1.00  0.00     0.179 C 
HETATM   22  C19 UNL     1      21.369  24.278  19.008  1.00  0.00     0.035 C 
HETATM   23  C20 UNL     1      22.193  25.446  19.417  1.00  0.00     0.004 C 
HETATM   24  C21 UNL     1      21.272  26.641  19.545  1.00  0.00     0.020 C 
HETATM   25  C22 UNL     1      20.720  26.905  18.169  1.00  0.00     0.118 C 
HETATM   26  N6  UNL     1      20.028  25.810  17.595  1.00  0.00    -0.395 N 
BRANCH  26  27
HETATM   27  C23 UNL     1      20.011  25.767  16.163  1.00  0.00     0.080 C 
HETATM   28  C24 UNL     1      18.612  25.879  15.599  1.00  0.00     0.025 C 
HETATM   29  C25 UNL     1      18.852  26.571  14.275  1.00  0.00     0.002 C 
HETATM   30  C26 UNL     1      19.866  27.641  14.668  1.00  0.00     0.002 C 
HETATM   31  C27 UNL     1      20.835  26.851  15.526  1.00  0.00     0.025 C 
ENDBRANCH  26  27
ENDBRANCH  19  21
ENDBRANCH  18  19
ENDBRANCH  16  18
ENDBRANCH  15  16
ENDBRANCH  14  15
ENDBRANCH  11  14
ENDBRANCH   5  10
BRANCH   1  32
HETATM   32  C8  UNL     1      12.809  23.000  13.651  1.00  0.00     0.078 C 
BRANCH  32  33
HETATM   33  C7  UNL     1      11.808  21.909  13.851  1.00  0.00     0.008 C 
BRANCH  33  34
HETATM   34  C6  UNL     1      12.181  20.577  13.313  1.00  0.00     0.007 C 
BRANCH  34  35
HETATM   35  C5  UNL     1      11.656  19.422  14.114  1.00  0.00     0.066 C 
BRANCH  35  36
HETATM   36  C4  UNL     1      12.195  19.569  15.519  1.00  0.00     0.069 A 
HETATM   37  N3  UNL     1      13.458  19.719  15.888  1.00  0.00    -0.296 N 
HETATM   38  N2  UNL     1      13.761  19.820  17.117  1.00  0.00    -0.279 N 
ATOM     39  H3  UNL     1      14.192  19.754  15.181  1.00  0.00     0.187 HD
HETATM   40  C3  UNL     1      12.775  19.770  18.023  1.00  0.00     0.167 A 
ATOM     41  H2  UNL     1      14.731  19.937  17.408  1.00  0.00     0.189 HD
HETATM   42  S1  UNL     1      11.399  19.572  17.032  1.00  0.00    -0.038 SA
BRANCH  40  43
HETATM   43  N1  UNL     1      12.882  19.854  19.329  1.00  0.00    -0.306 N 
HETATM   44  C2  UNL     1      12.432  18.723  20.052  1.00  0.00     0.219 C 
HETATM   45  C1  UNL     1      13.276  17.523  20.211  1.00  0.00     0.117 C 
HETATM   46  O1  UNL     1      11.292  18.751  20.563  1.00  0.00    -0.274 OA
ATOM     47  H1  UNL     1      13.264  20.679  19.791  1.00  0.00     0.171 HD
ENDBRANCH  40  43
ENDBRANCH  35  36
ENDBRANCH  34  35
ENDBRANCH  33  34
ENDBRANCH  32  33
ENDBRANCH   1  32
TORSDOF 14
ENDMDL
MODEL 2
REMARK VINA RESULT: -9.481445464      2.927      8.991
REMARK  14 active torsions:
REMARK  status: ('A' for Active; 'I' for Inactive)
REMARK       I    between atoms: C2_2  and  N1_4 
REMARK    1  A    between atoms: N1_4  and  C3_6 
REMARK    2  A    between atoms: C4_11  and  C5_12 
REMARK    3  A    between atoms: C5_12  and  C6_13 
REMARK    4  A    between atoms: C6_13  and  C7_14 
REMARK    5  A    between atoms: C7_14  and  C8_15 
REMARK    6  A    between atoms: C8_15  and  C9_16 
REMARK    7  A    between atoms: C11_20  and  N5_21 
REMARK       I    between atoms: N5_21  and  C12_23 
REMARK    8  A    between atoms: C12_23  and  C13_25 
REMARK    9  A    between atoms: C13_25  and  C14_26 
REMARK   10  A    between atoms: C14_26  and  C15_27 
REMARK   11  A    between atoms: C15_27  and  O3_29 
REMARK   12  A    between atoms: O3_29  and  C17_30 
REMARK   13  A    between atoms: C17_30  and  C18_32 
REMARK   14  A    between atoms: N6_37  and  C23_38 
ROOT
HETATM    1  C9  UNL     1      18.511  25.642  15.744  1.00  0.00     0.095 A 
HETATM    2  N4  UNL     1      19.350  24.966  16.591  1.00  0.00    -0.351 N 
ATOM      3  H4  UNL     1      20.346  24.863  16.399  1.00  0.00     0.166 HD
HETATM    4  C10 UNL     1      18.779  24.446  17.691  1.00  0.00     0.139 A 
HETATM    5  C11 UNL     1      17.434  24.565  17.982  1.00  0.00     0.138 A 
HETATM    6  N7  UNL     1      16.644  25.248  17.105  1.00  0.00    -0.283 N 
ATOM      7  H7  UNL     1      15.645  25.362  17.277  1.00  0.00     0.188 HD
HETATM    8  N8  UNL     1      17.208  25.755  16.033  1.00  0.00    -0.287 N 
ATOM      9  H8  UNL     1      16.616  26.266  15.379  1.00  0.00     0.188 HD
ENDROOT
BRANCH   5  10
HETATM   10  N5  UNL     1      16.885  24.066  19.039  1.00  0.00    -0.311 N 
HETATM   11  C12 UNL     1      17.662  23.212  19.887  1.00  0.00     0.223 C 
HETATM   12  O2  UNL     1      18.496  23.800  20.617  1.00  0.00    -0.273 OA
ATOM     13  H5  UNL     1      15.913  24.276  19.266  1.00  0.00     0.170 HD
BRANCH  11  14
HETATM   14  C13 UNL     1      17.486  21.747  19.900  1.00  0.00     0.105 C 
BRANCH  14  15
HETATM   15  C14 UNL     1      16.236  21.351  19.216  1.00  0.00     0.041 C 
BRANCH  15  16
HETATM   16  C15 UNL     1      16.313  21.055  17.765  1.00  0.00     0.128 C 
HETATM   17  C16 UNL     1      17.731  20.873  17.266  1.00  0.00     0.040 C 
BRANCH  16  18
HETATM   18  O3  UNL     1      15.759  22.118  16.995  1.00  0.00    -0.315 OA
BRANCH  18  19
HETATM   19  C17 UNL     1      15.665  22.083  15.621  1.00  0.00     0.281 C 
HETATM   20  O4  UNL     1      16.333  22.889  14.959  1.00  0.00    -0.263 OA
BRANCH  19  21
HETATM   21  C18 UNL     1      14.750  21.061  14.998  1.00  0.00     0.179 C 
HETATM   22  C19 UNL     1      14.836  21.119  13.524  1.00  0.00     0.035 C 
HETATM   23  C20 UNL     1      13.704  21.759  12.804  1.00  0.00     0.004 C 
HETATM   24  C21 UNL     1      13.077  22.775  13.735  1.00  0.00     0.020 C 
HETATM   25  C22 UNL     1      12.523  22.001  14.903  1.00  0.00     0.118 C 
HETATM   26  N6  UNL     1      13.482  21.224  15.597  1.00  0.00    -0.395 N 
BRANCH  26  27
HETATM   27  C23 UNL     1      12.972  20.071  16.278  1.00  0.00     0.080 C 
HETATM   28  C24 UNL     1      12.920  20.261  17.777  1.00  0.00     0.025 C 
HETATM   29  C25 UNL     1      11.740  19.401  18.172  1.00  0.00     0.002 C 
HETATM   30  C26 UNL     1      10.732  19.746  17.080  1.00  0.00     0.002 C 
HETATM   31  C27 UNL     1      11.591  19.680  15.832  1.00  0.00     0.025 C 
ENDBRANCH  26  27
ENDBRANCH  19  21
ENDBRANCH  18  19
ENDBRANCH  16  18
ENDBRANCH  15  16
ENDBRANCH  14  15
ENDBRANCH  11  14
ENDBRANCH   5  10
BRANCH   1  32
HETATM   32  C8  UNL     1      19.049  26.235  14.516  1.00  0.00     0.078 C 
BRANCH  32  33
HETATM   33  C7  UNL     1      19.366  27.686  14.683  1.00  0.00     0.008 C 
BRANCH  33  34
HETATM   34  C6  UNL     1      20.804  28.048  14.635  1.00  0.00     0.007 C 
BRANCH  34  35
HETATM   35  C5  UNL     1      21.735  26.871  14.686  1.00  0.00     0.066 C 
BRANCH  35  36
HETATM   36  C4  UNL     1      22.332  26.833  16.075  1.00  0.00     0.069 A 
HETATM   37  N3  UNL     1      23.463  26.257  16.452  1.00  0.00    -0.296 N 
HETATM   38  N2  UNL     1      23.833  26.300  17.666  1.00  0.00    -0.279 N 
ATOM     39  H3  UNL     1      24.041  25.775  15.764  1.00  0.00     0.187 HD
HETATM   40  C3  UNL     1      23.053  26.940  18.548  1.00  0.00     0.167 A 
ATOM     41  H2  UNL     1      24.703  25.859  17.963  1.00  0.00     0.189 HD
HETATM   42  S1  UNL     1      21.770  27.474  17.556  1.00  0.00    -0.038 SA
BRANCH  40  43
HETATM   43  N1  UNL     1      23.258  27.093  19.836  1.00  0.00    -0.306 N 
HETATM   44  C2  UNL     1      22.107  26.991  20.653  1.00  0.00     0.219 C 
HETATM   45  C1  UNL     1      21.556  25.681  21.050  1.00  0.00     0.117 C 
HETATM   46  O1  UNL     1      21.551  28.041  21.042  1.00  0.00    -0.274 OA
ATOM     47  H1  UNL     1      24.185  27.274  20.221  1.00  0.00     0.171 HD
ENDBRANCH  40  43
ENDBRANCH  35  36
ENDBRANCH  34  35
ENDBRANCH  33  34
ENDBRANCH  32  33
ENDBRANCH   1  32
TORSDOF 14
ENDMDL
MODEL 3
REMARK VINA RESULT: -9.463728669      2.929      9.142
REMARK  14 active torsions:
REMARK  status: ('A' for Active; 'I' for Inactive)
REMARK       I    between atoms: C2_2  and  N1_4 
REMARK    1  A    between atoms: N1_4  and  C3_6 
REMARK    2  A    between atoms: C4_11  and  C5_12 
REMARK    3  A    between atoms: C5_12  and  C6_13 
REMARK    4  A    between atoms: C6_13  and  C7_14 
REMARK    5  A    between atoms: C7_14  and  C8_15 
REMARK    6  A    between atoms: C8_15  and  C9_16 
REMARK    7  A    between atoms: C11_20  and  N5_21 
REMARK       I    between atoms: N5_21  and  C12_23 
REMARK    8  A    between atoms: C12_23  and  C13_25 
REMARK    9  A    between atoms: C13_25  and  C14_26 
REMARK   10  A    between atoms: C14_26  and  C15_27 
REMARK   11  A    between atoms: C15_27  and  O3_29 
REMARK   12  A    between atoms: O3_29  and  C17_30 
REMARK   13  A    between atoms: C17_30  and  C18_32 
REMARK   14  A    between atoms: N6_37  and  C23_38 
ROOT
HETATM    1  C9  UNL     1      22.408  26.799  15.499  1.00  0.00     0.095 A 
HETATM    2  N4  UNL     1      21.600  27.903  15.412  1.00  0.00    -0.351 N 
ATOM      3  H4  UNL     1      21.961  28.848  15.536  1.00  0.00     0.166 HD
HETATM    4  C10 UNL     1      20.304  27.662  15.154  1.00  0.00     0.139 A 
HETATM    5  C11 UNL     1      19.782  26.395  14.982  1.00  0.00     0.138 A 
HETATM    6  N7  UNL     1      20.629  25.332  15.079  1.00  0.00    -0.283 N 
ATOM      7  H7  UNL     1      20.290  24.377  14.960  1.00  0.00     0.188 HD
HETATM    8  N8  UNL     1      21.895  25.572  15.330  1.00  0.00    -0.287 N 
ATOM      9  H8  UNL     1      22.528  24.776  15.401  1.00  0.00     0.188 HD
ENDROOT
BRANCH   5  10
HETATM   10  N5  UNL     1      18.535  26.165  14.734  1.00  0.00    -0.311 N 
HETATM   11  C12 UNL     1      17.804  25.291  15.601  1.00  0.00     0.223 C 
HETATM   12  O2  UNL     1      17.476  25.788  16.706  1.00  0.00    -0.273 OA
ATOM     13  H5  UNL     1      18.079  26.599  13.931  1.00  0.00     0.170 HD
BRANCH  11  14
HETATM   14  C13 UNL     1      17.460  23.908  15.217  1.00  0.00     0.105 C 
BRANCH  14  15
HETATM   15  C14 UNL     1      16.043  23.607  15.514  1.00  0.00     0.041 C 
BRANCH  15  16
HETATM   16  C15 UNL     1      15.536  22.263  15.145  1.00  0.00     0.128 C 
HETATM   17  C16 UNL     1      15.534  22.014  13.652  1.00  0.00     0.040 C 
BRANCH  16  18
HETATM   18  O3  UNL     1      14.189  22.088  15.574  1.00  0.00    -0.315 OA
BRANCH  18  19
HETATM   19  C17 UNL     1      13.693  20.884  16.024  1.00  0.00     0.281 C 
HETATM   20  O4  UNL     1      13.335  20.040  15.191  1.00  0.00    -0.263 OA
BRANCH  19  21
HETATM   21  C18 UNL     1      13.614  20.660  17.512  1.00  0.00     0.179 C 
HETATM   22  C19 UNL     1      14.154  21.826  18.241  1.00  0.00     0.035 C 
HETATM   23  C20 UNL     1      15.502  21.679  18.850  1.00  0.00     0.004 C 
HETATM   24  C21 UNL     1      16.270  20.659  18.036  1.00  0.00     0.020 C 
HETATM   25  C22 UNL     1      15.535  19.353  18.183  1.00  0.00     0.118 C 
HETATM   26  N6  UNL     1      14.181  19.394  17.769  1.00  0.00    -0.395 N 
BRANCH  26  27
HETATM   27  C23 UNL     1      13.309  18.448  18.402  1.00  0.00     0.080 C 
HETATM   28  C24 UNL     1      13.994  17.688  19.516  1.00  0.00     0.025 C 
HETATM   29  C25 UNL     1      12.850  17.407  20.466  1.00  0.00     0.002 C 
HETATM   30  C26 UNL     1      12.116  18.745  20.464  1.00  0.00     0.002 C 
HETATM   31  C27 UNL     1      12.075  19.075  18.985  1.00  0.00     0.025 C 
ENDBRANCH  26  27
ENDBRANCH  19  21
ENDBRANCH  18  19
ENDBRANCH  16  18
ENDBRANCH  15  16
ENDBRANCH  14  15
ENDBRANCH  11  14
ENDBRANCH   5  10
BRANCH   1  32
HETATM   32  C8  UNL     1      23.836  26.968  15.785  1.00  0.00     0.078 C 
BRANCH  32  33
HETATM   33  C7  UNL     1      24.072  27.579  17.128  1.00  0.00     0.008 C 
BRANCH  33  34
HETATM   34  C6  UNL     1      24.108  26.637  18.274  1.00  0.00     0.007 C 
BRANCH  34  35
HETATM   35  C5  UNL     1      23.135  26.966  19.369  1.00  0.00     0.066 C 
BRANCH  35  36
HETATM   36  C4  UNL     1      21.868  26.190  19.092  1.00  0.00     0.069 A 
HETATM   37  N3  UNL     1      20.701  26.666  18.686  1.00  0.00    -0.296 N 
HETATM   38  N2  UNL     1      19.716  25.885  18.503  1.00  0.00    -0.279 N 
ATOM     39  H3  UNL     1      20.592  27.667  18.519  1.00  0.00     0.187 HD
HETATM   40  C3  UNL     1      19.889  24.577  18.732  1.00  0.00     0.167 A 
ATOM     41  H2  UNL     1      18.816  26.246  18.190  1.00  0.00     0.189 HD
HETATM   42  S1  UNL     1      21.524  24.520  19.218  1.00  0.00    -0.038 SA
BRANCH  40  43
HETATM   43  N1  UNL     1      19.002  23.617  18.603  1.00  0.00    -0.306 N 
HETATM   44  C2  UNL     1      18.961  22.680  19.662  1.00  0.00     0.219 C 
HETATM   45  C1  UNL     1      18.244  22.967  20.920  1.00  0.00     0.117 C 
HETATM   46  O1  UNL     1      19.547  21.585  19.519  1.00  0.00    -0.274 OA
ATOM     47  H1  UNL     1      18.384  23.553  17.794  1.00  0.00     0.171 HD
ENDBRANCH  40  43
ENDBRANCH  35  36
ENDBRANCH  34  35
ENDBRANCH  33  34
ENDBRANCH  32  33
ENDBRANCH   1  32
TORSDOF 14
ENDMDL
MODEL 4
REMARK VINA RESULT: -9.461909127      2.827      8.715
REMARK  14 active torsions:
REMARK  status: ('A' for Active; 'I' for Inactive)
REMARK       I    between atoms: C2_2  and  N1_4 
REMARK    1  A    between atoms: N1_4  and  C3_6 
REMARK    2  A    between atoms: C4_11  and  C5_12 
REMARK    3  A    between atoms: C5_12  and  C6_13 
REMARK    4  A    between atoms: C6_13  and  C7_14 
REMARK    5  A    between atoms: C7_14  and  C8_15 
REMARK    6  A    between atoms: C8_15  and  C9_16 
REMARK    7  A    between atoms: C11_20  and  N5_21 
REMARK       I    between atoms: N5_21  and  C12_23 
REMARK    8  A    between atoms: C12_23  and  C13_25 
REMARK    9  A    between atoms: C13_25  and  C14_26 
REMARK   10  A    between atoms: C14_26  and  C15_27 
REMARK   11  A    between atoms: C15_27  and  O3_29 
REMARK   12  A    between atoms: O3_29  and  C17_30 
REMARK   13  A    between atoms: C17_30  and  C18_32 
REMARK   14  A    between atoms: N6_37  and  C23_38 
ROOT
HETATM    1  C9  UNL     1      18.289  25.626  15.906  1.00  0.00     0.095 A 
HETATM    2  N4  UNL     1      17.053  25.897  16.431  1.00  0.00    -0.351 N 
ATOM      3  H4  UNL     1      16.387  26.509  15.960  1.00  0.00     0.166 HD
HETATM    4  C10 UNL     1      16.772  25.308  17.605  1.00  0.00     0.139 A 
HETATM    5  C11 UNL     1      17.650  24.474  18.271  1.00  0.00     0.138 A 
HETATM    6  N7  UNL     1      18.867  24.238  17.704  1.00  0.00    -0.283 N 
ATOM      7  H7  UNL     1      19.549  23.630  18.158  1.00  0.00     0.188 HD
HETATM    8  N8  UNL     1      19.136  24.816  16.556  1.00  0.00    -0.287 N 
ATOM      9  H8  UNL     1      20.046  24.637  16.133  1.00  0.00     0.188 HD
ENDROOT
BRANCH   5  10
HETATM   10  N5  UNL     1      17.379  23.908  19.400  1.00  0.00    -0.311 N 
HETATM   11  C12 UNL     1      18.226  22.853  19.868  1.00  0.00     0.223 C 
HETATM   12  O2  UNL     1      19.331  23.223  20.336  1.00  0.00    -0.273 OA
ATOM     13  H5  UNL     1      16.574  24.208  19.949  1.00  0.00     0.170 HD
BRANCH  11  14
HETATM   14  C13 UNL     1      17.823  21.435  19.806  1.00  0.00     0.105 C 
BRANCH  14  15
HETATM   15  C14 UNL     1      16.476  21.286  19.215  1.00  0.00     0.041 C 
BRANCH  15  16
HETATM   16  C15 UNL     1      16.392  21.019  17.758  1.00  0.00     0.128 C 
HETATM   17  C16 UNL     1      17.747  20.853  17.102  1.00  0.00     0.040 C 
BRANCH  16  18
HETATM   18  O3  UNL     1      15.754  22.093  17.075  1.00  0.00    -0.315 OA
BRANCH  18  19
HETATM   19  C17 UNL     1      15.590  22.125  15.708  1.00  0.00     0.281 C 
HETATM   20  O4  UNL     1      16.156  23.017  15.062  1.00  0.00    -0.263 OA
BRANCH  19  21
HETATM   21  C18 UNL     1      14.725  21.067  15.073  1.00  0.00     0.179 C 
HETATM   22  C19 UNL     1      14.848  21.112  13.601  1.00  0.00     0.035 C 
HETATM   23  C20 UNL     1      13.714  21.707  12.845  1.00  0.00     0.004 C 
HETATM   24  C21 UNL     1      13.030  22.711  13.748  1.00  0.00     0.020 C 
HETATM   25  C22 UNL     1      12.472  21.931  14.909  1.00  0.00     0.118 C 
HETATM   26  N6  UNL     1      13.437  21.193  15.637  1.00  0.00    -0.395 N 
BRANCH  26  27
HETATM   27  C23 UNL     1      12.948  20.031  16.317  1.00  0.00     0.080 C 
HETATM   28  C24 UNL     1      12.971  20.189  17.821  1.00  0.00     0.025 C 
HETATM   29  C25 UNL     1      11.801  19.332  18.254  1.00  0.00     0.002 C 
HETATM   30  C26 UNL     1      10.746  19.712  17.220  1.00  0.00     0.002 C 
HETATM   31  C27 UNL     1      11.542  19.665  15.931  1.00  0.00     0.025 C 
ENDBRANCH  26  27
ENDBRANCH  19  21
ENDBRANCH  18  19
ENDBRANCH  16  18
ENDBRANCH  15  16
ENDBRANCH  14  15
ENDBRANCH  11  14
ENDBRANCH   5  10
BRANCH   1  32
HETATM   32  C8  UNL     1      18.682  26.233  14.631  1.00  0.00     0.078 C 
BRANCH  32  33
HETATM   33  C7  UNL     1      20.134  26.583  14.598  1.00  0.00     0.008 C 
BRANCH  33  34
HETATM   34  C6  UNL     1      20.497  27.907  15.162  1.00  0.00     0.007 C 
BRANCH  34  35
HETATM   35  C5  UNL     1      21.853  27.951  15.804  1.00  0.00     0.066 C 
BRANCH  35  36
HETATM   36  C4  UNL     1      21.770  27.150  17.083  1.00  0.00     0.069 A 
HETATM   37  N3  UNL     1      22.395  26.019  17.370  1.00  0.00    -0.296 N 
HETATM   38  N2  UNL     1      22.217  25.453  18.493  1.00  0.00    -0.279 N 
ATOM     39  H3  UNL     1      23.025  25.599  16.686  1.00  0.00     0.187 HD
HETATM   40  C3  UNL     1      21.384  26.027  19.372  1.00  0.00     0.167 A 
ATOM     41  H2  UNL     1      22.696  24.582  18.720  1.00  0.00     0.189 HD
HETATM   42  S1  UNL     1      20.872  27.411  18.514  1.00  0.00    -0.038 SA
BRANCH  40  43
HETATM   43  N1  UNL     1      21.069  25.601  20.573  1.00  0.00    -0.306 N 
HETATM   44  C2  UNL     1      22.160  25.385  21.448  1.00  0.00     0.219 C 
HETATM   45  C1  UNL     1      22.799  26.499  22.175  1.00  0.00     0.117 C 
HETATM   46  O1  UNL     1      22.584  24.219  21.603  1.00  0.00    -0.274 OA
ATOM     47  H1  UNL     1      20.103  25.437  20.856  1.00  0.00     0.171 HD
ENDBRANCH  40  43
ENDBRANCH  35  36
ENDBRANCH  34  35
ENDBRANCH  33  34
ENDBRANCH  32  33
ENDBRANCH   1  32
TORSDOF 14
ENDMDL
MODEL 5
REMARK VINA RESULT: -9.438966703      2.169      4.778
REMARK  14 active torsions:
REMARK  status: ('A' for Active; 'I' for Inactive)
REMARK       I    between atoms: C2_2  and  N1_4 
REMARK    1  A    between atoms: N1_4  and  C3_6 
REMARK    2  A    between atoms: C4_11  and  C5_12 
REMARK    3  A    between atoms: C5_12  and  C6_13 
REMARK    4  A    between atoms: C6_13  and  C7_14 
REMARK    5  A    between atoms: C7_14  and  C8_15 
REMARK    6  A    between atoms: C8_15  and  C9_16 
REMARK    7  A    between atoms: C11_20  and  N5_21 
REMARK       I    between atoms: N5_21  and  C12_23 
REMARK    8  A    between atoms: C12_23  and  C13_25 
REMARK    9  A    between atoms: C13_25  and  C14_26 
REMARK   10  A    between atoms: C14_26  and  C15_27 
REMARK   11  A    between atoms: C15_27  and  O3_29 
REMARK   12  A    between atoms: O3_29  and  C17_30 
REMARK   13  A    between atoms: C17_30  and  C18_32 
REMARK   14  A    between atoms: N6_37  and  C23_38 
ROOT
HETATM    1  C9  UNL     1      14.518  20.761  18.712  1.00  0.00     0.095 A 
HETATM    2  N4  UNL     1      14.407  22.023  19.234  1.00  0.00    -0.351 N 
ATOM      3  H4  UNL     1      14.140  22.185  20.205  1.00  0.00     0.166 HD
HETATM    4  C10 UNL     1      14.671  23.034  18.390  1.00  0.00     0.139 A 
HETATM    5  C11 UNL     1      15.034  22.850  17.069  1.00  0.00     0.138 A 
HETATM    6  N7  UNL     1      15.130  21.574  16.600  1.00  0.00    -0.283 N 
ATOM      7  H7  UNL     1      15.394  21.389  15.633  1.00  0.00     0.188 HD
HETATM    8  N8  UNL     1      14.872  20.590  17.431  1.00  0.00    -0.287 N 
ATOM      9  H8  UNL     1      14.945  19.636  17.078  1.00  0.00     0.188 HD
ENDROOT
BRANCH   5  10
HETATM   10  N5  UNL     1      15.287  23.822  16.257  1.00  0.00    -0.311 N 
HETATM   11  C12 UNL     1      16.608  23.951  15.719  1.00  0.00     0.223 C 
HETATM   12  O2  UNL     1      16.896  23.136  14.809  1.00  0.00    -0.273 OA
ATOM     13  H5  UNL     1      14.557  24.488  16.003  1.00  0.00     0.170 HD
BRANCH  11  14
HETATM   14  C13 UNL     1      17.557  24.973  16.201  1.00  0.00     0.105 C 
BRANCH  14  15
HETATM   15  C14 UNL     1      18.939  24.665  15.773  1.00  0.00     0.041 C 
BRANCH  15  16
HETATM   16  C15 UNL     1      19.950  25.743  15.890  1.00  0.00     0.128 C 
HETATM   17  C16 UNL     1      20.896  25.806  14.709  1.00  0.00     0.040 C 
BRANCH  16  18
HETATM   18  O3  UNL     1      20.769  25.556  17.040  1.00  0.00    -0.315 OA
BRANCH  18  19
HETATM   19  C17 UNL     1      20.663  26.330  18.174  1.00  0.00     0.281 C 
HETATM   20  O4  UNL     1      20.901  27.543  18.090  1.00  0.00    -0.263 OA
BRANCH  19  21
HETATM   21  C18 UNL     1      20.262  25.654  19.459  1.00  0.00     0.179 C 
HETATM   22  C19 UNL     1      21.073  26.161  20.586  1.00  0.00     0.035 C 
HETATM   23  C20 UNL     1      22.148  25.273  21.101  1.00  0.00     0.004 C 
HETATM   24  C21 UNL     1      22.600  24.384  19.962  1.00  0.00     0.020 C 
HETATM   25  C22 UNL     1      21.416  23.532  19.588  1.00  0.00     0.118 C 
HETATM   26  N6  UNL     1      20.263  24.265  19.213  1.00  0.00    -0.395 N 
BRANCH  26  27
HETATM   27  C23 UNL     1      19.010  23.602  19.424  1.00  0.00     0.080 C 
HETATM   28  C24 UNL     1      18.877  22.341  18.600  1.00  0.00     0.025 C 
HETATM   29  C25 UNL     1      17.995  21.476  19.473  1.00  0.00     0.002 C 
HETATM   30  C26 UNL     1      18.602  21.716  20.852  1.00  0.00     0.002 C 
HETATM   31  C27 UNL     1      18.774  23.222  20.859  1.00  0.00     0.025 C 
ENDBRANCH  26  27
ENDBRANCH  19  21
ENDBRANCH  18  19
ENDBRANCH  16  18
ENDBRANCH  15  16
ENDBRANCH  14  15
ENDBRANCH  11  14
ENDBRANCH   5  10
BRANCH   1  32
HETATM   32  C8  UNL     1      14.241  19.599  19.562  1.00  0.00     0.078 C 
BRANCH  32  33
HETATM   33  C7  UNL     1      13.367  18.599  18.880  1.00  0.00     0.008 C 
BRANCH  33  34
HETATM   34  C6  UNL     1      11.904  18.813  19.015  1.00  0.00     0.007 C 
BRANCH  34  35
HETATM   35  C5  UNL     1      11.078  18.066  18.010  1.00  0.00     0.066 C 
BRANCH  35  36
HETATM   36  C4  UNL     1      11.340  18.692  16.659  1.00  0.00     0.069 A 
HETATM   37  N3  UNL     1      11.467  18.077  15.494  1.00  0.00    -0.296 N 
HETATM   38  N2  UNL     1      11.697  18.743  14.437  1.00  0.00    -0.279 N 
ATOM     39  H3  UNL     1      11.379  17.062  15.444  1.00  0.00     0.187 HD
HETATM   40  C3  UNL     1      11.809  20.075  14.533  1.00  0.00     0.167 A 
ATOM     41  H2  UNL     1      11.795  18.275  13.536  1.00  0.00     0.189 HD
HETATM   42  S1  UNL     1      11.568  20.325  16.205  1.00  0.00    -0.038 SA
BRANCH  40  43
HETATM   43  N1  UNL     1      12.044  20.931  13.567  1.00  0.00    -0.306 N 
HETATM   44  C2  UNL     1      13.275  21.625  13.653  1.00  0.00     0.219 C 
HETATM   45  C1  UNL     1      14.541  21.008  13.211  1.00  0.00     0.117 C 
HETATM   46  O1  UNL     1      13.279  22.786  14.116  1.00  0.00    -0.274 OA
ATOM     47  H1  UNL     1      11.384  21.086  12.805  1.00  0.00     0.171 HD
ENDBRANCH  40  43
ENDBRANCH  35  36
ENDBRANCH  34  35
ENDBRANCH  33  34
ENDBRANCH  32  33
ENDBRANCH   1  32
TORSDOF 14
ENDMDL
