MODEL 1
REMARK VINA RESULT: -9.152809315      0.000      0.000
REMARK  13 active torsions:
REMARK  status: ('A' for Active; 'I' for Inactive)
REMARK    1  A    between atoms: C2_2  and  C3_3 
REMARK    2  A    between atoms: C3_3  and  C4_4 
REMARK    3  A    between atoms: C4_4  and  C5_5 
REMARK    4  A    between atoms: N1_7  and  C7_8 
REMARK    5  A    between atoms: C10_13  and  N3_14 
REMARK    6  A    between atoms: N3_14  and  C11_16 
REMARK    7  A    between atoms: C12_19  and  C13_20 
REMARK    8  A    between atoms: C13_20  and  C14_21 
REMARK    9  A    between atoms: N6_25  and  O1_26 
REMARK   10  A    between atoms: C18_30  and  O2_31 
REMARK   11  A    between atoms: N8_40  and  C25_41 
REMARK   12  A    between atoms: C25_41  and  C26_42 
REMARK   13  A    between atoms: C26_42  and  N9_43 
ROOT
HETATM    1  C7  UNL     1      15.366  22.184  16.559  1.00  0.00     0.681 A 
HETATM    2  N2  UNL     1      16.334  23.008  16.128  1.00  0.00    -0.189 N 
ATOM      3  H2  UNL     1      16.311  23.542  15.260  1.00  0.00     0.184 HD
HETATM    4  C8  UNL     1      17.332  23.019  17.015  1.00  0.00     0.078 A 
HETATM    5  C9  UNL     1      18.548  23.641  17.165  1.00  0.00     0.064 A 
HETATM    6  C10 UNL     1      19.385  23.456  18.256  1.00  0.00     0.069 A 
HETATM    7  C18 UNL     1      18.928  22.579  19.227  1.00  0.00     0.097 A 
HETATM    8  C20 UNL     1      17.730  21.943  19.117  1.00  0.00     0.071 A 
HETATM    9  C21 UNL     1      16.937  22.162  18.022  1.00  0.00     0.079 A 
HETATM   10  N7  UNL     1      15.727  21.649  17.737  1.00  0.00    -0.189 N 
ATOM     11  H7  UNL     1      15.193  20.989  18.302  1.00  0.00     0.184 HD
ENDROOT
BRANCH   1  12
HETATM   12  N1  UNL     1      14.107  21.889  15.949  1.00  0.00    -0.212 N 
HETATM   13  C6  UNL     1      13.687  20.541  16.119  1.00  0.00     0.193 C 
HETATM   14  C5  UNL     1      12.374  20.151  15.491  1.00  0.00     0.003 C 
HETATM   15  N8  UNL     1      12.119  20.626  14.200  1.00  0.00    -0.384 N 
HETATM   16  C24 UNL     1      11.927  21.976  13.911  1.00  0.00     0.124 C 
HETATM   17  C23 UNL     1      13.243  22.771  13.844  1.00  0.00     0.040 C 
HETATM   18  C22 UNL     1      13.565  23.047  15.296  1.00  0.00     0.143 C 
BRANCH  14  19
HETATM   19  C4  UNL     1      11.247  20.068  16.466  1.00  0.00     0.054 C 
BRANCH  19  20
HETATM   20  C3  UNL     1      11.528  19.509  17.808  1.00  0.00     0.005 C 
BRANCH  20  21
HETATM   21  C2  UNL     1      11.137  18.025  17.764  1.00  0.00    -0.004 C 
HETATM   22  C1  UNL     1      12.226  17.147  18.341  1.00  0.00     0.005 C 
ENDBRANCH  20  21
ENDBRANCH  19  20
ENDBRANCH  14  19
BRANCH  15  23
HETATM   23  C25 UNL     1      11.905  19.701  13.153  1.00  0.00     0.152 C 
BRANCH  23  24
HETATM   24  C26 UNL     1      11.404  18.375  13.590  1.00  0.00     0.292 C 
BRANCH  24  25
HETATM   25  N9  UNL     1      10.559  17.715  12.640  1.00  0.00     0.094 N 
HETATM   26  C27 UNL     1      11.355  17.455  11.452  1.00  0.00     0.298 C 
HETATM   27  C28 UNL     1      12.415  16.396  11.724  1.00  0.00     0.198 C 
HETATM   28  O3  UNL     1      12.131  15.581  12.791  1.00  0.00    -0.388 OA
HETATM   29  C29 UNL     1      10.807  15.302  12.989  1.00  0.00     0.198 C 
HETATM   30  C30 UNL     1       9.929  16.517  13.043  1.00  0.00     0.298 C 
ENDBRANCH  24  25
ENDBRANCH  23  24
ENDBRANCH  15  23
ENDBRANCH   1  12
BRANCH   6  31
HETATM   31  N3  UNL     1      20.596  24.054  18.456  1.00  0.00    -0.338 N 
ATOM     32  H3  UNL     1      21.310  23.345  18.626  1.00  0.00     0.167 HD
BRANCH  31  33
HETATM   33  C11 UNL     1      21.102  25.179  18.496  1.00  0.00     0.134 A 
HETATM   34  N4  UNL     1      21.543  25.690  17.302  1.00  0.00    -0.329 N 
HETATM   35  C12 UNL     1      22.108  26.865  17.137  1.00  0.00     0.099 A 
ATOM     36  H4  UNL     1      21.422  25.109  16.472  1.00  0.00     0.168 HD
HETATM   37  N5  UNL     1      22.273  27.649  18.244  1.00  0.00    -0.263 N 
HETATM   38  N6  UNL     1      21.867  27.204  19.412  1.00  0.00    -0.163 N 
ATOM     39  H5  UNL     1      22.706  28.569  18.164  1.00  0.00     0.191 HD
HETATM   40  C16 UNL     1      21.278  25.985  19.597  1.00  0.00     0.099 A 
HETATM   41  C17 UNL     1      20.856  25.569  20.963  1.00  0.00     0.077 C 
BRANCH  35  42
HETATM   42  C13 UNL     1      22.598  27.434  15.841  1.00  0.00     0.077 C 
BRANCH  42  43
HETATM   43  C14 UNL     1      21.582  28.448  15.373  1.00  0.00     0.003 C 
HETATM   44  C15 UNL     1      20.716  27.998  14.249  1.00  0.00     0.005 C 
ENDBRANCH  42  43
ENDBRANCH  35  42
BRANCH  38  45
HETATM   45  O1  UNL     1      22.028  27.996  20.548  1.00  0.00    -0.268 OA
ATOM     46  H1  UNL     1      21.413  27.918  21.268  1.00  0.00     0.247 HD
ENDBRANCH  38  45
ENDBRANCH  31  33
ENDBRANCH   6  31
BRANCH   7  47
HETATM   47  O2  UNL     1      19.710  22.333  20.359  1.00  0.00    -0.354 OA
HETATM   48  C19 UNL     1      19.145  21.686  21.482  1.00  0.00     0.210 C 
ENDBRANCH   7  47
TORSDOF 13
ENDMDL
MODEL 2
REMARK VINA RESULT: -9.046832060      2.882      4.988
REMARK  13 active torsions:
REMARK  status: ('A' for Active; 'I' for Inactive)
REMARK    1  A    between atoms: C2_2  and  C3_3 
REMARK    2  A    between atoms: C3_3  and  C4_4 
REMARK    3  A    between atoms: C4_4  and  C5_5 
REMARK    4  A    between atoms: N1_7  and  C7_8 
REMARK    5  A    between atoms: C10_13  and  N3_14 
REMARK    6  A    between atoms: N3_14  and  C11_16 
REMARK    7  A    between atoms: C12_19  and  C13_20 
REMARK    8  A    between atoms: C13_20  and  C14_21 
REMARK    9  A    between atoms: N6_25  and  O1_26 
REMARK   10  A    between atoms: C18_30  and  O2_31 
REMARK   11  A    between atoms: N8_40  and  C25_41 
REMARK   12  A    between atoms: C25_41  and  C26_42 
REMARK   13  A    between atoms: C26_42  and  N9_43 
ROOT
HETATM    1  C7  UNL     1      17.488  23.027  17.024  1.00  0.00     0.681 A 
HETATM    2  N2  UNL     1      18.559  23.039  17.832  1.00  0.00    -0.189 N 
ATOM      3  H2  UNL     1      18.807  22.304  18.495  1.00  0.00     0.184 HD
HETATM    4  C8  UNL     1      19.250  24.164  17.634  1.00  0.00     0.078 A 
HETATM    5  C9  UNL     1      20.399  24.746  18.112  1.00  0.00     0.064 A 
HETATM    6  C10 UNL     1      20.892  25.968  17.674  1.00  0.00     0.069 A 
HETATM    7  C18 UNL     1      20.144  26.606  16.697  1.00  0.00     0.097 A 
HETATM    8  C20 UNL     1      19.000  26.064  16.197  1.00  0.00     0.071 A 
HETATM    9  C21 UNL     1      18.557  24.853  16.659  1.00  0.00     0.079 A 
HETATM   10  N7  UNL     1      17.473  24.151  16.287  1.00  0.00    -0.189 N 
ATOM     11  H7  UNL     1      16.780  24.417  15.587  1.00  0.00     0.184 HD
ENDROOT
BRANCH   1  12
HETATM   12  N1  UNL     1      16.492  22.012  16.876  1.00  0.00    -0.212 N 
HETATM   13  C6  UNL     1      15.293  22.468  16.261  1.00  0.00     0.193 C 
HETATM   14  C5  UNL     1      14.190  21.457  16.084  1.00  0.00     0.003 C 
HETATM   15  N8  UNL     1      13.941  20.592  17.154  1.00  0.00    -0.384 N 
HETATM   16  C24 UNL     1      14.848  19.621  17.574  1.00  0.00     0.124 C 
HETATM   17  C23 UNL     1      15.994  20.194  18.425  1.00  0.00     0.040 C 
HETATM   18  C22 UNL     1      16.951  20.757  17.399  1.00  0.00     0.143 C 
BRANCH  14  19
HETATM   19  C4  UNL     1      14.079  20.933  14.691  1.00  0.00     0.054 C 
BRANCH  19  20
HETATM   20  C3  UNL     1      13.190  21.648  13.747  1.00  0.00     0.005 C 
BRANCH  20  21
HETATM   21  C2  UNL     1      13.984  21.845  12.448  1.00  0.00    -0.004 C 
HETATM   22  C1  UNL     1      15.477  21.779  12.695  1.00  0.00     0.005 C 
ENDBRANCH  20  21
ENDBRANCH  19  20
ENDBRANCH  14  19
BRANCH  15  23
HETATM   23  C25 UNL     1      12.664  20.593  17.761  1.00  0.00     0.152 C 
BRANCH  23  24
HETATM   24  C26 UNL     1      11.771  19.489  17.330  1.00  0.00     0.292 C 
BRANCH  24  25
HETATM   25  N9  UNL     1      11.077  18.834  18.398  1.00  0.00     0.094 N 
HETATM   26  C27 UNL     1      10.586  17.565  17.887  1.00  0.00     0.298 C 
HETATM   27  C28 UNL     1      11.734  16.602  17.618  1.00  0.00     0.198 C 
HETATM   28  O3  UNL     1      12.880  16.888  18.318  1.00  0.00    -0.388 OA
HETATM   29  C29 UNL     1      12.697  17.415  19.566  1.00  0.00     0.198 C 
HETATM   30  C30 UNL     1      11.784  18.605  19.598  1.00  0.00     0.298 C 
ENDBRANCH  24  25
ENDBRANCH  23  24
ENDBRANCH  15  23
ENDBRANCH   1  12
BRANCH   6  31
HETATM   31  N3  UNL     1      22.030  26.583  18.110  1.00  0.00    -0.338 N 
ATOM     32  H3  UNL     1      22.063  27.540  17.759  1.00  0.00     0.167 HD
BRANCH  31  33
HETATM   33  C11 UNL     1      23.030  26.350  18.794  1.00  0.00     0.134 A 
HETATM   34  N4  UNL     1      24.073  25.729  18.154  1.00  0.00    -0.329 N 
HETATM   35  C12 UNL     1      25.217  25.396  18.707  1.00  0.00     0.099 A 
ATOM     36  H4  UNL     1      23.949  25.508  17.166  1.00  0.00     0.168 HD
HETATM   37  N5  UNL     1      25.391  25.691  20.030  1.00  0.00    -0.263 N 
HETATM   38  N6  UNL     1      24.421  26.285  20.688  1.00  0.00    -0.163 N 
ATOM     39  H5  UNL     1      26.264  25.452  20.501  1.00  0.00     0.191 HD
HETATM   40  C16 UNL     1      23.226  26.636  20.125  1.00  0.00     0.099 A 
HETATM   41  C17 UNL     1      22.186  27.303  20.957  1.00  0.00     0.077 C 
BRANCH  35  42
HETATM   42  C13 UNL     1      26.363  24.716  18.022  1.00  0.00     0.077 C 
BRANCH  42  43
HETATM   43  C14 UNL     1      26.835  23.598  18.920  1.00  0.00     0.003 C 
HETATM   44  C15 UNL     1      26.034  22.345  18.839  1.00  0.00     0.005 C 
ENDBRANCH  42  43
ENDBRANCH  35  42
BRANCH  38  45
HETATM   45  O1  UNL     1      24.587  26.592  22.037  1.00  0.00    -0.268 OA
ATOM     46  H1  UNL     1      24.748  27.491  22.300  1.00  0.00     0.247 HD
ENDBRANCH  38  45
ENDBRANCH  31  33
ENDBRANCH   6  31
BRANCH   7  47
HETATM   47  O2  UNL     1      20.567  27.841  16.201  1.00  0.00    -0.354 OA
HETATM   48  C19 UNL     1      20.426  28.137  14.825  1.00  0.00     0.210 C 
ENDBRANCH   7  47
TORSDOF 13
ENDMDL
MODEL 3
REMARK VINA RESULT: -9.021954918      2.940      4.113
REMARK  13 active torsions:
REMARK  status: ('A' for Active; 'I' for Inactive)
REMARK    1  A    between atoms: C2_2  and  C3_3 
REMARK    2  A    between atoms: C3_3  and  C4_4 
REMARK    3  A    between atoms: C4_4  and  C5_5 
REMARK    4  A    between atoms: N1_7  and  C7_8 
REMARK    5  A    between atoms: C10_13  and  N3_14 
REMARK    6  A    between atoms: N3_14  and  C11_16 
REMARK    7  A    between atoms: C12_19  and  C13_20 
REMARK    8  A    between atoms: C13_20  and  C14_21 
REMARK    9  A    between atoms: N6_25  and  O1_26 
REMARK   10  A    between atoms: C18_30  and  O2_31 
REMARK   11  A    between atoms: N8_40  and  C25_41 
REMARK   12  A    between atoms: C25_41  and  C26_42 
REMARK   13  A    between atoms: C26_42  and  N9_43 
ROOT
HETATM    1  C7  UNL     1      17.542  22.191  19.196  1.00  0.00     0.681 A 
HETATM    2  N2  UNL     1      18.673  22.234  18.474  1.00  0.00    -0.189 N 
ATOM      3  H2  UNL     1      18.843  21.714  17.613  1.00  0.00     0.184 HD
HETATM    4  C8  UNL     1      19.540  23.063  19.058  1.00  0.00     0.078 A 
HETATM    5  C9  UNL     1      20.809  23.535  18.822  1.00  0.00     0.064 A 
HETATM    6  C10 UNL     1      21.463  24.447  19.639  1.00  0.00     0.069 A 
HETATM    7  C18 UNL     1      20.757  24.879  20.750  1.00  0.00     0.097 A 
HETATM    8  C20 UNL     1      19.499  24.436  21.020  1.00  0.00     0.071 A 
HETATM    9  C21 UNL     1      18.894  23.538  20.182  1.00  0.00     0.079 A 
HETATM   10  N7  UNL     1      17.665  22.999  20.264  1.00  0.00    -0.189 N 
ATOM     11  H7  UNL     1      16.968  23.168  20.989  1.00  0.00     0.184 HD
ENDROOT
BRANCH   1  12
HETATM   12  N1  UNL     1      16.340  21.464  18.933  1.00  0.00    -0.212 N 
HETATM   13  C6  UNL     1      16.526  20.329  18.095  1.00  0.00     0.193 C 
HETATM   14  C5  UNL     1      15.300  19.520  17.761  1.00  0.00     0.003 C 
HETATM   15  N8  UNL     1      14.136  20.228  17.444  1.00  0.00    -0.384 N 
HETATM   16  C24 UNL     1      13.445  21.008  18.370  1.00  0.00     0.124 C 
HETATM   17  C23 UNL     1      14.101  22.378  18.613  1.00  0.00     0.040 C 
HETATM   18  C22 UNL     1      15.216  22.070  19.587  1.00  0.00     0.143 C 
BRANCH  14  19
HETATM   19  C4  UNL     1      15.186  18.257  18.549  1.00  0.00     0.054 C 
BRANCH  19  20
HETATM   20  C3  UNL     1      13.831  17.771  18.893  1.00  0.00     0.005 C 
BRANCH  20  21
HETATM   21  C2  UNL     1      13.628  18.041  20.391  1.00  0.00    -0.004 C 
HETATM   22  C1  UNL     1      12.238  18.571  20.675  1.00  0.00     0.005 C 
ENDBRANCH  20  21
ENDBRANCH  19  20
ENDBRANCH  14  19
BRANCH  15  23
HETATM   23  C25 UNL     1      13.541  20.046  16.175  1.00  0.00     0.152 C 
BRANCH  23  24
HETATM   24  C26 UNL     1      14.392  20.447  15.028  1.00  0.00     0.292 C 
BRANCH  24  25
HETATM   25  N9  UNL     1      14.692  21.846  14.969  1.00  0.00     0.094 N 
HETATM   26  C27 UNL     1      15.538  22.064  13.807  1.00  0.00     0.298 C 
HETATM   27  C28 UNL     1      14.759  21.852  12.516  1.00  0.00     0.198 C 
HETATM   28  O3  UNL     1      13.400  21.981  12.655  1.00  0.00    -0.388 OA
HETATM   29  C29 UNL     1      12.981  22.905  13.571  1.00  0.00     0.198 C 
HETATM   30  C30 UNL     1      13.608  22.749  14.925  1.00  0.00     0.298 C 
ENDBRANCH  24  25
ENDBRANCH  23  24
ENDBRANCH  15  23
ENDBRANCH   1  12
BRANCH   6  31
HETATM   31  N3  UNL     1      22.717  24.951  19.444  1.00  0.00    -0.338 N 
ATOM     32  H3  UNL     1      23.403  24.374  19.931  1.00  0.00     0.167 HD
BRANCH  31  33
HETATM   33  C11 UNL     1      23.284  25.883  18.866  1.00  0.00     0.134 A 
HETATM   34  N4  UNL     1      22.801  26.213  17.625  1.00  0.00    -0.329 N 
HETATM   35  C12 UNL     1      23.268  27.169  16.854  1.00  0.00     0.099 A 
ATOM     36  H4  UNL     1      22.013  25.670  17.271  1.00  0.00     0.168 HD
HETATM   37  N5  UNL     1      24.323  27.901  17.322  1.00  0.00    -0.263 N 
HETATM   38  N6  UNL     1      24.822  27.624  18.506  1.00  0.00    -0.163 N 
ATOM     39  H5  UNL     1      24.718  28.654  16.759  1.00  0.00     0.191 HD
HETATM   40  C16 UNL     1      24.346  26.632  19.317  1.00  0.00     0.099 A 
HETATM   41  C17 UNL     1      24.983  26.392  20.641  1.00  0.00     0.077 C 
BRANCH  35  42
HETATM   42  C13 UNL     1      22.754  27.537  15.497  1.00  0.00     0.077 C 
BRANCH  42  43
HETATM   43  C14 UNL     1      21.876  26.406  15.017  1.00  0.00     0.003 C 
HETATM   44  C15 UNL     1      20.598  26.828  14.381  1.00  0.00     0.005 C 
ENDBRANCH  42  43
ENDBRANCH  35  42
BRANCH  38  45
HETATM   45  O1  UNL     1      25.897  28.365  18.995  1.00  0.00    -0.268 OA
ATOM     46  H1  UNL     1      26.717  27.929  19.198  1.00  0.00     0.247 HD
ENDBRANCH  38  45
ENDBRANCH  31  33
ENDBRANCH   6  31
BRANCH   7  47
HETATM   47  O2  UNL     1      21.343  25.796  21.627  1.00  0.00    -0.354 OA
HETATM   48  C19 UNL     1      21.109  27.181  21.461  1.00  0.00     0.210 C 
ENDBRANCH   7  47
TORSDOF 13
ENDMDL
MODEL 4
REMARK VINA RESULT: -8.967434781      1.957      2.716
REMARK  13 active torsions:
REMARK  status: ('A' for Active; 'I' for Inactive)
REMARK    1  A    between atoms: C2_2  and  C3_3 
REMARK    2  A    between atoms: C3_3  and  C4_4 
REMARK    3  A    between atoms: C4_4  and  C5_5 
REMARK    4  A    between atoms: N1_7  and  C7_8 
REMARK    5  A    between atoms: C10_13  and  N3_14 
REMARK    6  A    between atoms: N3_14  and  C11_16 
REMARK    7  A    between atoms: C12_19  and  C13_20 
REMARK    8  A    between atoms: C13_20  and  C14_21 
REMARK    9  A    between atoms: N6_25  and  O1_26 
REMARK   10  A    between atoms: C18_30  and  O2_31 
REMARK   11  A    between atoms: N8_40  and  C25_41 
REMARK   12  A    between atoms: C25_41  and  C26_42 
REMARK   13  A    between atoms: C26_42  and  N9_43 
ROOT
HETATM    1  C7  UNL     1      15.424  23.067  16.225  1.00  0.00     0.681 A 
HETATM    2  N2  UNL     1      15.952  24.219  15.780  1.00  0.00    -0.189 N 
ATOM      3  H2  UNL     1      15.590  24.771  15.003  1.00  0.00     0.184 HD
HETATM    4  C8  UNL     1      17.024  24.527  16.513  1.00  0.00     0.078 A 
HETATM    5  C9  UNL     1      17.953  25.537  16.576  1.00  0.00     0.064 A 
HETATM    6  C10 UNL     1      18.982  25.589  17.506  1.00  0.00     0.069 A 
HETATM    7  C18 UNL     1      19.040  24.535  18.404  1.00  0.00     0.097 A 
HETATM    8  C20 UNL     1      18.139  23.515  18.376  1.00  0.00     0.071 A 
HETATM    9  C21 UNL     1      17.139  23.511  17.440  1.00  0.00     0.079 A 
HETATM   10  N7  UNL     1      16.153  22.614  17.260  1.00  0.00    -0.189 N 
ATOM     11  H7  UNL     1      15.991  21.763  17.798  1.00  0.00     0.184 HD
ENDROOT
BRANCH   1  12
HETATM   12  N1  UNL     1      14.260  22.379  15.761  1.00  0.00    -0.212 N 
HETATM   13  C6  UNL     1      14.261  20.987  16.052  1.00  0.00     0.193 C 
HETATM   14  C5  UNL     1      13.071  20.192  15.580  1.00  0.00     0.003 C 
HETATM   15  N8  UNL     1      12.590  20.465  14.295  1.00  0.00    -0.384 N 
HETATM   16  C24 UNL     1      11.996  21.676  13.948  1.00  0.00     0.124 C 
HETATM   17  C23 UNL     1      13.018  22.801  13.704  1.00  0.00     0.040 C 
HETATM   18  C22 UNL     1      13.359  23.278  15.098  1.00  0.00     0.143 C 
BRANCH  14  19
HETATM   19  C4  UNL     1      12.096  19.878  16.665  1.00  0.00     0.054 C 
BRANCH  19  20
HETATM   20  C3  UNL     1      12.580  19.897  18.064  1.00  0.00     0.005 C 
BRANCH  20  21
HETATM   21  C2  UNL     1      11.870  18.751  18.798  1.00  0.00    -0.004 C 
HETATM   22  C1  UNL     1      12.267  18.697  20.258  1.00  0.00     0.005 C 
ENDBRANCH  20  21
ENDBRANCH  19  20
ENDBRANCH  14  19
BRANCH  15  23
HETATM   23  C25 UNL     1      12.571  19.431  13.331  1.00  0.00     0.152 C 
BRANCH  23  24
HETATM   24  C26 UNL     1      11.216  18.964  12.949  1.00  0.00     0.292 C 
BRANCH  24  25
HETATM   25  N9  UNL     1      11.201  17.828  12.077  1.00  0.00     0.094 N 
HETATM   26  C27 UNL     1      11.664  16.682  12.842  1.00  0.00     0.298 C 
HETATM   27  C28 UNL     1      10.644  16.284  13.900  1.00  0.00     0.198 C 
HETATM   28  O3  UNL     1       9.367  16.710  13.636  1.00  0.00    -0.388 OA
HETATM   29  C29 UNL     1       9.015  16.748  12.316  1.00  0.00     0.198 C 
HETATM   30  C30 UNL     1       9.981  17.499  11.448  1.00  0.00     0.298 C 
ENDBRANCH  24  25
ENDBRANCH  23  24
ENDBRANCH  15  23
ENDBRANCH   1  12
BRANCH   6  31
HETATM   31  N3  UNL     1      19.924  26.571  17.614  1.00  0.00    -0.338 N 
ATOM     32  H3  UNL     1      19.620  27.270  18.292  1.00  0.00     0.167 HD
BRANCH  31  33
HETATM   33  C11 UNL     1      21.026  26.883  17.153  1.00  0.00     0.134 A 
HETATM   34  N4  UNL     1      22.121  26.488  17.879  1.00  0.00    -0.329 N 
HETATM   35  C12 UNL     1      23.374  26.723  17.558  1.00  0.00     0.099 A 
ATOM     36  H4  UNL     1      21.949  25.968  18.740  1.00  0.00     0.168 HD
HETATM   37  N5  UNL     1      23.612  27.417  16.405  1.00  0.00    -0.263 N 
HETATM   38  N6  UNL     1      22.596  27.817  15.675  1.00  0.00    -0.163 N 
ATOM     39  H5  UNL     1      24.568  27.621  16.115  1.00  0.00     0.191 HD
HETATM   40  C16 UNL     1      21.289  27.580  15.998  1.00  0.00     0.099 A 
HETATM   41  C17 UNL     1      20.206  28.080  15.106  1.00  0.00     0.077 C 
BRANCH  35  42
HETATM   42  C13 UNL     1      24.579  26.301  18.341  1.00  0.00     0.077 C 
BRANCH  42  43
HETATM   43  C14 UNL     1      25.602  25.778  17.362  1.00  0.00     0.003 C 
HETATM   44  C15 UNL     1      26.364  24.587  17.826  1.00  0.00     0.005 C 
ENDBRANCH  42  43
ENDBRANCH  35  42
BRANCH  38  45
HETATM   45  O1  UNL     1      22.827  28.525  14.496  1.00  0.00    -0.268 OA
ATOM     46  H1  UNL     1      23.446  29.246  14.492  1.00  0.00     0.247 HD
ENDBRANCH  38  45
ENDBRANCH  31  33
ENDBRANCH   6  31
BRANCH   7  47
HETATM   47  O2  UNL     1      20.046  24.508  19.372  1.00  0.00    -0.354 OA
HETATM   48  C19 UNL     1      19.716  24.658  20.739  1.00  0.00     0.210 C 
ENDBRANCH   7  47
TORSDOF 13
ENDMDL
MODEL 5
REMARK VINA RESULT: -8.890012280      2.092      3.603
REMARK  13 active torsions:
REMARK  status: ('A' for Active; 'I' for Inactive)
REMARK    1  A    between atoms: C2_2  and  C3_3 
REMARK    2  A    between atoms: C3_3  and  C4_4 
REMARK    3  A    between atoms: C4_4  and  C5_5 
REMARK    4  A    between atoms: N1_7  and  C7_8 
REMARK    5  A    between atoms: C10_13  and  N3_14 
REMARK    6  A    between atoms: N3_14  and  C11_16 
REMARK    7  A    between atoms: C12_19  and  C13_20 
REMARK    8  A    between atoms: C13_20  and  C14_21 
REMARK    9  A    between atoms: N6_25  and  O1_26 
REMARK   10  A    between atoms: C18_30  and  O2_31 
REMARK   11  A    between atoms: N8_40  and  C25_41 
REMARK   12  A    between atoms: C25_41  and  C26_42 
REMARK   13  A    between atoms: C26_42  and  N9_43 
ROOT
HETATM    1  C7  UNL     1      15.975  23.201  15.810  1.00  0.00     0.681 A 
HETATM    2  N2  UNL     1      17.104  22.799  16.417  1.00  0.00    -0.189 N 
ATOM      3  H2  UNL     1      17.254  21.880  16.834  1.00  0.00     0.184 HD
HETATM    4  C8  UNL     1      17.997  23.789  16.390  1.00  0.00     0.078 A 
HETATM    5  C9  UNL     1      19.290  24.001  16.804  1.00  0.00     0.064 A 
HETATM    6  C10 UNL     1      19.988  25.183  16.603  1.00  0.00     0.069 A 
HETATM    7  C18 UNL     1      19.298  26.186  15.940  1.00  0.00     0.097 A 
HETATM    8  C20 UNL     1      18.017  26.018  15.513  1.00  0.00     0.071 A 
HETATM    9  C21 UNL     1      17.372  24.830  15.733  1.00  0.00     0.079 A 
HETATM   10  N7  UNL     1      16.127  24.464  15.379  1.00  0.00    -0.189 N 
ATOM     11  H7  UNL     1      15.439  25.031  14.884  1.00  0.00     0.184 HD
ENDROOT
BRANCH   1  12
HETATM   12  N1  UNL     1      14.772  22.463  15.582  1.00  0.00    -0.212 N 
HETATM   13  C6  UNL     1      14.888  21.073  15.857  1.00  0.00     0.193 C 
HETATM   14  C5  UNL     1      13.663  20.227  15.625  1.00  0.00     0.003 C 
HETATM   15  N8  UNL     1      12.925  20.478  14.464  1.00  0.00    -0.384 N 
HETATM   16  C24 UNL     1      12.224  21.663  14.250  1.00  0.00     0.124 C 
HETATM   17  C23 UNL     1      13.129  22.829  13.816  1.00  0.00     0.040 C 
HETATM   18  C22 UNL     1      13.720  23.323  15.117  1.00  0.00     0.143 C 
BRANCH  14  19
HETATM   19  C4  UNL     1      12.936  19.874  16.881  1.00  0.00     0.054 C 
BRANCH  19  20
HETATM   20  C3  UNL     1      13.576  20.209  18.173  1.00  0.00     0.005 C 
BRANCH  20  21
HETATM   21  C2  UNL     1      13.937  18.879  18.849  1.00  0.00    -0.004 C 
HETATM   22  C1  UNL     1      13.310  18.766  20.222  1.00  0.00     0.005 C 
ENDBRANCH  20  21
ENDBRANCH  19  20
ENDBRANCH  14  19
BRANCH  15  23
HETATM   23  C25 UNL     1      12.757  19.443  13.515  1.00  0.00     0.152 C 
BRANCH  23  24
HETATM   24  C26 UNL     1      11.350  19.039  13.281  1.00  0.00     0.292 C 
BRANCH  24  25
HETATM   25  N9  UNL     1      11.154  18.199  12.137  1.00  0.00     0.094 N 
HETATM   26  C27 UNL     1      11.709  16.893  12.453  1.00  0.00     0.298 C 
HETATM   27  C28 UNL     1      10.875  16.186  13.513  1.00  0.00     0.198 C 
HETATM   28  O3  UNL     1       9.584  16.642  13.605  1.00  0.00    -0.388 OA
HETATM   29  C29 UNL     1       9.012  17.046  12.431  1.00  0.00     0.198 C 
HETATM   30  C30 UNL     1       9.835  18.035  11.660  1.00  0.00     0.298 C 
ENDBRANCH  24  25
ENDBRANCH  23  24
ENDBRANCH  15  23
ENDBRANCH   1  12
BRANCH   6  31
HETATM   31  N3  UNL     1      21.272  25.440  16.988  1.00  0.00    -0.338 N 
ATOM     32  H3  UNL     1      21.923  24.950  16.374  1.00  0.00     0.167 HD
BRANCH  31  33
HETATM   33  C11 UNL     1      21.896  26.076  17.842  1.00  0.00     0.134 A 
HETATM   34  N4  UNL     1      21.311  26.165  19.080  1.00  0.00    -0.329 N 
HETATM   35  C12 UNL     1      21.814  26.797  20.117  1.00  0.00     0.099 A 
ATOM     36  H4  UNL     1      20.411  25.702  19.207  1.00  0.00     0.168 HD
HETATM   37  N5  UNL     1      23.020  27.419  19.956  1.00  0.00    -0.263 N 
HETATM   38  N6  UNL     1      23.620  27.363  18.788  1.00  0.00    -0.163 N 
ATOM     39  H5  UNL     1      23.449  27.920  20.733  1.00  0.00     0.191 HD
HETATM   40  C16 UNL     1      23.109  26.710  17.702  1.00  0.00     0.099 A 
HETATM   41  C17 UNL     1      23.863  26.707  16.419  1.00  0.00     0.077 C 
BRANCH  35  42
HETATM   42  C13 UNL     1      21.186  26.906  21.473  1.00  0.00     0.077 C 
BRANCH  42  43
HETATM   43  C14 UNL     1      22.257  26.619  22.497  1.00  0.00     0.003 C 
HETATM   44  C15 UNL     1      21.914  27.012  23.892  1.00  0.00     0.005 C 
ENDBRANCH  42  43
ENDBRANCH  35  42
BRANCH  38  45
HETATM   45  O1  UNL     1      24.852  27.992  18.612  1.00  0.00    -0.268 OA
ATOM     46  H1  UNL     1      25.283  27.957  17.766  1.00  0.00     0.247 HD
ENDBRANCH  38  45
ENDBRANCH  31  33
ENDBRANCH   6  31
BRANCH   7  47
HETATM   47  O2  UNL     1      19.925  27.411  15.697  1.00  0.00    -0.354 OA
HETATM   48  C19 UNL     1      20.423  27.706  14.407  1.00  0.00     0.210 C 
ENDBRANCH   7  47
TORSDOF 13
ENDMDL
