MODEL 1
REMARK VINA RESULT: -8.366665861      0.000      0.000
REMARK  14 active torsions:
REMARK  status: ('A' for Active; 'I' for Inactive)
REMARK    1  A    between atoms: O1_2  and  C2_3 
REMARK    2  A    between atoms: C5_6  and  O2_7 
REMARK    3  A    between atoms: O2_7  and  C6_8 
REMARK    4  A    between atoms: C6_8  and  C7_9 
REMARK    5  A    between atoms: C7_9  and  C8_10 
REMARK    6  A    between atoms: C8_10  and  N1_11 
REMARK    7  A    between atoms: N2_14  and  C11_15 
REMARK    8  A    between atoms: C11_15  and  O3_17 
REMARK    9  A    between atoms: O3_17  and  C12_18 
REMARK   10  A    between atoms: C12_18  and  C13_19 
REMARK   11  A    between atoms: C13_19  and  C14_20 
REMARK   12  A    between atoms: C14_20  and  C15_21 
REMARK   13  A    between atoms: C15_21  and  N3_22 
REMARK       I    between atoms: N3_22  and  C16_24 
REMARK       I    between atoms: C16_24  and  N4_26 
REMARK   14  A    between atoms: N4_26  and  C17_28 
ROOT
HETATM    1  O3  UNL     1      12.798  20.709  16.249  1.00  0.00    -0.327 OA
ENDROOT
BRANCH   1   2
HETATM    2  C11 UNL     1      12.998  20.096  17.436  1.00  0.00     0.212 C 
HETATM    3  S1  UNL     1      11.822  19.152  18.121  1.00  0.00    -0.033 SA
BRANCH   2   4
HETATM    4  N2  UNL     1      14.238  20.246  18.141  1.00  0.00    -0.349 N 
HETATM    5  C10 UNL     1      14.324  21.208  19.201  1.00  0.00     0.156 C 
HETATM    6  C9  UNL     1      15.653  21.954  19.049  1.00  0.00     0.292 C 
HETATM    7  N1  UNL     1      16.748  21.030  18.982  1.00  0.00     0.091 N 
HETATM    8  C25 UNL     1      16.640  20.235  17.807  1.00  0.00     0.292 C 
HETATM    9  C24 UNL     1      15.350  19.427  17.782  1.00  0.00     0.156 C 
BRANCH   7  10
HETATM   10  C8  UNL     1      18.014  21.610  19.256  1.00  0.00     0.274 C 
BRANCH  10  11
HETATM   11  C7  UNL     1      18.130  22.125  20.695  1.00  0.00     0.057 C 
BRANCH  11  12
HETATM   12  C6  UNL     1      18.139  23.621  20.668  1.00  0.00     0.179 C 
BRANCH  12  13
HETATM   13  O2  UNL     1      19.175  24.222  21.383  1.00  0.00    -0.336 OA
BRANCH  13  14
HETATM   14  C5  UNL     1      20.270  24.869  20.855  1.00  0.00     0.141 A 
HETATM   15  C4  UNL     1      21.291  24.129  20.239  1.00  0.00     0.059 A 
HETATM   16  C3  UNL     1      22.401  24.743  19.701  1.00  0.00     0.042 A 
HETATM   17  C2  UNL     1      22.557  26.108  19.745  1.00  0.00     0.083 A 
HETATM   18  C26 UNL     1      21.535  26.815  20.359  1.00  0.00     0.126 A 
HETATM   19  N7  UNL     1      20.462  26.196  20.877  1.00  0.00    -0.344 N 
ATOM     20  H7  UNL     1      19.744  26.773  21.316  1.00  0.00     0.167 HD
BRANCH  17  21
HETATM   21  O1  UNL     1      23.644  26.793  19.228  1.00  0.00    -0.355 OA
HETATM   22  C1  UNL     1      24.022  26.772  17.879  1.00  0.00     0.210 C 
ENDBRANCH  17  21
ENDBRANCH  13  14
ENDBRANCH  12  13
ENDBRANCH  11  12
ENDBRANCH  10  11
ENDBRANCH   7  10
ENDBRANCH   2   4
ENDBRANCH   1   2
BRANCH   1  23
HETATM   23  C12 UNL     1      12.260  20.276  15.060  1.00  0.00     0.178 C 
BRANCH  23  24
HETATM   24  C13 UNL     1      13.013  20.461  13.817  1.00  0.00     0.028 C 
BRANCH  24  25
HETATM   25  C14 UNL     1      14.473  20.468  13.796  1.00  0.00     0.022 C 
BRANCH  25  26
HETATM   26  C15 UNL     1      15.176  21.747  13.522  1.00  0.00     0.124 C 
BRANCH  26  27
HETATM   27  N3  UNL     1      15.629  22.485  14.662  1.00  0.00    -0.343 N 
HETATM   28  C16 UNL     1      14.834  23.390  15.357  1.00  0.00     0.322 C 
HETATM   29  O4  UNL     1      13.643  23.669  15.079  1.00  0.00    -0.247 OA
HETATM   30  N4  UNL     1      15.382  24.084  16.497  1.00  0.00    -0.289 N 
ATOM     31  H4  UNL     1      14.873  24.105  17.381  1.00  0.00     0.172 HD
ATOM     32  H3  UNL     1      16.587  22.340  14.982  1.00  0.00     0.164 HD
BRANCH  30  33
HETATM   33  C17 UNL     1      16.543  24.689  16.385  1.00  0.00     0.153 A 
HETATM   34  N5  UNL     1      17.014  25.322  15.315  1.00  0.00    -0.339 N 
HETATM   35  C18 UNL     1      18.209  25.871  15.391  1.00  0.00     0.027 A 
ATOM     36  H5  UNL     1      16.464  25.382  14.459  1.00  0.00     0.168 HD
HETATM   37  C19 UNL     1      18.892  25.754  16.568  1.00  0.00     0.026 A 
HETATM   38  C23 UNL     1      18.907  26.641  14.270  1.00  0.00     0.077 C 
HETATM   39  S2  UNL     1      17.796  24.860  17.524  1.00  0.00    -0.055 SA
HETATM   40  C20 UNL     1      20.253  26.316  16.829  1.00  0.00     0.164 C 
HETATM   41  N6  UNL     1      20.784  26.943  15.681  1.00  0.00    -0.412 N 
HETATM   42  C21 UNL     1      21.721  26.201  14.906  1.00  0.00     0.143 C 
HETATM   43  C22 UNL     1      19.789  27.659  14.955  1.00  0.00     0.122 C 
ENDBRANCH  30  33
ENDBRANCH  26  27
ENDBRANCH  25  26
ENDBRANCH  24  25
ENDBRANCH  23  24
ENDBRANCH   1  23
TORSDOF 14
ENDMDL
MODEL 2
REMARK VINA RESULT: -8.314099184      2.371      8.124
REMARK  14 active torsions:
REMARK  status: ('A' for Active; 'I' for Inactive)
REMARK    1  A    between atoms: O1_2  and  C2_3 
REMARK    2  A    between atoms: C5_6  and  O2_7 
REMARK    3  A    between atoms: O2_7  and  C6_8 
REMARK    4  A    between atoms: C6_8  and  C7_9 
REMARK    5  A    between atoms: C7_9  and  C8_10 
REMARK    6  A    between atoms: C8_10  and  N1_11 
REMARK    7  A    between atoms: N2_14  and  C11_15 
REMARK    8  A    between atoms: C11_15  and  O3_17 
REMARK    9  A    between atoms: O3_17  and  C12_18 
REMARK   10  A    between atoms: C12_18  and  C13_19 
REMARK   11  A    between atoms: C13_19  and  C14_20 
REMARK   12  A    between atoms: C14_20  and  C15_21 
REMARK   13  A    between atoms: C15_21  and  N3_22 
REMARK       I    between atoms: N3_22  and  C16_24 
REMARK       I    between atoms: C16_24  and  N4_26 
REMARK   14  A    between atoms: N4_26  and  C17_28 
ROOT
HETATM    1  O3  UNL     1      18.075  22.591  17.908  1.00  0.00    -0.327 OA
ENDROOT
BRANCH   1   2
HETATM    2  C11 UNL     1      17.130  23.330  17.285  1.00  0.00     0.212 C 
HETATM    3  S1  UNL     1      17.187  24.986  17.305  1.00  0.00    -0.033 SA
BRANCH   2   4
HETATM    4  N2  UNL     1      16.047  22.701  16.587  1.00  0.00    -0.349 N 
HETATM    5  C10 UNL     1      16.341  21.741  15.564  1.00  0.00     0.156 C 
HETATM    6  C9  UNL     1      15.416  22.023  14.377  1.00  0.00     0.292 C 
HETATM    7  N1  UNL     1      14.045  22.053  14.799  1.00  0.00     0.091 N 
HETATM    8  C25 UNL     1      13.837  23.142  15.691  1.00  0.00     0.292 C 
HETATM    9  C24 UNL     1      14.703  23.031  16.938  1.00  0.00     0.156 C 
BRANCH   7  10
HETATM   10  C8  UNL     1      13.109  21.893  13.744  1.00  0.00     0.274 C 
BRANCH  10  11
HETATM   11  C7  UNL     1      13.059  20.457  13.210  1.00  0.00     0.057 C 
BRANCH  11  12
HETATM   12  C6  UNL     1      11.800  19.810  13.698  1.00  0.00     0.179 C 
BRANCH  12  13
HETATM   13  O2  UNL     1      11.303  20.312  14.900  1.00  0.00    -0.336 OA
BRANCH  13  14
HETATM   14  C5  UNL     1      11.441  19.745  16.148  1.00  0.00     0.141 A 
HETATM   15  C4  UNL     1      10.953  18.450  16.385  1.00  0.00     0.059 A 
HETATM   16  C3  UNL     1      11.073  17.851  17.620  1.00  0.00     0.042 A 
HETATM   17  C2  UNL     1      11.676  18.495  18.674  1.00  0.00     0.083 A 
HETATM   18  C26 UNL     1      12.149  19.772  18.412  1.00  0.00     0.126 A 
HETATM   19  N7  UNL     1      12.022  20.337  17.201  1.00  0.00    -0.344 N 
ATOM     20  H7  UNL     1      12.391  21.279  17.073  1.00  0.00     0.167 HD
BRANCH  17  21
HETATM   21  O1  UNL     1      11.831  17.958  19.941  1.00  0.00    -0.355 OA
HETATM   22  C1  UNL     1      12.739  18.434  20.895  1.00  0.00     0.210 C 
ENDBRANCH  17  21
ENDBRANCH  13  14
ENDBRANCH  12  13
ENDBRANCH  11  12
ENDBRANCH  10  11
ENDBRANCH   7  10
ENDBRANCH   2   4
ENDBRANCH   1   2
BRANCH   1  23
HETATM   23  C12 UNL     1      17.997  21.524  18.772  1.00  0.00     0.178 C 
BRANCH  23  24
HETATM   24  C13 UNL     1      18.332  21.715  20.186  1.00  0.00     0.028 C 
BRANCH  24  25
HETATM   25  C14 UNL     1      17.871  22.882  20.934  1.00  0.00     0.022 C 
BRANCH  25  26
HETATM   26  C15 UNL     1      18.773  24.056  21.050  1.00  0.00     0.124 C 
BRANCH  26  27
HETATM   27  N3  UNL     1      19.783  24.190  20.045  1.00  0.00    -0.343 N 
HETATM   28  C16 UNL     1      21.139  24.308  20.330  1.00  0.00     0.322 C 
HETATM   29  O4  UNL     1      21.640  24.311  21.480  1.00  0.00    -0.247 OA
HETATM   30  N4  UNL     1      22.082  24.435  19.246  1.00  0.00    -0.289 N 
ATOM     31  H4  UNL     1      22.907  23.837  19.207  1.00  0.00     0.172 HD
ATOM     32  H3  UNL     1      19.493  24.199  19.067  1.00  0.00     0.164 HD
BRANCH  30  33
HETATM   33  C17 UNL     1      21.866  25.329  18.307  1.00  0.00     0.153 A 
HETATM   34  N5  UNL     1      21.137  25.173  17.206  1.00  0.00    -0.339 N 
HETATM   35  C18 UNL     1      21.036  26.190  16.376  1.00  0.00     0.027 A 
ATOM     36  H5  UNL     1      20.669  24.288  17.010  1.00  0.00     0.168 HD
HETATM   37  C19 UNL     1      21.688  27.345  16.699  1.00  0.00     0.026 A 
HETATM   38  C23 UNL     1      20.241  26.196  15.070  1.00  0.00     0.077 C 
HETATM   39  S2  UNL     1      22.424  26.933  18.182  1.00  0.00    -0.055 SA
HETATM   40  C20 UNL     1      21.678  28.594  15.875  1.00  0.00     0.164 C 
HETATM   41  N6  UNL     1      20.953  28.420  14.677  1.00  0.00    -0.412 N 
HETATM   42  C21 UNL     1      21.701  28.169  13.491  1.00  0.00     0.143 C 
HETATM   43  C22 UNL     1      19.787  27.624  14.869  1.00  0.00     0.122 C 
ENDBRANCH  30  33
ENDBRANCH  26  27
ENDBRANCH  25  26
ENDBRANCH  24  25
ENDBRANCH  23  24
ENDBRANCH   1  23
TORSDOF 14
ENDMDL
MODEL 3
REMARK VINA RESULT: -8.308286753      2.469      8.361
REMARK  14 active torsions:
REMARK  status: ('A' for Active; 'I' for Inactive)
REMARK    1  A    between atoms: O1_2  and  C2_3 
REMARK    2  A    between atoms: C5_6  and  O2_7 
REMARK    3  A    between atoms: O2_7  and  C6_8 
REMARK    4  A    between atoms: C6_8  and  C7_9 
REMARK    5  A    between atoms: C7_9  and  C8_10 
REMARK    6  A    between atoms: C8_10  and  N1_11 
REMARK    7  A    between atoms: N2_14  and  C11_15 
REMARK    8  A    between atoms: C11_15  and  O3_17 
REMARK    9  A    between atoms: O3_17  and  C12_18 
REMARK   10  A    between atoms: C12_18  and  C13_19 
REMARK   11  A    between atoms: C13_19  and  C14_20 
REMARK   12  A    between atoms: C14_20  and  C15_21 
REMARK   13  A    between atoms: C15_21  and  N3_22 
REMARK       I    between atoms: N3_22  and  C16_24 
REMARK       I    between atoms: C16_24  and  N4_26 
REMARK   14  A    between atoms: N4_26  and  C17_28 
ROOT
HETATM    1  O3  UNL     1      17.492  24.597  18.142  1.00  0.00    -0.327 OA
ENDROOT
BRANCH   1   2
HETATM    2  C11 UNL     1      17.033  23.336  18.306  1.00  0.00     0.212 C 
HETATM    3  S1  UNL     1      17.449  22.439  19.635  1.00  0.00    -0.033 SA
BRANCH   2   4
HETATM    4  N2  UNL     1      16.172  22.736  17.329  1.00  0.00    -0.349 N 
HETATM    5  C10 UNL     1      16.743  21.892  16.321  1.00  0.00     0.156 C 
HETATM    6  C9  UNL     1      16.091  22.252  14.984  1.00  0.00     0.292 C 
HETATM    7  N1  UNL     1      14.661  22.188  15.084  1.00  0.00     0.091 N 
HETATM    8  C25 UNL     1      14.195  23.177  15.995  1.00  0.00     0.292 C 
HETATM    9  C24 UNL     1      14.767  22.979  17.392  1.00  0.00     0.156 C 
BRANCH   7  10
HETATM   10  C8  UNL     1      13.995  22.096  13.834  1.00  0.00     0.274 C 
BRANCH  10  11
HETATM   11  C7  UNL     1      13.358  20.721  13.603  1.00  0.00     0.057 C 
BRANCH  11  12
HETATM   12  C6  UNL     1      11.953  20.752  14.116  1.00  0.00     0.179 C 
BRANCH  12  13
HETATM   13  O2  UNL     1      11.530  19.588  14.758  1.00  0.00    -0.336 OA
BRANCH  13  14
HETATM   14  C5  UNL     1      11.533  19.351  16.115  1.00  0.00     0.141 A 
HETATM   15  C4  UNL     1      10.836  18.248  16.633  1.00  0.00     0.059 A 
HETATM   16  C3  UNL     1      10.816  17.981  17.985  1.00  0.00     0.042 A 
HETATM   17  C2  UNL     1      11.478  18.782  18.884  1.00  0.00     0.083 A 
HETATM   18  C26 UNL     1      12.159  19.863  18.345  1.00  0.00     0.126 A 
HETATM   19  N7  UNL     1      12.164  20.105  17.025  1.00  0.00    -0.344 N 
ATOM     20  H7  UNL     1      12.684  20.917  16.691  1.00  0.00     0.167 HD
BRANCH  17  21
HETATM   21  O1  UNL     1      11.501  18.576  20.254  1.00  0.00    -0.355 OA
HETATM   22  C1  UNL     1      12.669  18.384  21.003  1.00  0.00     0.210 C 
ENDBRANCH  17  21
ENDBRANCH  13  14
ENDBRANCH  12  13
ENDBRANCH  11  12
ENDBRANCH  10  11
ENDBRANCH   7  10
ENDBRANCH   2   4
ENDBRANCH   1   2
BRANCH   1  23
HETATM   23  C12 UNL     1      17.444  25.471  17.083  1.00  0.00     0.178 C 
BRANCH  23  24
HETATM   24  C13 UNL     1      18.360  25.289  15.954  1.00  0.00     0.028 C 
BRANCH  24  25
HETATM   25  C14 UNL     1      18.209  26.041  14.711  1.00  0.00     0.022 C 
BRANCH  25  26
HETATM   26  C15 UNL     1      19.268  27.009  14.329  1.00  0.00     0.124 C 
BRANCH  26  27
HETATM   27  N3  UNL     1      20.100  27.498  15.387  1.00  0.00    -0.343 N 
HETATM   28  C16 UNL     1      21.341  28.089  15.177  1.00  0.00     0.322 C 
HETATM   29  O4  UNL     1      21.878  28.266  14.057  1.00  0.00    -0.247 OA
HETATM   30  N4  UNL     1      22.104  28.553  16.309  1.00  0.00    -0.289 N 
ATOM     31  H4  UNL     1      22.493  29.496  16.317  1.00  0.00     0.172 HD
ATOM     32  H3  UNL     1      19.765  27.407  16.346  1.00  0.00     0.164 HD
BRANCH  30  33
HETATM   33  C17 UNL     1      22.294  27.748  17.331  1.00  0.00     0.153 A 
HETATM   34  N5  UNL     1      21.576  27.692  18.447  1.00  0.00    -0.339 N 
HETATM   35  C18 UNL     1      21.921  26.814  19.367  1.00  0.00     0.027 A 
ATOM     36  H5  UNL     1      20.779  28.312  18.589  1.00  0.00     0.168 HD
HETATM   37  C19 UNL     1      22.998  26.014  19.114  1.00  0.00     0.026 A 
HETATM   38  C23 UNL     1      21.213  26.603  20.705  1.00  0.00     0.077 C 
HETATM   39  S2  UNL     1      23.480  26.549  17.567  1.00  0.00    -0.055 SA
HETATM   40  C20 UNL     1      23.525  24.965  20.042  1.00  0.00     0.164 C 
HETATM   41  N6  UNL     1      22.802  24.936  21.254  1.00  0.00    -0.412 N 
HETATM   42  C21 UNL     1      23.382  25.594  22.377  1.00  0.00     0.143 C 
HETATM   43  C22 UNL     1      21.407  25.144  21.051  1.00  0.00     0.122 C 
ENDBRANCH  30  33
ENDBRANCH  26  27
ENDBRANCH  25  26
ENDBRANCH  24  25
ENDBRANCH  23  24
ENDBRANCH   1  23
TORSDOF 14
ENDMDL
MODEL 4
REMARK VINA RESULT: -8.140682352      2.619      8.678
REMARK  14 active torsions:
REMARK  status: ('A' for Active; 'I' for Inactive)
REMARK    1  A    between atoms: O1_2  and  C2_3 
REMARK    2  A    between atoms: C5_6  and  O2_7 
REMARK    3  A    between atoms: O2_7  and  C6_8 
REMARK    4  A    between atoms: C6_8  and  C7_9 
REMARK    5  A    between atoms: C7_9  and  C8_10 
REMARK    6  A    between atoms: C8_10  and  N1_11 
REMARK    7  A    between atoms: N2_14  and  C11_15 
REMARK    8  A    between atoms: C11_15  and  O3_17 
REMARK    9  A    between atoms: O3_17  and  C12_18 
REMARK   10  A    between atoms: C12_18  and  C13_19 
REMARK   11  A    between atoms: C13_19  and  C14_20 
REMARK   12  A    between atoms: C14_20  and  C15_21 
REMARK   13  A    between atoms: C15_21  and  N3_22 
REMARK       I    between atoms: N3_22  and  C16_24 
REMARK       I    between atoms: C16_24  and  N4_26 
REMARK   14  A    between atoms: N4_26  and  C17_28 
ROOT
HETATM    1  O3  UNL     1      17.213  24.815  15.508  1.00  0.00    -0.327 OA
ENDROOT
BRANCH   1   2
HETATM    2  C11 UNL     1      16.428  24.063  16.311  1.00  0.00     0.212 C 
HETATM    3  S1  UNL     1      16.472  24.238  17.958  1.00  0.00    -0.033 SA
BRANCH   2   4
HETATM    4  N2  UNL     1      15.533  23.088  15.760  1.00  0.00    -0.349 N 
HETATM    5  C10 UNL     1      16.071  22.005  14.989  1.00  0.00     0.156 C 
HETATM    6  C9  UNL     1      15.184  21.824  13.755  1.00  0.00     0.292 C 
HETATM    7  N1  UNL     1      13.810  21.667  14.137  1.00  0.00     0.091 N 
HETATM    8  C25 UNL     1      13.339  22.861  14.752  1.00  0.00     0.292 C 
HETATM    9  C24 UNL     1      14.132  23.207  16.004  1.00  0.00     0.156 C 
BRANCH   7  10
HETATM   10  C8  UNL     1      12.990  21.091  13.132  1.00  0.00     0.274 C 
BRANCH  10  11
HETATM   11  C7  UNL     1      13.058  19.559  13.118  1.00  0.00     0.057 C 
BRANCH  11  12
HETATM   12  C6  UNL     1      11.705  19.018  13.456  1.00  0.00     0.179 C 
BRANCH  12  13
HETATM   13  O2  UNL     1      11.150  19.505  14.640  1.00  0.00    -0.336 OA
BRANCH  13  14
HETATM   14  C5  UNL     1      11.394  19.040  15.913  1.00  0.00     0.141 A 
HETATM   15  C4  UNL     1      11.942  19.900  16.878  1.00  0.00     0.059 A 
HETATM   16  C3  UNL     1      12.201  19.470  18.161  1.00  0.00     0.042 A 
HETATM   17  C2  UNL     1      11.933  18.179  18.552  1.00  0.00     0.083 A 
HETATM   18  C26 UNL     1      11.392  17.352  17.580  1.00  0.00     0.126 A 
HETATM   19  N7  UNL     1      11.148  17.792  16.336  1.00  0.00    -0.344 N 
ATOM     20  H7  UNL     1      10.749  17.134  15.667  1.00  0.00     0.167 HD
BRANCH  17  21
HETATM   21  O1  UNL     1      12.167  17.676  19.822  1.00  0.00    -0.355 OA
HETATM   22  C1  UNL     1      12.631  18.440  20.900  1.00  0.00     0.210 C 
ENDBRANCH  17  21
ENDBRANCH  13  14
ENDBRANCH  12  13
ENDBRANCH  11  12
ENDBRANCH  10  11
ENDBRANCH   7  10
ENDBRANCH   2   4
ENDBRANCH   1   2
BRANCH   1  23
HETATM   23  C12 UNL     1      18.154  25.782  15.771  1.00  0.00     0.178 C 
BRANCH  23  24
HETATM   24  C13 UNL     1      19.236  26.017  14.812  1.00  0.00     0.028 C 
BRANCH  24  25
HETATM   25  C14 UNL     1      19.307  27.240  14.018  1.00  0.00     0.022 C 
BRANCH  25  26
HETATM   26  C15 UNL     1      20.365  28.234  14.332  1.00  0.00     0.124 C 
BRANCH  26  27
HETATM   27  N3  UNL     1      20.945  28.161  15.638  1.00  0.00    -0.343 N 
HETATM   28  C16 UNL     1      22.312  28.056  15.867  1.00  0.00     0.322 C 
HETATM   29  O4  UNL     1      23.194  28.013  14.976  1.00  0.00    -0.247 OA
HETATM   30  N4  UNL     1      22.800  27.991  17.223  1.00  0.00    -0.289 N 
ATOM     31  H4  UNL     1      23.555  28.605  17.529  1.00  0.00     0.172 HD
ATOM     32  H3  UNL     1      20.321  28.186  16.445  1.00  0.00     0.164 HD
BRANCH  30  33
HETATM   33  C17 UNL     1      22.262  27.132  18.060  1.00  0.00     0.153 A 
HETATM   34  N5  UNL     1      21.564  26.044  17.750  1.00  0.00    -0.339 N 
HETATM   35  C18 UNL     1      21.100  25.300  18.732  1.00  0.00     0.027 A 
ATOM     36  H5  UNL     1      21.393  25.793  16.776  1.00  0.00     0.168 HD
HETATM   37  C19 UNL     1      21.365  25.694  20.012  1.00  0.00     0.026 A 
HETATM   38  C23 UNL     1      20.285  24.017  18.567  1.00  0.00     0.077 C 
HETATM   39  S2  UNL     1      22.271  27.118  19.762  1.00  0.00    -0.055 SA
HETATM   40  C20 UNL     1      20.919  24.968  21.242  1.00  0.00     0.164 C 
HETATM   41  N6  UNL     1      20.131  23.842  20.923  1.00  0.00    -0.412 N 
HETATM   42  C21 UNL     1      18.717  23.984  21.028  1.00  0.00     0.143 C 
HETATM   43  C22 UNL     1      20.613  23.161  19.769  1.00  0.00     0.122 C 
ENDBRANCH  30  33
ENDBRANCH  26  27
ENDBRANCH  25  26
ENDBRANCH  24  25
ENDBRANCH  23  24
ENDBRANCH   1  23
TORSDOF 14
ENDMDL
MODEL 5
REMARK VINA RESULT: -8.130361752      2.940      8.501
REMARK  14 active torsions:
REMARK  status: ('A' for Active; 'I' for Inactive)
REMARK    1  A    between atoms: O1_2  and  C2_3 
REMARK    2  A    between atoms: C5_6  and  O2_7 
REMARK    3  A    between atoms: O2_7  and  C6_8 
REMARK    4  A    between atoms: C6_8  and  C7_9 
REMARK    5  A    between atoms: C7_9  and  C8_10 
REMARK    6  A    between atoms: C8_10  and  N1_11 
REMARK    7  A    between atoms: N2_14  and  C11_15 
REMARK    8  A    between atoms: C11_15  and  O3_17 
REMARK    9  A    between atoms: O3_17  and  C12_18 
REMARK   10  A    between atoms: C12_18  and  C13_19 
REMARK   11  A    between atoms: C13_19  and  C14_20 
REMARK   12  A    between atoms: C14_20  and  C15_21 
REMARK   13  A    between atoms: C15_21  and  N3_22 
REMARK       I    between atoms: N3_22  and  C16_24 
REMARK       I    between atoms: C16_24  and  N4_26 
REMARK   14  A    between atoms: N4_26  and  C17_28 
ROOT
HETATM    1  O3  UNL     1      17.766  24.322  17.972  1.00  0.00    -0.327 OA
ENDROOT
BRANCH   1   2
HETATM    2  C11 UNL     1      17.102  23.174  18.231  1.00  0.00     0.212 C 
HETATM    3  S1  UNL     1      17.295  22.380  19.672  1.00  0.00    -0.033 SA
BRANCH   2   4
HETATM    4  N2  UNL     1      16.209  22.608  17.263  1.00  0.00    -0.349 N 
HETATM    5  C10 UNL     1      16.746  21.788  16.216  1.00  0.00     0.156 C 
HETATM    6  C9  UNL     1      16.060  22.191  14.908  1.00  0.00     0.292 C 
HETATM    7  N1  UNL     1      14.633  22.134  15.046  1.00  0.00     0.091 N 
HETATM    8  C25 UNL     1      14.200  23.100  15.997  1.00  0.00     0.292 C 
HETATM    9  C24 UNL     1      14.808  22.859  17.371  1.00  0.00     0.156 C 
BRANCH   7  10
HETATM   10  C8  UNL     1      13.932  22.081  13.813  1.00  0.00     0.274 C 
BRANCH  10  11
HETATM   11  C7  UNL     1      12.422  21.890  13.998  1.00  0.00     0.057 C 
BRANCH  11  12
HETATM   12  C6  UNL     1      12.134  20.424  14.092  1.00  0.00     0.179 C 
BRANCH  12  13
HETATM   13  O2  UNL     1      11.149  20.071  15.014  1.00  0.00    -0.336 OA
BRANCH  13  14
HETATM   14  C5  UNL     1      11.351  19.622  16.300  1.00  0.00     0.141 A 
HETATM   15  C4  UNL     1      10.684  18.473  16.753  1.00  0.00     0.059 A 
HETATM   16  C3  UNL     1      10.861  17.996  18.033  1.00  0.00     0.042 A 
HETATM   17  C2  UNL     1      11.698  18.625  18.924  1.00  0.00     0.083 A 
HETATM   18  C26 UNL     1      12.344  19.757  18.451  1.00  0.00     0.126 A 
HETATM   19  N7  UNL     1      12.156  20.205  17.199  1.00  0.00    -0.344 N 
ATOM     20  H7  UNL     1      12.661  21.044  16.912  1.00  0.00     0.167 HD
BRANCH  17  21
HETATM   21  O1  UNL     1      11.924  18.205  20.224  1.00  0.00    -0.355 OA
HETATM   22  C1  UNL     1      13.015  18.606  21.005  1.00  0.00     0.210 C 
ENDBRANCH  17  21
ENDBRANCH  13  14
ENDBRANCH  12  13
ENDBRANCH  11  12
ENDBRANCH  10  11
ENDBRANCH   7  10
ENDBRANCH   2   4
ENDBRANCH   1   2
BRANCH   1  23
HETATM   23  C12 UNL     1      17.426  25.451  17.264  1.00  0.00     0.178 C 
BRANCH  23  24
HETATM   24  C13 UNL     1      17.572  25.459  15.806  1.00  0.00     0.028 C 
BRANCH  24  25
HETATM   25  C14 UNL     1      18.829  25.100  15.157  1.00  0.00     0.022 C 
BRANCH  25  26
HETATM   26  C15 UNL     1      19.817  26.171  14.873  1.00  0.00     0.124 C 
BRANCH  26  27
HETATM   27  N3  UNL     1      20.729  26.497  15.928  1.00  0.00    -0.343 N 
HETATM   28  C16 UNL     1      21.133  27.795  16.220  1.00  0.00     0.322 C 
HETATM   29  O4  UNL     1      20.758  28.825  15.610  1.00  0.00    -0.247 OA
HETATM   30  N4  UNL     1      22.054  28.022  17.307  1.00  0.00    -0.289 N 
ATOM     31  H4  UNL     1      21.850  28.725  18.017  1.00  0.00     0.172 HD
ATOM     32  H3  UNL     1      21.102  25.736  16.495  1.00  0.00     0.164 HD
BRANCH  30  33
HETATM   33  C17 UNL     1      23.159  27.313  17.372  1.00  0.00     0.153 A 
HETATM   34  N5  UNL     1      23.568  26.563  18.390  1.00  0.00    -0.339 N 
HETATM   35  C18 UNL     1      24.712  25.921  18.271  1.00  0.00     0.027 A 
ATOM     36  H5  UNL     1      23.011  26.487  19.240  1.00  0.00     0.168 HD
HETATM   37  C19 UNL     1      25.409  26.067  17.106  1.00  0.00     0.026 A 
HETATM   38  C23 UNL     1      25.336  25.013  19.331  1.00  0.00     0.077 C 
HETATM   39  S2  UNL     1      24.399  27.120  16.221  1.00  0.00    -0.055 SA
HETATM   40  C20 UNL     1      26.719  25.412  16.802  1.00  0.00     0.164 C 
HETATM   41  N6  UNL     1      27.188  24.657  17.898  1.00  0.00    -0.412 N 
HETATM   42  C21 UNL     1      28.181  25.256  18.726  1.00  0.00     0.143 C 
HETATM   43  C22 UNL     1      26.132  23.977  18.570  1.00  0.00     0.122 C 
ENDBRANCH  30  33
ENDBRANCH  26  27
ENDBRANCH  25  26
ENDBRANCH  24  25
ENDBRANCH  23  24
ENDBRANCH   1  23
TORSDOF 14
ENDMDL
