MODEL 1
REMARK VINA RESULT: -9.605261497      0.000      0.000
REMARK  12 active torsions:
REMARK  status: ('A' for Active; 'I' for Inactive)
REMARK    1  A    between atoms: N1_2  and  C2_3 
REMARK    2  A    between atoms: N1_2  and  C6_7 
REMARK    3  A    between atoms: C2_3  and  C3_4 
REMARK    4  A    between atoms: C7_10  and  N3_11 
REMARK    5  A    between atoms: C10_14  and  O1_15 
REMARK    6  A    between atoms: O1_15  and  C11_16 
REMARK    7  A    between atoms: C11_16  and  C12_17 
REMARK    8  A    between atoms: C12_17  and  N4_18 
REMARK    9  A    between atoms: C18_26  and  N6_27 
REMARK   10  A    between atoms: C22_31  and  C23_32 
REMARK       I    between atoms: C23_32  and  N7_34 
REMARK   11  A    between atoms: N7_34  and  C24_35 
REMARK   12  A    between atoms: C27_38  and  N8_39 
ROOT
HETATM    1  C6  UNL     1      17.250  22.537  17.353  1.00  0.00     0.709 A 
HETATM    2  N2  UNL     1      18.075  23.399  16.753  1.00  0.00    -0.021 N 
ATOM      3  H2  UNL     1      18.910  23.711  17.249  1.00  0.00     0.203 HD
HETATM    4  C7  UNL     1      17.837  23.869  15.506  1.00  0.00     0.709 A 
HETATM    5  N5  UNL     1      16.709  23.414  14.895  1.00  0.00    -0.021 N 
ATOM      6  H5  UNL     1      16.512  23.757  13.954  1.00  0.00     0.203 HD
HETATM    7  C18 UNL     1      15.841  22.555  15.430  1.00  0.00     0.710 A 
HETATM    8  N9  UNL     1      16.153  22.128  16.692  1.00  0.00    -0.021 N 
ATOM      9  H9  UNL     1      15.525  21.470  17.152  1.00  0.00     0.203 HD
ENDROOT
BRANCH   7  10
HETATM   10  N6  UNL     1      14.689  22.085  14.773  1.00  0.00    -0.206 N 
HETATM   11  C19 UNL     1      14.103  22.610  13.567  1.00  0.00     0.102 C 
HETATM   12  C20 UNL     1      12.719  23.183  13.842  1.00  0.00     0.027 C 
HETATM   13  C31 UNL     1      13.929  21.311  12.776  1.00  0.00     0.028 C 
HETATM   14  C21 UNL     1      11.850  22.058  14.326  1.00  0.00     0.019 C 
HETATM   15  C22 UNL     1      12.466  21.426  15.532  1.00  0.00     0.116 C 
HETATM   16  C29 UNL     1      13.864  20.979  15.150  1.00  0.00     0.116 C 
HETATM   17  C30 UNL     1      13.805  20.229  13.806  1.00  0.00     0.029 C 
BRANCH  15  18
HETATM   18  C23 UNL     1      11.657  20.193  15.931  1.00  0.00     0.293 C 
HETATM   19  O2  UNL     1      10.646  19.978  15.223  1.00  0.00    -0.257 OA
HETATM   20  N7  UNL     1      12.156  19.495  17.020  1.00  0.00    -0.409 NA
BRANCH  20  21
HETATM   21  C24 UNL     1      12.627  18.835  18.049  1.00  0.00     0.168 C 
HETATM   22  C25 UNL     1      14.169  18.818  18.301  1.00  0.00     0.041 C 
HETATM   23  C26 UNL     1      14.173  17.861  19.501  1.00  0.00     0.036 C 
HETATM   24  C27 UNL     1      13.037  18.373  20.344  1.00  0.00     0.186 C 
HETATM   25  C28 UNL     1      12.223  19.295  19.457  1.00  0.00     0.072 C 
BRANCH  24  26
HETATM   26  N8  UNL     1      12.227  17.319  20.874  1.00  0.00    -0.075 N 
ATOM     27  H83 UNL     1      11.479  17.071  20.227  1.00  0.00     0.274 HD
ATOM     28  H82 UNL     1      12.736  16.435  20.882  1.00  0.00     0.274 HD
ATOM     29  H81 UNL     1      11.856  17.537  21.798  1.00  0.00     0.274 HD
ENDBRANCH  24  26
ENDBRANCH  20  21
ENDBRANCH  15  18
ENDBRANCH   7  10
BRANCH   4  30
HETATM   30  N3  UNL     1      18.713  24.762  14.852  1.00  0.00    -0.214 N 
HETATM   31  C8  UNL     1      18.448  25.805  13.894  1.00  0.00     0.144 C 
HETATM   32  C9  UNL     1      19.353  26.942  14.391  1.00  0.00     0.054 C 
HETATM   33  C10 UNL     1      20.456  26.296  15.173  1.00  0.00     0.142 C 
HETATM   34  C17 UNL     1      20.171  24.802  15.029  1.00  0.00     0.173 C 
BRANCH  33  35
HETATM   35  O1  UNL     1      21.679  26.638  14.647  1.00  0.00    -0.379 OA
BRANCH  35  36
HETATM   36  C11 UNL     1      22.661  26.747  15.634  1.00  0.00     0.212 C 
BRANCH  36  37
HETATM   37  C12 UNL     1      22.245  27.846  16.590  1.00  0.00     0.089 C 
BRANCH  37  38
HETATM   38  N4  UNL     1      22.250  27.521  17.936  1.00  0.00    -0.372 N 
HETATM   39  C13 UNL     1      23.358  26.864  18.519  1.00  0.00     0.127 C 
HETATM   40  C14 UNL     1      23.011  26.754  20.012  1.00  0.00     0.025 C 
HETATM   41  C15 UNL     1      21.643  27.351  20.134  1.00  0.00     0.046 C 
HETATM   42  C16 UNL     1      21.099  27.447  18.718  1.00  0.00     0.063 C 
ENDBRANCH  37  38
ENDBRANCH  36  37
ENDBRANCH  35  36
ENDBRANCH  33  35
ENDBRANCH   4  30
BRANCH   1  43
HETATM   43  N1  UNL     1      17.487  22.051  18.664  1.00  0.00    -0.221 N 
HETATM   44  C1  UNL     1      16.406  21.386  19.419  1.00  0.00     0.168 C 
BRANCH  43  45
HETATM   45  C2  UNL     1      18.743  22.164  19.350  1.00  0.00     0.145 C 
BRANCH  45  46
HETATM   46  C3  UNL     1      18.647  22.975  20.629  1.00  0.00     0.004 A 
HETATM   47  C4  UNL     1      19.597  24.168  20.627  1.00  0.00     0.007 A 
HETATM   48  C5  UNL     1      18.105  24.338  20.625  1.00  0.00     0.007 A 
ENDBRANCH  45  46
ENDBRANCH  43  45
ENDBRANCH   1  43
TORSDOF 12
ENDMDL
MODEL 2
REMARK VINA RESULT: -9.476056460      0.998      1.421
REMARK  12 active torsions:
REMARK  status: ('A' for Active; 'I' for Inactive)
REMARK    1  A    between atoms: N1_2  and  C2_3 
REMARK    2  A    between atoms: N1_2  and  C6_7 
REMARK    3  A    between atoms: C2_3  and  C3_4 
REMARK    4  A    between atoms: C7_10  and  N3_11 
REMARK    5  A    between atoms: C10_14  and  O1_15 
REMARK    6  A    between atoms: O1_15  and  C11_16 
REMARK    7  A    between atoms: C11_16  and  C12_17 
REMARK    8  A    between atoms: C12_17  and  N4_18 
REMARK    9  A    between atoms: C18_26  and  N6_27 
REMARK   10  A    between atoms: C22_31  and  C23_32 
REMARK       I    between atoms: C23_32  and  N7_34 
REMARK   11  A    between atoms: N7_34  and  C24_35 
REMARK   12  A    between atoms: C27_38  and  N8_39 
ROOT
HETATM    1  C6  UNL     1      17.282  22.557  17.331  1.00  0.00     0.709 A 
HETATM    2  N2  UNL     1      18.089  23.437  16.735  1.00  0.00    -0.021 N 
ATOM      3  H2  UNL     1      18.923  23.757  17.228  1.00  0.00     0.203 HD
HETATM    4  C7  UNL     1      17.834  23.919  15.495  1.00  0.00     0.709 A 
HETATM    5  N5  UNL     1      16.708  23.455  14.888  1.00  0.00    -0.021 N 
ATOM      6  H5  UNL     1      16.499  23.806  13.953  1.00  0.00     0.203 HD
HETATM    7  C18 UNL     1      15.858  22.577  15.420  1.00  0.00     0.710 A 
HETATM    8  N9  UNL     1      16.186  22.139  16.674  1.00  0.00    -0.021 N 
ATOM      9  H9  UNL     1      15.572  21.466  17.131  1.00  0.00     0.203 HD
ENDROOT
BRANCH   7  10
HETATM   10  N6  UNL     1      14.708  22.097  14.765  1.00  0.00    -0.206 N 
HETATM   11  C19 UNL     1      14.106  22.626  13.569  1.00  0.00     0.102 C 
HETATM   12  C20 UNL     1      12.716  23.177  13.860  1.00  0.00     0.027 C 
HETATM   13  C31 UNL     1      13.944  21.333  12.766  1.00  0.00     0.028 C 
HETATM   14  C21 UNL     1      11.866  22.035  14.338  1.00  0.00     0.019 C 
HETATM   15  C22 UNL     1      12.500  21.399  15.534  1.00  0.00     0.116 C 
HETATM   16  C29 UNL     1      13.901  20.976  15.138  1.00  0.00     0.116 C 
HETATM   17  C30 UNL     1      13.842  20.239  13.786  1.00  0.00     0.029 C 
BRANCH  15  18
HETATM   18  C23 UNL     1      11.711  20.151  15.926  1.00  0.00     0.293 C 
HETATM   19  O2  UNL     1      10.719  19.908  15.200  1.00  0.00    -0.257 OA
HETATM   20  N7  UNL     1      12.204  19.471  17.029  1.00  0.00    -0.409 NA
BRANCH  20  21
HETATM   21  C24 UNL     1      12.670  18.828  18.071  1.00  0.00     0.168 C 
HETATM   22  C25 UNL     1      14.210  18.828  18.339  1.00  0.00     0.041 C 
HETATM   23  C26 UNL     1      14.209  17.887  19.552  1.00  0.00     0.036 C 
HETATM   24  C27 UNL     1      13.060  18.399  20.376  1.00  0.00     0.186 C 
HETATM   25  C28 UNL     1      12.247  19.303  19.468  1.00  0.00     0.072 C 
BRANCH  24  26
HETATM   26  N8  UNL     1      12.254  17.344  20.910  1.00  0.00    -0.075 N 
ATOM     27  H83 UNL     1      12.655  16.978  21.774  1.00  0.00     0.274 HD
ATOM     28  H82 UNL     1      11.375  17.706  21.278  1.00  0.00     0.274 HD
ATOM     29  H81 UNL     1      12.091  16.597  20.236  1.00  0.00     0.274 HD
ENDBRANCH  24  26
ENDBRANCH  20  21
ENDBRANCH  15  18
ENDBRANCH   7  10
BRANCH   4  30
HETATM   30  N3  UNL     1      18.691  24.833  14.846  1.00  0.00    -0.214 N 
HETATM   31  C8  UNL     1      18.396  25.941  13.974  1.00  0.00     0.144 C 
HETATM   32  C9  UNL     1      19.358  27.024  14.484  1.00  0.00     0.054 C 
HETATM   33  C10 UNL     1      20.490  26.306  15.154  1.00  0.00     0.142 C 
HETATM   34  C17 UNL     1      20.158  24.830  14.934  1.00  0.00     0.173 C 
BRANCH  33  35
HETATM   35  O1  UNL     1      21.686  26.655  14.575  1.00  0.00    -0.379 OA
BRANCH  35  36
HETATM   36  C11 UNL     1      21.855  28.039  14.518  1.00  0.00     0.212 C 
BRANCH  36  37
HETATM   37  C12 UNL     1      22.581  28.476  15.774  1.00  0.00     0.089 C 
BRANCH  37  38
HETATM   38  N4  UNL     1      23.723  27.763  16.101  1.00  0.00    -0.372 N 
HETATM   39  C13 UNL     1      23.802  27.037  17.312  1.00  0.00     0.127 C 
HETATM   40  C14 UNL     1      25.170  26.339  17.265  1.00  0.00     0.025 C 
HETATM   41  C15 UNL     1      25.792  26.797  15.981  1.00  0.00     0.046 C 
HETATM   42  C16 UNL     1      24.968  27.987  15.517  1.00  0.00     0.063 C 
ENDBRANCH  37  38
ENDBRANCH  36  37
ENDBRANCH  35  36
ENDBRANCH  33  35
ENDBRANCH   4  30
BRANCH   1  43
HETATM   43  N1  UNL     1      17.537  22.058  18.634  1.00  0.00    -0.221 N 
HETATM   44  C1  UNL     1      16.471  21.372  19.391  1.00  0.00     0.168 C 
BRANCH  43  45
HETATM   45  C2  UNL     1      18.798  22.177  19.310  1.00  0.00     0.145 C 
BRANCH  45  46
HETATM   46  C3  UNL     1      18.706  22.977  20.596  1.00  0.00     0.004 A 
HETATM   47  C4  UNL     1      19.575  24.229  20.560  1.00  0.00     0.007 A 
HETATM   48  C5  UNL     1      18.077  24.301  20.624  1.00  0.00     0.007 A 
ENDBRANCH  45  46
ENDBRANCH  43  45
ENDBRANCH   1  43
TORSDOF 12
ENDMDL
MODEL 3
REMARK VINA RESULT: -9.121364521      2.244      4.459
REMARK  12 active torsions:
REMARK  status: ('A' for Active; 'I' for Inactive)
REMARK    1  A    between atoms: N1_2  and  C2_3 
REMARK    2  A    between atoms: N1_2  and  C6_7 
REMARK    3  A    between atoms: C2_3  and  C3_4 
REMARK    4  A    between atoms: C7_10  and  N3_11 
REMARK    5  A    between atoms: C10_14  and  O1_15 
REMARK    6  A    between atoms: O1_15  and  C11_16 
REMARK    7  A    between atoms: C11_16  and  C12_17 
REMARK    8  A    between atoms: C12_17  and  N4_18 
REMARK    9  A    between atoms: C18_26  and  N6_27 
REMARK   10  A    between atoms: C22_31  and  C23_32 
REMARK       I    between atoms: C23_32  and  N7_34 
REMARK   11  A    between atoms: N7_34  and  C24_35 
REMARK   12  A    between atoms: C27_38  and  N8_39 
ROOT
HETATM    1  C6  UNL     1      14.884  19.647  18.121  1.00  0.00     0.709 A 
HETATM    2  N2  UNL     1      15.774  20.600  18.409  1.00  0.00    -0.021 N 
ATOM      3  H2  UNL     1      16.378  20.484  19.222  1.00  0.00     0.203 HD
HETATM    4  C7  UNL     1      15.898  21.717  17.653  1.00  0.00     0.709 A 
HETATM    5  N5  UNL     1      15.066  21.814  16.580  1.00  0.00    -0.021 N 
ATOM      6  H5  UNL     1      15.144  22.648  15.997  1.00  0.00     0.203 HD
HETATM    7  C18 UNL     1      14.157  20.904  16.231  1.00  0.00     0.710 A 
HETATM    8  N9  UNL     1      14.093  19.806  17.046  1.00  0.00    -0.021 N 
ATOM      9  H9  UNL     1      13.416  19.077  16.828  1.00  0.00     0.203 HD
ENDROOT
BRANCH   7  10
HETATM   10  N6  UNL     1      13.318  21.017  15.107  1.00  0.00    -0.206 N 
HETATM   11  C19 UNL     1      13.343  22.052  14.107  1.00  0.00     0.102 C 
HETATM   12  C20 UNL     1      12.054  22.863  14.133  1.00  0.00     0.027 C 
HETATM   13  C31 UNL     1      13.336  21.191  12.841  1.00  0.00     0.028 C 
HETATM   14  C21 UNL     1      10.924  21.929  13.802  1.00  0.00     0.019 C 
HETATM   15  C22 UNL     1      10.913  20.789  14.769  1.00  0.00     0.116 C 
HETATM   16  C29 UNL     1      12.274  20.124  14.708  1.00  0.00     0.116 C 
HETATM   17  C30 UNL     1      12.666  19.909  13.234  1.00  0.00     0.029 C 
BRANCH  15  18
HETATM   18  C23 UNL     1       9.857  19.770  14.341  1.00  0.00     0.293 C 
HETATM   19  O2  UNL     1       9.076  20.168  13.446  1.00  0.00    -0.257 OA
HETATM   20  N7  UNL     1       9.915  18.555  15.008  1.00  0.00    -0.409 NA
BRANCH  20  21
HETATM   21  C24 UNL     1       9.969  17.408  15.637  1.00  0.00     0.168 C 
HETATM   22  C25 UNL     1      10.589  16.170  14.911  1.00  0.00     0.041 C 
HETATM   23  C26 UNL     1      10.310  15.128  16.002  1.00  0.00     0.036 C 
HETATM   24  C27 UNL     1      10.716  15.843  17.262  1.00  0.00     0.186 C 
HETATM   25  C28 UNL     1      10.825  17.313  16.908  1.00  0.00     0.072 C 
BRANCH  24  26
HETATM   26  N8  UNL     1       9.788  15.637  18.333  1.00  0.00    -0.075 N 
ATOM     27  H83 UNL     1      10.274  15.533  19.224  1.00  0.00     0.274 HD
ATOM     28  H82 UNL     1       9.263  16.488  18.531  1.00  0.00     0.274 HD
ATOM     29  H81 UNL     1       9.162  14.850  18.162  1.00  0.00     0.274 HD
ENDBRANCH  24  26
ENDBRANCH  20  21
ENDBRANCH  15  18
ENDBRANCH   7  10
BRANCH   4  30
HETATM   30  N3  UNL     1      16.849  22.721  17.933  1.00  0.00    -0.214 N 
HETATM   31  C8  UNL     1      16.700  24.005  18.568  1.00  0.00     0.144 C 
HETATM   32  C9  UNL     1      17.930  24.060  19.486  1.00  0.00     0.054 C 
HETATM   33  C10 UNL     1      18.949  23.141  18.887  1.00  0.00     0.142 C 
HETATM   34  C17 UNL     1      18.280  22.650  17.604  1.00  0.00     0.173 C 
BRANCH  33  35
HETATM   35  O1  UNL     1      20.115  23.822  18.629  1.00  0.00    -0.379 OA
BRANCH  35  36
HETATM   36  C11 UNL     1      19.956  25.202  18.771  1.00  0.00     0.212 C 
BRANCH  36  37
HETATM   37  C12 UNL     1      20.622  25.875  17.589  1.00  0.00     0.089 C 
BRANCH  37  38
HETATM   38  N4  UNL     1      19.991  25.729  16.365  1.00  0.00    -0.372 N 
HETATM   39  C13 UNL     1      20.739  25.693  15.165  1.00  0.00     0.127 C 
HETATM   40  C14 UNL     1      19.699  25.447  14.060  1.00  0.00     0.025 C 
HETATM   41  C15 UNL     1      18.382  25.410  14.772  1.00  0.00     0.046 C 
HETATM   42  C16 UNL     1      18.638  25.983  16.157  1.00  0.00     0.063 C 
ENDBRANCH  37  38
ENDBRANCH  36  37
ENDBRANCH  35  36
ENDBRANCH  33  35
ENDBRANCH   4  30
BRANCH   1  43
HETATM   43  N1  UNL     1      14.741  18.481  18.917  1.00  0.00    -0.221 N 
HETATM   44  C1  UNL     1      14.903  17.144  18.313  1.00  0.00     0.168 C 
BRANCH  43  45
HETATM   45  C2  UNL     1      14.431  18.496  20.318  1.00  0.00     0.145 C 
BRANCH  45  46
HETATM   46  C3  UNL     1      13.064  17.912  20.627  1.00  0.00     0.004 A 
HETATM   47  C4  UNL     1      12.180  18.890  21.394  1.00  0.00     0.007 A 
HETATM   48  C5  UNL     1      11.851  18.446  19.999  1.00  0.00     0.007 A 
ENDBRANCH  45  46
ENDBRANCH  43  45
ENDBRANCH   1  43
TORSDOF 12
ENDMDL
MODEL 4
REMARK VINA RESULT: -9.028491464      2.440     10.904
REMARK  12 active torsions:
REMARK  status: ('A' for Active; 'I' for Inactive)
REMARK    1  A    between atoms: N1_2  and  C2_3 
REMARK    2  A    between atoms: N1_2  and  C6_7 
REMARK    3  A    between atoms: C2_3  and  C3_4 
REMARK    4  A    between atoms: C7_10  and  N3_11 
REMARK    5  A    between atoms: C10_14  and  O1_15 
REMARK    6  A    between atoms: O1_15  and  C11_16 
REMARK    7  A    between atoms: C11_16  and  C12_17 
REMARK    8  A    between atoms: C12_17  and  N4_18 
REMARK    9  A    between atoms: C18_26  and  N6_27 
REMARK   10  A    between atoms: C22_31  and  C23_32 
REMARK       I    between atoms: C23_32  and  N7_34 
REMARK   11  A    between atoms: N7_34  and  C24_35 
REMARK   12  A    between atoms: C27_38  and  N8_39 
ROOT
HETATM    1  C6  UNL     1      15.710  21.728  16.405  1.00  0.00     0.709 A 
HETATM    2  N2  UNL     1      14.864  20.827  16.911  1.00  0.00    -0.021 N 
ATOM      3  H2  UNL     1      14.147  20.427  16.307  1.00  0.00     0.203 HD
HETATM    4  C7  UNL     1      14.930  20.429  18.204  1.00  0.00     0.709 A 
HETATM    5  N5  UNL     1      15.909  20.997  18.960  1.00  0.00    -0.021 N 
ATOM      6  H5  UNL     1      15.975  20.710  19.937  1.00  0.00     0.203 HD
HETATM    7  C18 UNL     1      16.787  21.899  18.524  1.00  0.00     0.710 A 
HETATM    8  N9  UNL     1      16.653  22.249  17.208  1.00  0.00    -0.021 N 
ATOM      9  H9  UNL     1      17.299  22.935  16.818  1.00  0.00     0.203 HD
ENDROOT
BRANCH   7  10
HETATM   10  N6  UNL     1      17.803  22.461  19.320  1.00  0.00    -0.206 N 
HETATM   11  C19 UNL     1      17.822  22.565  20.756  1.00  0.00     0.102 C 
HETATM   12  C20 UNL     1      17.799  24.024  21.194  1.00  0.00     0.027 C 
HETATM   13  C31 UNL     1      19.220  22.008  21.038  1.00  0.00     0.028 C 
HETATM   14  C21 UNL     1      19.045  24.676  20.667  1.00  0.00     0.019 C 
HETATM   15  C22 UNL     1      19.109  24.516  19.182  1.00  0.00     0.116 C 
HETATM   16  C29 UNL     1      19.037  23.033  18.877  1.00  0.00     0.116 C 
HETATM   17  C30 UNL     1      20.017  22.280  19.798  1.00  0.00     0.029 C 
BRANCH  15  18
HETATM   18  C23 UNL     1      20.446  25.051  18.670  1.00  0.00     0.293 C 
HETATM   19  O2  UNL     1      21.396  24.953  19.482  1.00  0.00    -0.257 OA
HETATM   20  N7  UNL     1      20.414  25.568  17.384  1.00  0.00    -0.409 NA
BRANCH  20  21
HETATM   21  C24 UNL     1      20.384  26.057  16.169  1.00  0.00     0.168 C 
HETATM   22  C25 UNL     1      19.139  25.777  15.267  1.00  0.00     0.041 C 
HETATM   23  C26 UNL     1      19.655  26.450  13.987  1.00  0.00     0.036 C 
HETATM   24  C27 UNL     1      20.239  27.739  14.496  1.00  0.00     0.186 C 
HETATM   25  C28 UNL     1      20.387  27.582  15.998  1.00  0.00     0.072 C 
BRANCH  24  26
HETATM   26  N8  UNL     1      21.494  28.053  13.884  1.00  0.00    -0.075 N 
ATOM     27  H83 UNL     1      21.429  28.908  13.332  1.00  0.00     0.274 HD
ATOM     28  H82 UNL     1      22.175  28.358  14.579  1.00  0.00     0.274 HD
ATOM     29  H81 UNL     1      21.860  27.282  13.325  1.00  0.00     0.274 HD
ENDBRANCH  24  26
ENDBRANCH  20  21
ENDBRANCH  15  18
ENDBRANCH   7  10
BRANCH   4  30
HETATM   30  N3  UNL     1      14.057  19.462  18.745  1.00  0.00    -0.214 N 
HETATM   31  C8  UNL     1      14.305  18.384  19.670  1.00  0.00     0.144 C 
HETATM   32  C9  UNL     1      13.091  18.472  20.606  1.00  0.00     0.054 C 
HETATM   33  C10 UNL     1      12.002  19.146  19.829  1.00  0.00     0.142 C 
HETATM   34  C17 UNL     1      12.622  19.353  18.448  1.00  0.00     0.173 C 
BRANCH  33  35
HETATM   35  O1  UNL     1      10.886  18.344  19.776  1.00  0.00    -0.379 OA
BRANCH  35  36
HETATM   36  C11 UNL     1      10.613  17.915  18.476  1.00  0.00     0.212 C 
BRANCH  36  37
HETATM   37  C12 UNL     1      10.861  16.422  18.412  1.00  0.00     0.089 C 
BRANCH  37  38
HETATM   38  N4  UNL     1      10.650  15.817  17.184  1.00  0.00    -0.372 N 
HETATM   39  C13 UNL     1      10.559  16.590  16.003  1.00  0.00     0.127 C 
HETATM   40  C14 UNL     1      10.402  15.562  14.871  1.00  0.00     0.025 C 
HETATM   41  C15 UNL     1      10.372  14.233  15.560  1.00  0.00     0.046 C 
HETATM   42  C16 UNL     1      10.144  14.528  17.034  1.00  0.00     0.063 C 
ENDBRANCH  37  38
ENDBRANCH  36  37
ENDBRANCH  35  36
ENDBRANCH  33  35
ENDBRANCH   4  30
BRANCH   1  43
HETATM   43  N1  UNL     1      15.637  22.158  15.055  1.00  0.00    -0.221 N 
HETATM   44  C1  UNL     1      16.420  23.325  14.602  1.00  0.00     0.168 C 
BRANCH  43  45
HETATM   45  C2  UNL     1      14.824  21.530  14.052  1.00  0.00     0.145 C 
BRANCH  45  46
HETATM   46  C3  UNL     1      13.623  22.368  13.655  1.00  0.00     0.004 A 
HETATM   47  C4  UNL     1      12.311  21.607  13.815  1.00  0.00     0.007 A 
HETATM   48  C5  UNL     1      12.642  22.809  14.651  1.00  0.00     0.007 A 
ENDBRANCH  45  46
ENDBRANCH  43  45
ENDBRANCH   1  43
TORSDOF 12
ENDMDL
MODEL 5
REMARK VINA RESULT: -8.988102519      2.276      4.346
REMARK  12 active torsions:
REMARK  status: ('A' for Active; 'I' for Inactive)
REMARK    1  A    between atoms: N1_2  and  C2_3 
REMARK    2  A    between atoms: N1_2  and  C6_7 
REMARK    3  A    between atoms: C2_3  and  C3_4 
REMARK    4  A    between atoms: C7_10  and  N3_11 
REMARK    5  A    between atoms: C10_14  and  O1_15 
REMARK    6  A    between atoms: O1_15  and  C11_16 
REMARK    7  A    between atoms: C11_16  and  C12_17 
REMARK    8  A    between atoms: C12_17  and  N4_18 
REMARK    9  A    between atoms: C18_26  and  N6_27 
REMARK   10  A    between atoms: C22_31  and  C23_32 
REMARK       I    between atoms: C23_32  and  N7_34 
REMARK   11  A    between atoms: N7_34  and  C24_35 
REMARK   12  A    between atoms: C27_38  and  N8_39 
ROOT
HETATM    1  C6  UNL     1      14.790  19.637  18.078  1.00  0.00     0.709 A 
HETATM    2  N2  UNL     1      15.646  20.627  18.340  1.00  0.00    -0.021 N 
ATOM      3  H2  UNL     1      16.268  20.544  19.144  1.00  0.00     0.203 HD
HETATM    4  C7  UNL     1      15.713  21.739  17.570  1.00  0.00     0.709 A 
HETATM    5  N5  UNL     1      14.860  21.792  16.511  1.00  0.00    -0.021 N 
ATOM      6  H5  UNL     1      14.895  22.621  15.918  1.00  0.00     0.203 HD
HETATM    7  C18 UNL     1      13.981  20.843  16.188  1.00  0.00     0.710 A 
HETATM    8  N9  UNL     1      13.975  19.753  17.016  1.00  0.00    -0.021 N 
ATOM      9  H9  UNL     1      13.323  18.995  16.817  1.00  0.00     0.203 HD
ENDROOT
BRANCH   7  10
HETATM   10  N6  UNL     1      13.119  20.911  15.077  1.00  0.00    -0.206 N 
HETATM   11  C19 UNL     1      13.125  21.904  14.035  1.00  0.00     0.102 C 
HETATM   12  C20 UNL     1      11.836  22.716  14.054  1.00  0.00     0.027 C 
HETATM   13  C31 UNL     1      13.091  20.991  12.806  1.00  0.00     0.028 C 
HETATM   14  C21 UNL     1      10.700  21.771  13.785  1.00  0.00     0.019 C 
HETATM   15  C22 UNL     1      10.708  20.672  14.798  1.00  0.00     0.116 C 
HETATM   16  C29 UNL     1      12.067  20.003  14.737  1.00  0.00     0.116 C 
HETATM   17  C30 UNL     1      12.428  19.727  13.265  1.00  0.00     0.029 C 
BRANCH  15  18
HETATM   18  C23 UNL     1       9.644  19.637  14.435  1.00  0.00     0.293 C 
HETATM   19  O2  UNL     1       8.799  20.026  13.595  1.00  0.00    -0.257 OA
HETATM   20  N7  UNL     1       9.765  18.420  15.089  1.00  0.00    -0.409 NA
BRANCH  20  21
HETATM   21  C24 UNL     1       9.879  17.271  15.707  1.00  0.00     0.168 C 
HETATM   22  C25 UNL     1      10.550  16.071  14.963  1.00  0.00     0.041 C 
HETATM   23  C26 UNL     1      10.331  15.006  16.047  1.00  0.00     0.036 C 
HETATM   24  C27 UNL     1      10.714  15.728  17.310  1.00  0.00     0.186 C 
HETATM   25  C28 UNL     1      10.751  17.205  16.969  1.00  0.00     0.072 C 
BRANCH  24  26
HETATM   26  N8  UNL     1       9.808  15.469  18.387  1.00  0.00    -0.075 N 
ATOM     27  H83 UNL     1       9.614  16.319  18.915  1.00  0.00     0.274 HD
ATOM     28  H82 UNL     1       8.870  15.275  18.037  1.00  0.00     0.274 HD
ATOM     29  H81 UNL     1      10.133  14.722  19.001  1.00  0.00     0.274 HD
ENDBRANCH  24  26
ENDBRANCH  20  21
ENDBRANCH  15  18
ENDBRANCH   7  10
BRANCH   4  30
HETATM   30  N3  UNL     1      16.629  22.783  17.823  1.00  0.00    -0.214 N 
HETATM   31  C8  UNL     1      16.503  23.968  18.632  1.00  0.00     0.144 C 
HETATM   32  C9  UNL     1      17.862  24.023  19.345  1.00  0.00     0.054 C 
HETATM   33  C10 UNL     1      18.827  23.270  18.481  1.00  0.00     0.142 C 
HETATM   34  C17 UNL     1      17.987  22.873  17.267  1.00  0.00     0.173 C 
BRANCH  33  35
HETATM   35  O1  UNL     1      19.885  24.074  18.132  1.00  0.00    -0.379 OA
BRANCH  35  36
HETATM   36  C11 UNL     1      19.649  24.760  16.939  1.00  0.00     0.212 C 
BRANCH  36  37
HETATM   37  C12 UNL     1      19.719  26.245  17.229  1.00  0.00     0.089 C 
BRANCH  37  38
HETATM   38  N4  UNL     1      20.464  27.008  16.345  1.00  0.00    -0.372 N 
HETATM   39  C13 UNL     1      20.361  26.805  14.949  1.00  0.00     0.127 C 
HETATM   40  C14 UNL     1      21.269  27.877  14.328  1.00  0.00     0.025 C 
HETATM   41  C15 UNL     1      21.870  28.597  15.495  1.00  0.00     0.046 C 
HETATM   42  C16 UNL     1      21.601  27.724  16.711  1.00  0.00     0.063 C 
ENDBRANCH  37  38
ENDBRANCH  36  37
ENDBRANCH  35  36
ENDBRANCH  33  35
ENDBRANCH   4  30
BRANCH   1  43
HETATM   43  N1  UNL     1      14.706  18.476  18.889  1.00  0.00    -0.221 N 
HETATM   44  C1  UNL     1      14.921  17.139  18.299  1.00  0.00     0.168 C 
BRANCH  43  45
HETATM   45  C2  UNL     1      14.409  18.493  20.293  1.00  0.00     0.145 C 
BRANCH  45  46
HETATM   46  C3  UNL     1      13.050  17.900  20.617  1.00  0.00     0.004 A 
HETATM   47  C4  UNL     1      12.139  18.899  21.321  1.00  0.00     0.007 A 
HETATM   48  C5  UNL     1      11.835  18.375  19.948  1.00  0.00     0.007 A 
ENDBRANCH  45  46
ENDBRANCH  43  45
ENDBRANCH   1  43
TORSDOF 12
ENDMDL
