MODEL 1
REMARK VINA RESULT: -8.605714024      0.000      0.000
REMARK  12 active torsions:
REMARK  status: ('A' for Active; 'I' for Inactive)
REMARK    1  A    between atoms: C2_2  and  C3_3 
REMARK    2  A    between atoms: C3_3  and  C4_4 
REMARK    3  A    between atoms: C4_4  and  O1_5 
REMARK    4  A    between atoms: O1_5  and  C5_6 
REMARK    5  A    between atoms: C8_11  and  N2_12 
REMARK       I    between atoms: N3_15  and  C11_16 
REMARK    6  A    between atoms: C11_16  and  C12_18 
REMARK    7  A    between atoms: C12_18  and  N4_19 
REMARK    8  A    between atoms: C18_30  and  N7_31 
REMARK    9  A    between atoms: N7_31  and  C19_33 
REMARK   10  A    between atoms: C21_35  and  O3_36 
REMARK   11  A    between atoms: C24_39  and  O4_40 
REMARK   12  A    between atoms: C29_45  and  O5_46 
ROOT
HETATM    1  C5  UNL     1      24.351  24.871  21.023  1.00  0.00     0.104 A 
HETATM    2  C6  UNL     1      23.172  24.121  20.943  1.00  0.00     0.070 A 
HETATM    3  C7  UNL     1      22.062  24.628  20.309  1.00  0.00     0.066 A 
HETATM    4  N1  UNL     1      20.939  23.902  20.239  1.00  0.00    -0.191 N 
ATOM      5  H1  UNL     1      20.924  22.974  20.661  1.00  0.00     0.184 HD
HETATM    6  C8  UNL     1      19.819  24.365  19.624  1.00  0.00     0.682 A 
HETATM    7  N6  UNL     1      19.881  25.589  19.084  1.00  0.00    -0.176 N 
ATOM      8  H6  UNL     1      19.053  25.956  18.617  1.00  0.00     0.186 HD
HETATM    9  C18 UNL     1      21.004  26.368  19.129  1.00  0.00     0.134 A 
HETATM   10  C27 UNL     1      22.137  25.881  19.760  1.00  0.00     0.039 A 
HETATM   11  C28 UNL     1      23.300  26.647  19.827  1.00  0.00     0.057 A 
HETATM   12  C29 UNL     1      24.421  26.131  20.470  1.00  0.00     0.102 A 
ENDROOT
BRANCH   6  13
HETATM   13  N2  UNL     1      18.636  23.586  19.559  1.00  0.00    -0.214 N 
HETATM   14  C9  UNL     1      17.366  24.339  19.493  1.00  0.00     0.161 C 
HETATM   15  C10 UNL     1      16.471  23.777  18.429  1.00  0.00     0.146 C 
HETATM   16  N3  UNL     1      16.324  22.348  18.674  1.00  0.00    -0.348 N 
HETATM   17  C11 UNL     1      15.046  21.760  18.899  1.00  0.00     0.248 C 
HETATM   18  C16 UNL     1      17.541  21.566  18.669  1.00  0.00     0.146 C 
HETATM   19  O2  UNL     1      14.051  22.519  18.880  1.00  0.00    -0.271 OA
HETATM   20  C17 UNL     1      18.633  22.146  19.547  1.00  0.00     0.161 C 
BRANCH  17  21
HETATM   21  C12 UNL     1      14.990  20.311  19.134  1.00  0.00     0.377 C 
BRANCH  21  22
HETATM   22  N4  UNL     1      13.677  19.759  19.146  1.00  0.00     0.124 N 
HETATM   23  C13 UNL     1      13.432  18.790  20.157  1.00  0.00     0.302 A 
HETATM   24  C14 UNL     1      12.846  17.616  19.432  1.00  0.00     0.264 A 
HETATM   25  N5  UNL     1      12.684  17.990  18.062  1.00  0.00    -0.047 N 
HETATM   26  C15 UNL     1      13.161  19.332  17.903  1.00  0.00     0.503 A 
ATOM     27  H52 UNL     1      13.132  17.335  17.419  1.00  0.00     0.279 HD
ATOM     28  H51 UNL     1      11.726  17.872  17.732  1.00  0.00     0.279 HD
ENDBRANCH  21  22
ENDBRANCH  17  21
ENDBRANCH   6  13
BRANCH   9  29
HETATM   29  N7  UNL     1      21.026  27.542  18.601  1.00  0.00    -0.341 N 
ATOM     30  H7  UNL     1      20.912  28.375  19.178  1.00  0.00     0.167 HD
BRANCH  29  31
HETATM   31  C19 UNL     1      21.214  27.649  17.200  1.00  0.00     0.038 A 
HETATM   32  C20 UNL     1      20.218  27.427  16.294  1.00  0.00     0.066 A 
HETATM   33  C21 UNL     1      20.491  27.556  14.931  1.00  0.00     0.073 A 
HETATM   34  C23 UNL     1      21.747  27.902  14.465  1.00  0.00     0.073 A 
HETATM   35  C24 UNL     1      22.743  28.124  15.390  1.00  0.00     0.073 A 
HETATM   36  C26 UNL     1      22.478  27.997  16.750  1.00  0.00     0.066 A 
BRANCH  33  37
HETATM   37  O3  UNL     1      19.460  27.324  14.057  1.00  0.00    -0.356 OA
HETATM   38  C22 UNL     1      18.517  26.290  14.165  1.00  0.00     0.210 C 
ENDBRANCH  33  37
BRANCH  35  39
HETATM   39  O4  UNL     1      24.031  28.475  15.040  1.00  0.00    -0.356 OA
HETATM   40  C25 UNL     1      25.179  28.251  15.810  1.00  0.00     0.210 C 
ENDBRANCH  35  39
ENDBRANCH  29  31
ENDBRANCH   9  29
BRANCH   1  41
HETATM   41  O1  UNL     1      25.477  24.365  21.664  1.00  0.00    -0.348 OA
BRANCH  41  42
HETATM   42  C4  UNL     1      26.205  23.263  21.140  1.00  0.00     0.176 C 
BRANCH  42  43
HETATM   43  C3  UNL     1      27.059  23.656  19.974  1.00  0.00     0.026 C 
BRANCH  43  44
HETATM   44  C2  UNL     1      26.346  23.229  18.705  1.00  0.00    -0.002 C 
HETATM   45  C1  UNL     1      25.750  21.864  18.955  1.00  0.00     0.005 C 
ENDBRANCH  43  44
ENDBRANCH  42  43
ENDBRANCH  41  42
ENDBRANCH   1  41
BRANCH  12  46
HETATM   46  O5  UNL     1      25.615  26.858  20.566  1.00  0.00    -0.353 OA
HETATM   47  C30 UNL     1      26.276  27.172  19.352  1.00  0.00     0.210 C 
ENDBRANCH  12  46
TORSDOF 12
ENDMDL
MODEL 2
REMARK VINA RESULT: -8.583754994      0.070      2.015
REMARK  12 active torsions:
REMARK  status: ('A' for Active; 'I' for Inactive)
REMARK    1  A    between atoms: C2_2  and  C3_3 
REMARK    2  A    between atoms: C3_3  and  C4_4 
REMARK    3  A    between atoms: C4_4  and  O1_5 
REMARK    4  A    between atoms: O1_5  and  C5_6 
REMARK    5  A    between atoms: C8_11  and  N2_12 
REMARK       I    between atoms: N3_15  and  C11_16 
REMARK    6  A    between atoms: C11_16  and  C12_18 
REMARK    7  A    between atoms: C12_18  and  N4_19 
REMARK    8  A    between atoms: C18_30  and  N7_31 
REMARK    9  A    between atoms: N7_31  and  C19_33 
REMARK   10  A    between atoms: C21_35  and  O3_36 
REMARK   11  A    between atoms: C24_39  and  O4_40 
REMARK   12  A    between atoms: C29_45  and  O5_46 
ROOT
HETATM    1  C5  UNL     1      24.345  24.909  21.002  1.00  0.00     0.104 A 
HETATM    2  C6  UNL     1      23.167  24.155  20.920  1.00  0.00     0.070 A 
HETATM    3  C7  UNL     1      22.055  24.664  20.291  1.00  0.00     0.066 A 
HETATM    4  N1  UNL     1      20.933  23.936  20.220  1.00  0.00    -0.191 N 
ATOM      5  H1  UNL     1      20.921  23.005  20.636  1.00  0.00     0.184 HD
HETATM    6  C8  UNL     1      19.811  24.400  19.610  1.00  0.00     0.682 A 
HETATM    7  N6  UNL     1      19.869  25.627  19.077  1.00  0.00    -0.176 N 
ATOM      8  H6  UNL     1      19.039  25.996  18.614  1.00  0.00     0.186 HD
HETATM    9  C18 UNL     1      20.989  26.409  19.125  1.00  0.00     0.134 A 
HETATM   10  C27 UNL     1      22.126  25.921  19.750  1.00  0.00     0.039 A 
HETATM   11  C28 UNL     1      23.286  26.689  19.820  1.00  0.00     0.057 A 
HETATM   12  C29 UNL     1      24.410  26.171  20.457  1.00  0.00     0.102 A 
ENDROOT
BRANCH   6  13
HETATM   13  N2  UNL     1      18.629  23.619  19.543  1.00  0.00    -0.214 N 
HETATM   14  C9  UNL     1      17.357  24.369  19.482  1.00  0.00     0.161 C 
HETATM   15  C10 UNL     1      16.462  23.810  18.417  1.00  0.00     0.146 C 
HETATM   16  N3  UNL     1      16.319  22.379  18.655  1.00  0.00    -0.348 N 
HETATM   17  C11 UNL     1      15.043  21.788  18.879  1.00  0.00     0.248 C 
HETATM   18  C16 UNL     1      17.538  21.600  18.645  1.00  0.00     0.146 C 
HETATM   19  O2  UNL     1      14.046  22.544  18.865  1.00  0.00    -0.271 OA
HETATM   20  C17 UNL     1      18.630  22.179  19.524  1.00  0.00     0.161 C 
BRANCH  17  21
HETATM   21  C12 UNL     1      14.990  20.338  19.107  1.00  0.00     0.377 C 
BRANCH  21  22
HETATM   22  N4  UNL     1      13.678  19.785  19.133  1.00  0.00     0.124 N 
HETATM   23  C13 UNL     1      13.439  18.827  20.157  1.00  0.00     0.302 A 
HETATM   24  C14 UNL     1      12.850  17.645  19.449  1.00  0.00     0.264 A 
HETATM   25  N5  UNL     1      12.679  18.002  18.076  1.00  0.00    -0.047 N 
HETATM   26  C15 UNL     1      13.154  19.343  17.899  1.00  0.00     0.503 A 
ATOM     27  H52 UNL     1      13.124  17.340  17.439  1.00  0.00     0.279 HD
ATOM     28  H51 UNL     1      11.719  17.880  17.754  1.00  0.00     0.279 HD
ENDBRANCH  21  22
ENDBRANCH  17  21
ENDBRANCH   6  13
BRANCH   9  29
HETATM   29  N7  UNL     1      21.008  27.586  18.604  1.00  0.00    -0.341 N 
ATOM     30  H7  UNL     1      20.815  28.411  19.172  1.00  0.00     0.167 HD
BRANCH  29  31
HETATM   31  C19 UNL     1      21.302  27.709  17.223  1.00  0.00     0.038 A 
HETATM   32  C20 UNL     1      22.546  28.011  16.748  1.00  0.00     0.066 A 
HETATM   33  C21 UNL     1      22.748  28.112  15.371  1.00  0.00     0.073 A 
HETATM   34  C23 UNL     1      21.722  27.917  14.465  1.00  0.00     0.073 A 
HETATM   35  C24 UNL     1      20.471  27.612  14.956  1.00  0.00     0.073 A 
HETATM   36  C26 UNL     1      20.263  27.510  16.328  1.00  0.00     0.066 A 
BRANCH  33  37
HETATM   37  O3  UNL     1      24.014  28.417  14.940  1.00  0.00    -0.356 OA
HETATM   38  C22 UNL     1      25.200  28.144  15.637  1.00  0.00     0.210 C 
ENDBRANCH  33  37
BRANCH  35  39
HETATM   39  O4  UNL     1      19.376  27.396  14.145  1.00  0.00    -0.356 OA
HETATM   40  C25 UNL     1      18.441  26.362  14.289  1.00  0.00     0.210 C 
ENDBRANCH  35  39
ENDBRANCH  29  31
ENDBRANCH   9  29
BRANCH   1  41
HETATM   41  O1  UNL     1      25.473  24.400  21.637  1.00  0.00    -0.348 OA
BRANCH  41  42
HETATM   42  C4  UNL     1      26.171  23.271  21.133  1.00  0.00     0.176 C 
BRANCH  42  43
HETATM   43  C3  UNL     1      27.005  23.613  19.936  1.00  0.00     0.026 C 
BRANCH  43  44
HETATM   44  C2  UNL     1      26.246  23.179  18.697  1.00  0.00    -0.002 C 
HETATM   45  C1  UNL     1      25.724  21.785  18.947  1.00  0.00     0.005 C 
ENDBRANCH  43  44
ENDBRANCH  42  43
ENDBRANCH  41  42
ENDBRANCH   1  41
BRANCH  12  46
HETATM   46  O5  UNL     1      25.602  26.901  20.555  1.00  0.00    -0.353 OA
HETATM   47  C30 UNL     1      26.271  27.205  19.342  1.00  0.00     0.210 C 
ENDBRANCH  12  46
TORSDOF 12
ENDMDL
MODEL 3
REMARK VINA RESULT: -8.129920768      0.845      1.121
REMARK  12 active torsions:
REMARK  status: ('A' for Active; 'I' for Inactive)
REMARK    1  A    between atoms: C2_2  and  C3_3 
REMARK    2  A    between atoms: C3_3  and  C4_4 
REMARK    3  A    between atoms: C4_4  and  O1_5 
REMARK    4  A    between atoms: O1_5  and  C5_6 
REMARK    5  A    between atoms: C8_11  and  N2_12 
REMARK       I    between atoms: N3_15  and  C11_16 
REMARK    6  A    between atoms: C11_16  and  C12_18 
REMARK    7  A    between atoms: C12_18  and  N4_19 
REMARK    8  A    between atoms: C18_30  and  N7_31 
REMARK    9  A    between atoms: N7_31  and  C19_33 
REMARK   10  A    between atoms: C21_35  and  O3_36 
REMARK   11  A    between atoms: C24_39  and  O4_40 
REMARK   12  A    between atoms: C29_45  and  O5_46 
ROOT
HETATM    1  C5  UNL     1      24.192  24.906  21.213  1.00  0.00     0.104 A 
HETATM    2  C6  UNL     1      22.998  24.180  21.121  1.00  0.00     0.070 A 
HETATM    3  C7  UNL     1      21.920  24.692  20.437  1.00  0.00     0.066 A 
HETATM    4  N1  UNL     1      20.783  23.991  20.356  1.00  0.00    -0.191 N 
ATOM      5  H1  UNL     1      20.733  23.077  20.806  1.00  0.00     0.184 HD
HETATM    6  C8  UNL     1      19.693  24.459  19.693  1.00  0.00     0.682 A 
HETATM    7  N6  UNL     1      19.801  25.663  19.116  1.00  0.00    -0.176 N 
ATOM      8  H6  UNL     1      18.996  26.035  18.613  1.00  0.00     0.186 HD
HETATM    9  C18 UNL     1      20.940  26.418  19.171  1.00  0.00     0.134 A 
HETATM   10  C27 UNL     1      22.042  25.925  19.851  1.00  0.00     0.039 A 
HETATM   11  C28 UNL     1      23.220  26.666  19.930  1.00  0.00     0.057 A 
HETATM   12  C29 UNL     1      24.308  26.144  20.623  1.00  0.00     0.102 A 
ENDROOT
BRANCH   6  13
HETATM   13  N2  UNL     1      18.494  23.706  19.616  1.00  0.00    -0.214 N 
HETATM   14  C9  UNL     1      17.277  24.459  19.247  1.00  0.00     0.161 C 
HETATM   15  C10 UNL     1      16.499  23.726  18.195  1.00  0.00     0.146 C 
HETATM   16  N3  UNL     1      16.259  22.371  18.675  1.00  0.00    -0.348 N 
HETATM   17  C11 UNL     1      14.938  21.862  18.834  1.00  0.00     0.248 C 
HETATM   18  C16 UNL     1      17.431  21.577  18.975  1.00  0.00     0.146 C 
HETATM   19  O2  UNL     1      13.988  22.624  18.546  1.00  0.00    -0.271 OA
HETATM   20  C17 UNL     1      18.429  22.290  19.868  1.00  0.00     0.161 C 
BRANCH  17  21
HETATM   21  C12 UNL     1      14.788  20.485  19.321  1.00  0.00     0.377 C 
BRANCH  21  22
HETATM   22  N4  UNL     1      14.248  19.571  18.371  1.00  0.00     0.124 N 
HETATM   23  C13 UNL     1      12.829  19.481  18.349  1.00  0.00     0.302 A 
HETATM   24  C14 UNL     1      12.534  18.016  18.444  1.00  0.00     0.264 A 
HETATM   25  N5  UNL     1      13.781  17.319  18.415  1.00  0.00    -0.047 N 
HETATM   26  C15 UNL     1      14.834  18.288  18.326  1.00  0.00     0.503 A 
ATOM     27  H52 UNL     1      13.896  16.684  19.206  1.00  0.00     0.279 HD
ATOM     28  H51 UNL     1      13.825  16.622  17.672  1.00  0.00     0.279 HD
ENDBRANCH  21  22
ENDBRANCH  17  21
ENDBRANCH   6  13
BRANCH   9  29
HETATM   29  N7  UNL     1      21.006  27.572  18.607  1.00  0.00    -0.341 N 
ATOM     30  H7  UNL     1      20.927  28.427  19.158  1.00  0.00     0.167 HD
BRANCH  29  31
HETATM   31  C19 UNL     1      21.193  27.629  17.204  1.00  0.00     0.038 A 
HETATM   32  C20 UNL     1      20.209  27.330  16.306  1.00  0.00     0.066 A 
HETATM   33  C21 UNL     1      20.480  27.414  14.939  1.00  0.00     0.073 A 
HETATM   34  C23 UNL     1      21.722  27.791  14.461  1.00  0.00     0.073 A 
HETATM   35  C24 UNL     1      22.706  28.090  15.376  1.00  0.00     0.073 A 
HETATM   36  C26 UNL     1      22.443  28.009  16.740  1.00  0.00     0.066 A 
BRANCH  33  37
HETATM   37  O3  UNL     1      19.461  27.104  14.074  1.00  0.00    -0.356 OA
HETATM   38  C22 UNL     1      18.676  25.942  14.122  1.00  0.00     0.210 C 
ENDBRANCH  33  37
BRANCH  35  39
HETATM   39  O4  UNL     1      23.980  28.478  15.013  1.00  0.00    -0.356 OA
HETATM   40  C25 UNL     1      25.133  28.341  15.797  1.00  0.00     0.210 C 
ENDBRANCH  35  39
ENDBRANCH  29  31
ENDBRANCH   9  29
BRANCH   1  41
HETATM   41  O1  UNL     1      25.286  24.394  21.904  1.00  0.00    -0.348 OA
BRANCH  41  42
HETATM   42  C4  UNL     1      26.160  23.439  21.320  1.00  0.00     0.176 C 
BRANCH  42  43
HETATM   43  C3  UNL     1      26.965  22.708  22.350  1.00  0.00     0.026 C 
BRANCH  43  44
HETATM   44  C2  UNL     1      27.506  21.443  21.711  1.00  0.00    -0.002 C 
HETATM   45  C1  UNL     1      27.323  20.319  22.702  1.00  0.00     0.005 C 
ENDBRANCH  43  44
ENDBRANCH  42  43
ENDBRANCH  41  42
ENDBRANCH   1  41
BRANCH  12  46
HETATM   46  O5  UNL     1      25.516  26.847  20.733  1.00  0.00    -0.353 OA
HETATM   47  C30 UNL     1      26.310  26.947  19.562  1.00  0.00     0.210 C 
ENDBRANCH  12  46
TORSDOF 12
ENDMDL
MODEL 4
REMARK VINA RESULT: -8.078257959      1.517      2.868
REMARK  12 active torsions:
REMARK  status: ('A' for Active; 'I' for Inactive)
REMARK    1  A    between atoms: C2_2  and  C3_3 
REMARK    2  A    between atoms: C3_3  and  C4_4 
REMARK    3  A    between atoms: C4_4  and  O1_5 
REMARK    4  A    between atoms: O1_5  and  C5_6 
REMARK    5  A    between atoms: C8_11  and  N2_12 
REMARK       I    between atoms: N3_15  and  C11_16 
REMARK    6  A    between atoms: C11_16  and  C12_18 
REMARK    7  A    between atoms: C12_18  and  N4_19 
REMARK    8  A    between atoms: C18_30  and  N7_31 
REMARK    9  A    between atoms: N7_31  and  C19_33 
REMARK   10  A    between atoms: C21_35  and  O3_36 
REMARK   11  A    between atoms: C24_39  and  O4_40 
REMARK   12  A    between atoms: C29_45  and  O5_46 
ROOT
HETATM    1  C5  UNL     1      24.283  24.810  21.329  1.00  0.00     0.104 A 
HETATM    2  C6  UNL     1      23.121  24.092  21.019  1.00  0.00     0.070 A 
HETATM    3  C7  UNL     1      22.136  24.656  20.244  1.00  0.00     0.066 A 
HETATM    4  N1  UNL     1      21.029  23.961  19.955  1.00  0.00    -0.191 N 
ATOM      5  H1  UNL     1      20.932  23.013  20.318  1.00  0.00     0.184 HD
HETATM    6  C8  UNL     1      20.029  24.480  19.194  1.00  0.00     0.682 A 
HETATM    7  N6  UNL     1      20.196  25.728  18.738  1.00  0.00    -0.176 N 
ATOM      8  H6  UNL     1      19.459  26.139  18.165  1.00  0.00     0.186 HD
HETATM    9  C18 UNL     1      21.307  26.479  19.006  1.00  0.00     0.134 A 
HETATM   10  C27 UNL     1      22.317  25.934  19.783  1.00  0.00     0.039 A 
HETATM   11  C28 UNL     1      23.464  26.669  20.077  1.00  0.00     0.057 A 
HETATM   12  C29 UNL     1      24.459  26.094  20.863  1.00  0.00     0.102 A 
ENDROOT
BRANCH   6  13
HETATM   13  N2  UNL     1      18.861  23.734  18.898  1.00  0.00    -0.214 N 
HETATM   14  C9  UNL     1      18.788  22.380  19.488  1.00  0.00     0.161 C 
HETATM   15  C10 UNL     1      17.443  22.143  20.106  1.00  0.00     0.146 C 
HETATM   16  N3  UNL     1      16.429  22.427  19.100  1.00  0.00    -0.348 N 
HETATM   17  C11 UNL     1      15.496  21.435  18.684  1.00  0.00     0.248 C 
HETATM   18  C16 UNL     1      16.421  23.768  18.555  1.00  0.00     0.146 C 
HETATM   19  O2  UNL     1      15.580  20.306  19.216  1.00  0.00    -0.271 OA
HETATM   20  C17 UNL     1      17.786  24.233  18.082  1.00  0.00     0.161 C 
BRANCH  17  21
HETATM   21  C12 UNL     1      14.505  21.809  17.666  1.00  0.00     0.377 C 
BRANCH  21  22
HETATM   22  N4  UNL     1      14.684  21.182  16.400  1.00  0.00     0.124 N 
HETATM   23  C13 UNL     1      15.531  21.873  15.491  1.00  0.00     0.302 A 
HETATM   24  C14 UNL     1      14.741  21.965  14.221  1.00  0.00     0.264 A 
HETATM   25  N5  UNL     1      13.523  21.241  14.415  1.00  0.00    -0.047 N 
HETATM   26  C15 UNL     1      13.517  20.724  15.752  1.00  0.00     0.503 A 
ATOM     27  H52 UNL     1      12.696  21.800  14.205  1.00  0.00     0.279 HD
ATOM     28  H51 UNL     1      13.381  20.516  13.712  1.00  0.00     0.279 HD
ENDBRANCH  21  22
ENDBRANCH  17  21
ENDBRANCH   6  13
BRANCH   9  29
HETATM   29  N7  UNL     1      21.432  27.677  18.553  1.00  0.00    -0.341 N 
ATOM     30  H7  UNL     1      21.308  28.482  19.167  1.00  0.00     0.167 HD
BRANCH  29  31
HETATM   31  C19 UNL     1      21.745  27.852  17.182  1.00  0.00     0.038 A 
HETATM   32  C20 UNL     1      23.014  28.067  16.727  1.00  0.00     0.066 A 
HETATM   33  C21 UNL     1      23.233  28.227  15.358  1.00  0.00     0.073 A 
HETATM   34  C23 UNL     1      22.200  28.178  14.440  1.00  0.00     0.073 A 
HETATM   35  C24 UNL     1      20.924  27.960  14.911  1.00  0.00     0.073 A 
HETATM   36  C26 UNL     1      20.699  27.799  16.275  1.00  0.00     0.066 A 
BRANCH  33  37
HETATM   37  O3  UNL     1      24.525  28.441  14.947  1.00  0.00    -0.356 OA
HETATM   38  C22 UNL     1      25.662  27.804  15.466  1.00  0.00     0.210 C 
ENDBRANCH  33  37
BRANCH  35  39
HETATM   39  O4  UNL     1      19.819  27.890  14.087  1.00  0.00    -0.356 OA
HETATM   40  C25 UNL     1      18.775  26.963  14.195  1.00  0.00     0.210 C 
ENDBRANCH  35  39
ENDBRANCH  29  31
ENDBRANCH   9  29
BRANCH   1  41
HETATM   41  O1  UNL     1      25.283  24.245  22.113  1.00  0.00    -0.348 OA
BRANCH  41  42
HETATM   42  C4  UNL     1      26.011  23.103  21.689  1.00  0.00     0.176 C 
BRANCH  42  43
HETATM   43  C3  UNL     1      26.888  23.399  20.511  1.00  0.00     0.026 C 
BRANCH  43  44
HETATM   44  C2  UNL     1      26.264  22.753  19.289  1.00  0.00    -0.002 C 
HETATM   45  C1  UNL     1      26.155  23.812  18.219  1.00  0.00     0.005 C 
ENDBRANCH  43  44
ENDBRANCH  42  43
ENDBRANCH  41  42
ENDBRANCH   1  41
BRANCH  12  46
HETATM   46  O5  UNL     1      25.632  26.789  21.189  1.00  0.00    -0.353 OA
HETATM   47  C30 UNL     1      26.547  27.034  20.134  1.00  0.00     0.210 C 
ENDBRANCH  12  46
TORSDOF 12
ENDMDL
MODEL 5
REMARK VINA RESULT: -8.067803477      1.516      2.068
REMARK  12 active torsions:
REMARK  status: ('A' for Active; 'I' for Inactive)
REMARK    1  A    between atoms: C2_2  and  C3_3 
REMARK    2  A    between atoms: C3_3  and  C4_4 
REMARK    3  A    between atoms: C4_4  and  O1_5 
REMARK    4  A    between atoms: O1_5  and  C5_6 
REMARK    5  A    between atoms: C8_11  and  N2_12 
REMARK       I    between atoms: N3_15  and  C11_16 
REMARK    6  A    between atoms: C11_16  and  C12_18 
REMARK    7  A    between atoms: C12_18  and  N4_19 
REMARK    8  A    between atoms: C18_30  and  N7_31 
REMARK    9  A    between atoms: N7_31  and  C19_33 
REMARK   10  A    between atoms: C21_35  and  O3_36 
REMARK   11  A    between atoms: C24_39  and  O4_40 
REMARK   12  A    between atoms: C29_45  and  O5_46 
ROOT
HETATM    1  C5  UNL     1      24.417  24.797  21.358  1.00  0.00     0.104 A 
HETATM    2  C6  UNL     1      23.253  24.081  21.053  1.00  0.00     0.070 A 
HETATM    3  C7  UNL     1      22.271  24.643  20.272  1.00  0.00     0.066 A 
HETATM    4  N1  UNL     1      21.161  23.951  19.988  1.00  0.00    -0.191 N 
ATOM      5  H1  UNL     1      21.060  23.006  20.358  1.00  0.00     0.184 HD
HETATM    6  C8  UNL     1      20.164  24.468  19.222  1.00  0.00     0.682 A 
HETATM    7  N6  UNL     1      20.336  25.712  18.757  1.00  0.00    -0.176 N 
ATOM      8  H6  UNL     1      19.602  26.121  18.180  1.00  0.00     0.186 HD
HETATM    9  C18 UNL     1      21.450  26.460  19.020  1.00  0.00     0.134 A 
HETATM   10  C27 UNL     1      22.457  25.917  19.802  1.00  0.00     0.039 A 
HETATM   11  C28 UNL     1      23.607  26.649  20.092  1.00  0.00     0.057 A 
HETATM   12  C29 UNL     1      24.599  26.077  20.883  1.00  0.00     0.102 A 
ENDROOT
BRANCH   6  13
HETATM   13  N2  UNL     1      18.994  23.724  18.930  1.00  0.00    -0.214 N 
HETATM   14  C9  UNL     1      18.923  22.368  19.514  1.00  0.00     0.161 C 
HETATM   15  C10 UNL     1      17.582  22.129  20.140  1.00  0.00     0.146 C 
HETATM   16  N3  UNL     1      16.561  22.419  19.143  1.00  0.00    -0.348 N 
HETATM   17  C11 UNL     1      15.624  21.430  18.729  1.00  0.00     0.248 C 
HETATM   18  C16 UNL     1      16.551  23.762  18.604  1.00  0.00     0.146 C 
HETATM   19  O2  UNL     1      15.711  20.298  19.254  1.00  0.00    -0.271 OA
HETATM   20  C17 UNL     1      17.913  24.229  18.124  1.00  0.00     0.161 C 
BRANCH  17  21
HETATM   21  C12 UNL     1      14.627  21.810  17.719  1.00  0.00     0.377 C 
BRANCH  21  22
HETATM   22  N4  UNL     1      14.794  21.185  16.451  1.00  0.00     0.124 N 
HETATM   23  C13 UNL     1      15.673  21.851  15.553  1.00  0.00     0.302 A 
HETATM   24  C14 UNL     1      14.897  21.980  14.277  1.00  0.00     0.264 A 
HETATM   25  N5  UNL     1      13.653  21.299  14.456  1.00  0.00    -0.047 N 
HETATM   26  C15 UNL     1      13.616  20.774  15.789  1.00  0.00     0.503 A 
ATOM     27  H52 UNL     1      12.847  21.889  14.244  1.00  0.00     0.279 HD
ATOM     28  H51 UNL     1      13.490  20.584  13.747  1.00  0.00     0.279 HD
ENDBRANCH  21  22
ENDBRANCH  17  21
ENDBRANCH   6  13
BRANCH   9  29
HETATM   29  N7  UNL     1      21.580  27.654  18.558  1.00  0.00    -0.341 N 
ATOM     30  H7  UNL     1      21.583  28.459  19.185  1.00  0.00     0.167 HD
BRANCH  29  31
HETATM   31  C19 UNL     1      21.720  27.826  17.158  1.00  0.00     0.038 A 
HETATM   32  C20 UNL     1      20.666  27.783  16.291  1.00  0.00     0.066 A 
HETATM   33  C21 UNL     1      20.894  27.964  14.926  1.00  0.00     0.073 A 
HETATM   34  C23 UNL     1      22.162  28.184  14.418  1.00  0.00     0.073 A 
HETATM   35  C24 UNL     1      23.217  28.226  15.303  1.00  0.00     0.073 A 
HETATM   36  C26 UNL     1      22.996  28.046  16.665  1.00  0.00     0.066 A 
BRANCH  33  37
HETATM   37  O3  UNL     1      19.806  27.913  14.092  1.00  0.00    -0.356 OA
HETATM   38  C22 UNL     1      18.773  26.966  14.158  1.00  0.00     0.210 C 
ENDBRANCH  33  37
BRANCH  35  39
HETATM   39  O4  UNL     1      24.522  28.440  14.909  1.00  0.00    -0.356 OA
HETATM   40  C25 UNL     1      25.512  29.078  15.667  1.00  0.00     0.210 C 
ENDBRANCH  35  39
ENDBRANCH  29  31
ENDBRANCH   9  29
BRANCH   1  41
HETATM   41  O1  UNL     1      25.414  24.234  22.147  1.00  0.00    -0.348 OA
BRANCH  41  42
HETATM   42  C4  UNL     1      26.148  23.093  21.726  1.00  0.00     0.176 C 
BRANCH  42  43
HETATM   43  C3  UNL     1      27.082  23.409  20.599  1.00  0.00     0.026 C 
BRANCH  43  44
HETATM   44  C2  UNL     1      26.609  22.653  19.372  1.00  0.00    -0.002 C 
HETATM   45  C1  UNL     1      26.121  23.671  18.370  1.00  0.00     0.005 C 
ENDBRANCH  43  44
ENDBRANCH  42  43
ENDBRANCH  41  42
ENDBRANCH   1  41
BRANCH  12  46
HETATM   46  O5  UNL     1      25.774  26.769  21.204  1.00  0.00    -0.353 OA
HETATM   47  C30 UNL     1      26.656  27.069  20.135  1.00  0.00     0.210 C 
ENDBRANCH  12  46
TORSDOF 12
ENDMDL
