MODEL 1
REMARK VINA RESULT: -8.007310663      0.000      0.000
REMARK  14 active torsions:
REMARK  status: ('A' for Active; 'I' for Inactive)
REMARK    1  A    between atoms: C2_2  and  C3_3 
REMARK    2  A    between atoms: C5_5  and  O1_6 
REMARK    3  A    between atoms: C6_8  and  O2_9 
REMARK    4  A    between atoms: O2_9  and  C7_10 
REMARK    5  A    between atoms: C7_10  and  C8_11 
REMARK    6  A    between atoms: C8_11  and  O4_13 
REMARK    7  A    between atoms: O4_13  and  C9_14 
REMARK    8  A    between atoms: C9_14  and  C10_15 
REMARK    9  A    between atoms: C10_15  and  O5_16 
REMARK   10  A    between atoms: C25_34  and  C26_35 
REMARK   11  A    between atoms: C26_35  and  O8_36 
REMARK   12  A    between atoms: O8_36  and  C27_37 
REMARK   13  A    between atoms: C27_37  and  C28_38 
REMARK   14  A    between atoms: C28_38  and  N1_39 
ROOT
HETATM    1  C3  UNL     1      20.886  32.139  15.235  1.00  0.00     0.029 C 
HETATM    2  C4  UNL     1      22.388  32.051  15.527  1.00  0.00     0.025 C 
HETATM    3  C5  UNL     1      20.292  30.934  15.951  1.00  0.00     0.169 C 
HETATM    4  C6  UNL     1      18.833  30.988  16.166  1.00  0.00     0.222 C 
HETATM    5  C11 UNL     1      18.308  32.387  16.346  1.00  0.00     0.169 C 
HETATM    6  O6  UNL     1      17.253  32.441  16.962  1.00  0.00    -0.294 OA
HETATM    7  C12 UNL     1      18.935  33.615  15.863  1.00  0.00     0.051 C 
HETATM    8  C13 UNL     1      18.481  33.731  14.388  1.00  0.00     0.027 C 
HETATM    9  C14 UNL     1      18.488  34.872  16.490  1.00  0.00     0.008 C 
HETATM   10  C15 UNL     1      17.001  34.959  16.738  1.00  0.00     0.007 C 
HETATM   11  C16 UNL     1      16.707  36.471  16.757  1.00  0.00     0.018 C 
HETATM   12  C17 UNL     1      17.268  36.940  18.068  1.00  0.00     0.021 C 
HETATM   13  C18 UNL     1      16.210  36.580  19.125  1.00  0.00     0.024 C 
HETATM   14  C19 UNL     1      17.281  38.429  18.040  1.00  0.00     0.135 C 
HETATM   15  O7  UNL     1      16.583  39.224  17.470  1.00  0.00    -0.297 OA
HETATM   16  C20 UNL     1      18.430  38.793  18.935  1.00  0.00     0.079 C 
HETATM   17  C21 UNL     1      19.425  37.738  18.478  1.00  0.00     0.013 C 
HETATM   18  C22 UNL     1      18.593  36.446  18.452  1.00  0.00     0.006 C 
HETATM   19  C23 UNL     1      19.227  35.339  17.710  1.00  0.00    -0.002 C 
HETATM   20  C24 UNL     1      20.627  35.683  17.206  1.00  0.00     0.039 C 
HETATM   21  C25 UNL     1      21.585  34.538  17.462  1.00  0.00     0.146 C 
HETATM   22  O9  UNL     1      20.961  33.379  17.128  1.00  0.00    -0.376 OA
HETATM   23  C31 UNL     1      20.432  33.447  15.844  1.00  0.00     0.152 C 
ENDROOT
BRANCH   4  24
HETATM   24  O2  UNL     1      18.110  30.349  15.167  1.00  0.00    -0.366 OA
BRANCH  24  25
HETATM   25  C7  UNL     1      18.590  29.201  14.667  1.00  0.00     0.279 C 
BRANCH  25  26
HETATM   26  C8  UNL     1      18.456  29.101  13.205  1.00  0.00     0.282 C 
HETATM   27  O3  UNL     1      18.185  29.994  12.403  1.00  0.00    -0.263 OA
BRANCH  26  28
HETATM   28  O4  UNL     1      18.673  27.803  12.689  1.00  0.00    -0.318 OA
BRANCH  28  29
HETATM   29  C9  UNL     1      19.436  27.475  11.587  1.00  0.00     0.204 C 
BRANCH  29  30
HETATM   30  C10 UNL     1      20.895  27.742  11.857  1.00  0.00     0.191 C 
BRANCH  30  31
HETATM   31  O5  UNL     1      21.293  27.077  13.029  1.00  0.00    -0.399 OA
ATOM     32  H5  UNL     1      21.335  27.693  13.751  1.00  0.00     0.209 HD
ENDBRANCH  30  31
ENDBRANCH  29  30
ENDBRANCH  28  29
ENDBRANCH  26  28
ENDBRANCH  25  26
ENDBRANCH  24  25
ENDBRANCH   4  24
BRANCH   3  33
HETATM   33  O1  UNL     1      20.921  30.802  17.192  1.00  0.00    -0.391 OA
ATOM     34  H1  UNL     1      20.259  30.849  17.871  1.00  0.00     0.210 HD
ENDBRANCH   3  33
BRANCH   1  35
HETATM   35  C2  UNL     1      20.772  32.034  13.781  1.00  0.00    -0.022 C 
HETATM   36  C1  UNL     1      21.542  31.234  13.084  1.00  0.00     0.008 C 
ENDBRANCH   1  35
BRANCH  21  37
HETATM   37  C26 UNL     1      21.960  34.604  18.939  1.00  0.00     0.199 C 
BRANCH  37  38
HETATM   38  O8  UNL     1      23.066  35.357  19.205  1.00  0.00    -0.387 OA
BRANCH  38  39
HETATM   39  C27 UNL     1      22.892  36.362  20.146  1.00  0.00     0.198 C 
BRANCH  39  40
HETATM   40  C28 UNL     1      23.702  37.604  19.779  1.00  0.00     0.297 C 
BRANCH  40  41
HETATM   41  N1  UNL     1      22.835  38.388  18.886  1.00  0.00     0.082 N 
HETATM   42  C29 UNL     1      22.661  39.732  19.401  1.00  0.00     0.309 C 
HETATM   43  C30 UNL     1      23.398  38.398  17.549  1.00  0.00     0.309 C 
ENDBRANCH  40  41
ENDBRANCH  39  40
ENDBRANCH  38  39
ENDBRANCH  37  38
ENDBRANCH  21  37
TORSDOF 14
ENDMDL
MODEL 2
REMARK VINA RESULT: -8.004141230      0.893      1.241
REMARK  14 active torsions:
REMARK  status: ('A' for Active; 'I' for Inactive)
REMARK    1  A    between atoms: C2_2  and  C3_3 
REMARK    2  A    between atoms: C5_5  and  O1_6 
REMARK    3  A    between atoms: C6_8  and  O2_9 
REMARK    4  A    between atoms: O2_9  and  C7_10 
REMARK    5  A    between atoms: C7_10  and  C8_11 
REMARK    6  A    between atoms: C8_11  and  O4_13 
REMARK    7  A    between atoms: O4_13  and  C9_14 
REMARK    8  A    between atoms: C9_14  and  C10_15 
REMARK    9  A    between atoms: C10_15  and  O5_16 
REMARK   10  A    between atoms: C25_34  and  C26_35 
REMARK   11  A    between atoms: C26_35  and  O8_36 
REMARK   12  A    between atoms: O8_36  and  C27_37 
REMARK   13  A    between atoms: C27_37  and  C28_38 
REMARK   14  A    between atoms: C28_38  and  N1_39 
ROOT
HETATM    1  C3  UNL     1      20.961  32.206  15.267  1.00  0.00     0.029 C 
HETATM    2  C4  UNL     1      22.467  32.140  15.541  1.00  0.00     0.025 C 
HETATM    3  C5  UNL     1      20.391  31.003  16.004  1.00  0.00     0.169 C 
HETATM    4  C6  UNL     1      18.934  31.041  16.237  1.00  0.00     0.222 C 
HETATM    5  C11 UNL     1      18.394  32.435  16.408  1.00  0.00     0.169 C 
HETATM    6  O6  UNL     1      17.346  32.483  17.036  1.00  0.00    -0.294 OA
HETATM    7  C12 UNL     1      18.999  33.665  15.902  1.00  0.00     0.051 C 
HETATM    8  C13 UNL     1      18.526  33.759  14.432  1.00  0.00     0.027 C 
HETATM    9  C14 UNL     1      18.545  34.924  16.521  1.00  0.00     0.008 C 
HETATM   10  C15 UNL     1      17.060  34.995  16.787  1.00  0.00     0.007 C 
HETATM   11  C16 UNL     1      16.748  36.504  16.791  1.00  0.00     0.018 C 
HETATM   12  C17 UNL     1      17.319  36.995  18.090  1.00  0.00     0.021 C 
HETATM   13  C18 UNL     1      16.279  36.635  19.164  1.00  0.00     0.024 C 
HETATM   14  C19 UNL     1      17.313  38.484  18.044  1.00  0.00     0.135 C 
HETATM   15  O7  UNL     1      16.599  39.264  17.474  1.00  0.00    -0.297 OA
HETATM   16  C20 UNL     1      18.469  38.872  18.920  1.00  0.00     0.079 C 
HETATM   17  C21 UNL     1      19.471  37.825  18.463  1.00  0.00     0.013 C 
HETATM   18  C22 UNL     1      18.655  36.522  18.462  1.00  0.00     0.006 C 
HETATM   19  C23 UNL     1      19.293  35.414  17.726  1.00  0.00    -0.002 C 
HETATM   20  C24 UNL     1      20.682  35.769  17.200  1.00  0.00     0.039 C 
HETATM   21  C25 UNL     1      21.657  34.640  17.457  1.00  0.00     0.146 C 
HETATM   22  O9  UNL     1      21.044  33.469  17.144  1.00  0.00    -0.376 OA
HETATM   23  C31 UNL     1      20.498  33.516  15.866  1.00  0.00     0.152 C 
ENDROOT
BRANCH   4  24
HETATM   24  O2  UNL     1      18.206  30.381  15.255  1.00  0.00    -0.366 OA
BRANCH  24  25
HETATM   25  C7  UNL     1      18.720  29.262  14.723  1.00  0.00     0.279 C 
BRANCH  25  26
HETATM   26  C8  UNL     1      18.504  29.154  13.272  1.00  0.00     0.282 C 
HETATM   27  O3  UNL     1      18.217  30.049  12.477  1.00  0.00    -0.263 OA
BRANCH  26  28
HETATM   28  O4  UNL     1      18.652  27.845  12.758  1.00  0.00    -0.318 OA
BRANCH  28  29
HETATM   29  C9  UNL     1      19.403  27.475  11.662  1.00  0.00     0.204 C 
BRANCH  29  30
HETATM   30  C10 UNL     1      20.865  27.759  11.902  1.00  0.00     0.191 C 
BRANCH  30  31
HETATM   31  O5  UNL     1      21.294  27.095  13.065  1.00  0.00    -0.399 OA
ATOM     32  H5  UNL     1      21.619  27.727  13.695  1.00  0.00     0.209 HD
ENDBRANCH  30  31
ENDBRANCH  29  30
ENDBRANCH  28  29
ENDBRANCH  26  28
ENDBRANCH  25  26
ENDBRANCH  24  25
ENDBRANCH   4  24
BRANCH   3  33
HETATM   33  O1  UNL     1      21.036  30.893  17.239  1.00  0.00    -0.391 OA
ATOM     34  H1  UNL     1      20.533  30.307  17.791  1.00  0.00     0.210 HD
ENDBRANCH   3  33
BRANCH   1  35
HETATM   35  C2  UNL     1      20.829  32.083  13.815  1.00  0.00    -0.022 C 
HETATM   36  C1  UNL     1      21.571  31.252  13.124  1.00  0.00     0.008 C 
ENDBRANCH   1  35
BRANCH  21  37
HETATM   37  C26 UNL     1      22.050  34.728  18.928  1.00  0.00     0.199 C 
BRANCH  37  38
HETATM   38  O8  UNL     1      22.275  35.996  19.375  1.00  0.00    -0.387 OA
BRANCH  38  39
HETATM   39  C27 UNL     1      23.173  36.109  20.427  1.00  0.00     0.198 C 
BRANCH  39  40
HETATM   40  C28 UNL     1      24.165  37.244  20.183  1.00  0.00     0.297 C 
BRANCH  40  41
HETATM   41  N1  UNL     1      25.155  37.139  21.266  1.00  0.00     0.082 N 
HETATM   42  C29 UNL     1      25.344  35.753  21.648  1.00  0.00     0.309 C 
HETATM   43  C30 UNL     1      26.402  37.750  20.844  1.00  0.00     0.309 C 
ENDBRANCH  40  41
ENDBRANCH  39  40
ENDBRANCH  38  39
ENDBRANCH  37  38
ENDBRANCH  21  37
TORSDOF 14
ENDMDL
MODEL 3
REMARK VINA RESULT: -7.793247185      2.198      4.632
REMARK  14 active torsions:
REMARK  status: ('A' for Active; 'I' for Inactive)
REMARK    1  A    between atoms: C2_2  and  C3_3 
REMARK    2  A    between atoms: C5_5  and  O1_6 
REMARK    3  A    between atoms: C6_8  and  O2_9 
REMARK    4  A    between atoms: O2_9  and  C7_10 
REMARK    5  A    between atoms: C7_10  and  C8_11 
REMARK    6  A    between atoms: C8_11  and  O4_13 
REMARK    7  A    between atoms: O4_13  and  C9_14 
REMARK    8  A    between atoms: C9_14  and  C10_15 
REMARK    9  A    between atoms: C10_15  and  O5_16 
REMARK   10  A    between atoms: C25_34  and  C26_35 
REMARK   11  A    between atoms: C26_35  and  O8_36 
REMARK   12  A    between atoms: O8_36  and  C27_37 
REMARK   13  A    between atoms: C27_37  and  C28_38 
REMARK   14  A    between atoms: C28_38  and  N1_39 
ROOT
HETATM    1  C3  UNL     1      19.413  30.908  15.579  1.00  0.00     0.029 C 
HETATM    2  C4  UNL     1      17.920  30.603  15.746  1.00  0.00     0.025 C 
HETATM    3  C5  UNL     1      19.587  31.131  14.083  1.00  0.00     0.169 C 
HETATM    4  C6  UNL     1      20.831  31.820  13.692  1.00  0.00     0.222 C 
HETATM    5  C11 UNL     1      21.323  32.797  14.725  1.00  0.00     0.169 C 
HETATM    6  O6  UNL     1      22.036  33.680  14.269  1.00  0.00    -0.294 OA
HETATM    7  C12 UNL     1      21.026  32.765  16.156  1.00  0.00     0.051 C 
HETATM    8  C13 UNL     1      22.048  31.764  16.745  1.00  0.00     0.027 C 
HETATM    9  C14 UNL     1      21.255  34.015  16.903  1.00  0.00     0.008 C 
HETATM   10  C15 UNL     1      22.514  34.756  16.520  1.00  0.00     0.007 C 
HETATM   11  C16 UNL     1      22.868  35.576  17.776  1.00  0.00     0.018 C 
HETATM   12  C17 UNL     1      21.851  36.681  17.794  1.00  0.00     0.021 C 
HETATM   13  C18 UNL     1      22.360  37.731  16.794  1.00  0.00     0.024 C 
HETATM   14  C19 UNL     1      21.943  37.348  19.123  1.00  0.00     0.135 C 
HETATM   15  O7  UNL     1      22.861  37.487  19.886  1.00  0.00    -0.297 OA
HETATM   16  C20 UNL     1      20.554  37.865  19.359  1.00  0.00     0.079 C 
HETATM   17  C21 UNL     1      19.769  36.666  18.854  1.00  0.00     0.013 C 
HETATM   18  C22 UNL     1      20.456  36.320  17.523  1.00  0.00     0.006 C 
HETATM   19  C23 UNL     1      20.113  34.984  17.000  1.00  0.00    -0.002 C 
HETATM   20  C24 UNL     1      19.065  34.263  17.845  1.00  0.00     0.039 C 
HETATM   21  C25 UNL     1      18.017  33.617  16.963  1.00  0.00     0.146 C 
HETATM   22  O9  UNL     1      18.649  33.011  15.925  1.00  0.00    -0.376 OA
HETATM   23  C31 UNL     1      19.660  32.170  16.377  1.00  0.00     0.152 C 
ENDROOT
BRANCH   4  24
HETATM   24  O2  UNL     1      21.857  30.947  13.356  1.00  0.00    -0.366 OA
BRANCH  24  25
HETATM   25  C7  UNL     1      21.647  30.063  12.370  1.00  0.00     0.279 C 
BRANCH  25  26
HETATM   26  C8  UNL     1      22.439  28.830  12.513  1.00  0.00     0.282 C 
HETATM   27  O3  UNL     1      22.844  28.303  13.548  1.00  0.00    -0.263 OA
BRANCH  26  28
HETATM   28  O4  UNL     1      22.756  28.198  11.289  1.00  0.00    -0.318 OA
BRANCH  28  29
HETATM   29  C9  UNL     1      23.952  27.591  10.965  1.00  0.00     0.204 C 
BRANCH  29  30
HETATM   30  C10 UNL     1      23.876  26.107  11.219  1.00  0.00     0.191 C 
BRANCH  30  31
HETATM   31  O5  UNL     1      24.555  25.791  12.408  1.00  0.00    -0.399 OA
ATOM     32  H5  UNL     1      24.119  25.070  12.847  1.00  0.00     0.209 HD
ENDBRANCH  30  31
ENDBRANCH  29  30
ENDBRANCH  28  29
ENDBRANCH  26  28
ENDBRANCH  25  26
ENDBRANCH  24  25
ENDBRANCH   4  24
BRANCH   3  33
HETATM   33  O1  UNL     1      18.499  31.874  13.616  1.00  0.00    -0.391 OA
ATOM     34  H1  UNL     1      18.236  32.483  14.296  1.00  0.00     0.210 HD
ENDBRANCH   3  33
BRANCH   1  35
HETATM   35  C2  UNL     1      20.104  29.708  16.047  1.00  0.00    -0.022 C 
HETATM   36  C1  UNL     1      20.024  28.570  15.401  1.00  0.00     0.008 C 
ENDBRANCH   1  35
BRANCH  21  37
HETATM   37  C26 UNL     1      17.076  34.731  16.515  1.00  0.00     0.199 C 
BRANCH  37  38
HETATM   38  O8  UNL     1      15.889  34.768  17.184  1.00  0.00    -0.387 OA
BRANCH  38  39
HETATM   39  C27 UNL     1      15.424  36.035  17.508  1.00  0.00     0.198 C 
BRANCH  39  40
HETATM   40  C28 UNL     1      16.257  36.655  18.629  1.00  0.00     0.297 C 
BRANCH  40  41
HETATM   41  N1  UNL     1      16.276  38.099  18.351  1.00  0.00     0.082 N 
HETATM   42  C29 UNL     1      16.695  38.837  19.527  1.00  0.00     0.309 C 
HETATM   43  C30 UNL     1      17.144  38.364  17.218  1.00  0.00     0.309 C 
ENDBRANCH  40  41
ENDBRANCH  39  40
ENDBRANCH  38  39
ENDBRANCH  37  38
ENDBRANCH  21  37
TORSDOF 14
ENDMDL
MODEL 4
REMARK VINA RESULT: -7.734386675      1.479      1.763
REMARK  14 active torsions:
REMARK  status: ('A' for Active; 'I' for Inactive)
REMARK    1  A    between atoms: C2_2  and  C3_3 
REMARK    2  A    between atoms: C5_5  and  O1_6 
REMARK    3  A    between atoms: C6_8  and  O2_9 
REMARK    4  A    between atoms: O2_9  and  C7_10 
REMARK    5  A    between atoms: C7_10  and  C8_11 
REMARK    6  A    between atoms: C8_11  and  O4_13 
REMARK    7  A    between atoms: O4_13  and  C9_14 
REMARK    8  A    between atoms: C9_14  and  C10_15 
REMARK    9  A    between atoms: C10_15  and  O5_16 
REMARK   10  A    between atoms: C25_34  and  C26_35 
REMARK   11  A    between atoms: C26_35  and  O8_36 
REMARK   12  A    between atoms: O8_36  and  C27_37 
REMARK   13  A    between atoms: C27_37  and  C28_38 
REMARK   14  A    between atoms: C28_38  and  N1_39 
ROOT
HETATM    1  C3  UNL     1      21.513  32.650  15.684  1.00  0.00     0.029 C 
HETATM    2  C4  UNL     1      23.002  32.751  16.031  1.00  0.00     0.025 C 
HETATM    3  C5  UNL     1      21.039  31.403  16.417  1.00  0.00     0.169 C 
HETATM    4  C6  UNL     1      19.577  31.287  16.578  1.00  0.00     0.222 C 
HETATM    5  C11 UNL     1      18.882  32.617  16.695  1.00  0.00     0.169 C 
HETATM    6  O6  UNL     1      17.805  32.561  17.271  1.00  0.00    -0.294 OA
HETATM    7  C12 UNL     1      19.376  33.898  16.194  1.00  0.00     0.051 C 
HETATM    8  C13 UNL     1      18.970  33.917  14.702  1.00  0.00     0.027 C 
HETATM    9  C14 UNL     1      18.760  35.109  16.765  1.00  0.00     0.008 C 
HETATM   10  C15 UNL     1      17.264  35.023  16.957  1.00  0.00     0.007 C 
HETATM   11  C16 UNL     1      16.792  36.490  16.916  1.00  0.00     0.018 C 
HETATM   12  C17 UNL     1      17.241  37.058  18.231  1.00  0.00     0.021 C 
HETATM   13  C18 UNL     1      16.194  36.604  19.260  1.00  0.00     0.024 C 
HETATM   14  C19 UNL     1      17.078  38.538  18.154  1.00  0.00     0.135 C 
HETATM   15  O7  UNL     1      16.314  39.227  17.535  1.00  0.00    -0.297 OA
HETATM   16  C20 UNL     1      18.141  39.061  19.077  1.00  0.00     0.079 C 
HETATM   17  C21 UNL     1      19.270  38.122  18.690  1.00  0.00     0.013 C 
HETATM   18  C22 UNL     1      18.600  36.738  18.676  1.00  0.00     0.006 C 
HETATM   19  C23 UNL     1      19.390  35.695  17.994  1.00  0.00    -0.002 C 
HETATM   20  C24 UNL     1      20.757  36.190  17.529  1.00  0.00     0.039 C 
HETATM   21  C25 UNL     1      21.834  35.177  17.855  1.00  0.00     0.146 C 
HETATM   22  O9  UNL     1      21.366  33.942  17.537  1.00  0.00    -0.376 OA
HETATM   23  C31 UNL     1      20.882  33.911  16.234  1.00  0.00     0.152 C 
ENDROOT
BRANCH   4  24
HETATM   24  O2  UNL     1      18.974  30.538  15.577  1.00  0.00    -0.366 OA
BRANCH  24  25
HETATM   25  C7  UNL     1      19.475  29.326  15.297  1.00  0.00     0.279 C 
BRANCH  25  26
HETATM   26  C8  UNL     1      19.340  28.952  13.880  1.00  0.00     0.282 C 
HETATM   27  O3  UNL     1      18.408  29.197  13.114  1.00  0.00    -0.263 OA
BRANCH  26  28
HETATM   28  O4  UNL     1      20.435  28.221  13.365  1.00  0.00    -0.318 OA
BRANCH  28  29
HETATM   29  C9  UNL     1      20.875  28.214  12.057  1.00  0.00     0.204 C 
BRANCH  29  30
HETATM   30  C10 UNL     1      22.381  28.145  12.007  1.00  0.00     0.191 C 
BRANCH  30  31
HETATM   31  O5  UNL     1      22.829  28.459  10.713  1.00  0.00    -0.399 OA
ATOM     32  H5  UNL     1      23.387  27.762  10.387  1.00  0.00     0.209 HD
ENDBRANCH  30  31
ENDBRANCH  29  30
ENDBRANCH  28  29
ENDBRANCH  26  28
ENDBRANCH  25  26
ENDBRANCH  24  25
ENDBRANCH   4  24
BRANCH   3  33
HETATM   33  O1  UNL     1      21.630  31.382  17.683  1.00  0.00    -0.391 OA
ATOM     34  H1  UNL     1      22.573  31.351  17.575  1.00  0.00     0.210 HD
ENDBRANCH   3  33
BRANCH   1  35
HETATM   35  C2  UNL     1      21.468  32.492  14.230  1.00  0.00    -0.022 C 
HETATM   36  C1  UNL     1      22.069  31.495  13.627  1.00  0.00     0.008 C 
ENDBRANCH   1  35
BRANCH  21  37
HETATM   37  C26 UNL     1      22.141  35.329  19.341  1.00  0.00     0.199 C 
BRANCH  37  38
HETATM   38  O8  UNL     1      23.459  35.532  19.625  1.00  0.00    -0.387 OA
BRANCH  38  39
HETATM   39  C27 UNL     1      23.721  36.484  20.601  1.00  0.00     0.198 C 
BRANCH  39  40
HETATM   40  C28 UNL     1      24.619  35.914  21.697  1.00  0.00     0.297 C 
BRANCH  40  41
HETATM   41  N1  UNL     1      25.924  36.568  21.514  1.00  0.00     0.082 N 
HETATM   42  C29 UNL     1      26.226  37.422  22.647  1.00  0.00     0.309 C 
HETATM   43  C30 UNL     1      26.949  35.560  21.318  1.00  0.00     0.309 C 
ENDBRANCH  40  41
ENDBRANCH  39  40
ENDBRANCH  38  39
ENDBRANCH  37  38
ENDBRANCH  21  37
TORSDOF 14
ENDMDL
MODEL 5
REMARK VINA RESULT: -7.656115457      2.577      8.406
REMARK  14 active torsions:
REMARK  status: ('A' for Active; 'I' for Inactive)
REMARK    1  A    between atoms: C2_2  and  C3_3 
REMARK    2  A    between atoms: C5_5  and  O1_6 
REMARK    3  A    between atoms: C6_8  and  O2_9 
REMARK    4  A    between atoms: O2_9  and  C7_10 
REMARK    5  A    between atoms: C7_10  and  C8_11 
REMARK    6  A    between atoms: C8_11  and  O4_13 
REMARK    7  A    between atoms: O4_13  and  C9_14 
REMARK    8  A    between atoms: C9_14  and  C10_15 
REMARK    9  A    between atoms: C10_15  and  O5_16 
REMARK   10  A    between atoms: C25_34  and  C26_35 
REMARK   11  A    between atoms: C26_35  and  O8_36 
REMARK   12  A    between atoms: O8_36  and  C27_37 
REMARK   13  A    between atoms: C27_37  and  C28_38 
REMARK   14  A    between atoms: C28_38  and  N1_39 
ROOT
HETATM    1  C3  UNL     1      20.815  36.708  18.701  1.00  0.00     0.029 C 
HETATM    2  C4  UNL     1      19.437  37.146  19.209  1.00  0.00     0.025 C 
HETATM    3  C5  UNL     1      21.461  36.031  19.901  1.00  0.00     0.169 C 
HETATM    4  C6  UNL     1      22.622  35.175  19.589  1.00  0.00     0.222 C 
HETATM    5  C11 UNL     1      22.540  34.529  18.232  1.00  0.00     0.169 C 
HETATM    6  O6  UNL     1      23.201  33.505  18.133  1.00  0.00    -0.294 OA
HETATM    7  C12 UNL     1      21.770  35.014  17.089  1.00  0.00     0.051 C 
HETATM    8  C13 UNL     1      22.679  36.078  16.428  1.00  0.00     0.027 C 
HETATM    9  C14 UNL     1      21.499  34.038  16.018  1.00  0.00     0.008 C 
HETATM   10  C15 UNL     1      22.661  33.135  15.679  1.00  0.00     0.007 C 
HETATM   11  C16 UNL     1      22.402  32.715  14.219  1.00  0.00     0.018 C 
HETATM   12  C17 UNL     1      21.267  31.737  14.313  1.00  0.00     0.021 C 
HETATM   13  C18 UNL     1      21.902  30.401  14.731  1.00  0.00     0.024 C 
HETATM   14  C19 UNL     1      20.768  31.501  12.929  1.00  0.00     0.135 C 
HETATM   15  O7  UNL     1      21.319  31.541  11.863  1.00  0.00    -0.297 OA
HETATM   16  C20 UNL     1      19.316  31.171  13.125  1.00  0.00     0.079 C 
HETATM   17  C21 UNL     1      18.982  32.208  14.184  1.00  0.00     0.013 C 
HETATM   18  C22 UNL     1      20.143  32.089  15.185  1.00  0.00     0.006 C 
HETATM   19  C23 UNL     1      20.244  33.221  16.125  1.00  0.00    -0.002 C 
HETATM   20  C24 UNL     1      19.111  34.232  15.967  1.00  0.00     0.039 C 
HETATM   21  C25 UNL     1      18.570  34.646  17.319  1.00  0.00     0.146 C 
HETATM   22  O9  UNL     1      19.622  34.865  18.150  1.00  0.00    -0.376 OA
HETATM   23  C31 UNL     1      20.540  35.736  17.574  1.00  0.00     0.152 C 
ENDROOT
BRANCH   4  24
HETATM   24  O2  UNL     1      23.837  35.836  19.713  1.00  0.00    -0.366 OA
BRANCH  24  25
HETATM   25  C7  UNL     1      24.249  36.191  20.938  1.00  0.00     0.279 C 
BRANCH  25  26
HETATM   26  C8  UNL     1      25.428  37.072  20.925  1.00  0.00     0.282 C 
HETATM   27  O3  UNL     1      25.649  38.037  20.194  1.00  0.00    -0.263 OA
BRANCH  26  28
HETATM   28  O4  UNL     1      26.411  36.741  21.886  1.00  0.00    -0.318 OA
BRANCH  28  29
HETATM   29  C9  UNL     1      27.757  36.552  21.651  1.00  0.00     0.204 C 
BRANCH  29  30
HETATM   30  C10 UNL     1      28.033  35.113  21.292  1.00  0.00     0.191 C 
BRANCH  30  31
HETATM   31  O5  UNL     1      29.328  34.995  20.759  1.00  0.00    -0.399 OA
ATOM     32  H5  UNL     1      29.285  34.600  19.896  1.00  0.00     0.209 HD
ENDBRANCH  30  31
ENDBRANCH  29  30
ENDBRANCH  28  29
ENDBRANCH  26  28
ENDBRANCH  25  26
ENDBRANCH  24  25
ENDBRANCH   4  24
BRANCH   3  33
HETATM   33  O1  UNL     1      20.495  35.253  20.544  1.00  0.00    -0.391 OA
ATOM     34  H1  UNL     1      19.642  35.478  20.191  1.00  0.00     0.210 HD
ENDBRANCH   3  33
BRANCH   1  35
HETATM   35  C2  UNL     1      21.497  37.947  18.327  1.00  0.00    -0.022 C 
HETATM   36  C1  UNL     1      22.017  38.746  19.227  1.00  0.00     0.008 C 
ENDBRANCH   1  35
BRANCH  21  37
HETATM   37  C26 UNL     1      17.667  33.512  17.795  1.00  0.00     0.199 C 
BRANCH  37  38
HETATM   38  O8  UNL     1      16.355  33.655  17.449  1.00  0.00    -0.387 OA
BRANCH  38  39
HETATM   39  C27 UNL     1      15.598  34.454  18.293  1.00  0.00     0.198 C 
BRANCH  39  40
HETATM   40  C28 UNL     1      14.919  35.583  17.519  1.00  0.00     0.297 C 
BRANCH  40  41
HETATM   41  N1  UNL     1      15.597  36.815  17.949  1.00  0.00     0.082 N 
HETATM   42  C29 UNL     1      16.172  36.645  19.269  1.00  0.00     0.309 C 
HETATM   43  C30 UNL     1      16.606  37.180  16.971  1.00  0.00     0.309 C 
ENDBRANCH  40  41
ENDBRANCH  39  40
ENDBRANCH  38  39
ENDBRANCH  37  38
ENDBRANCH  21  37
TORSDOF 14
ENDMDL
