MODEL 1
REMARK VINA RESULT: -9.106459470      0.000      0.000
REMARK  11 active torsions:
REMARK  status: ('A' for Active; 'I' for Inactive)
REMARK    1  A    between atoms: O1_2  and  C2_3 
REMARK    2  A    between atoms: C2_3  and  C3_4 
REMARK    3  A    between atoms: C3_4  and  O2_5 
REMARK    4  A    between atoms: O2_5  and  C4_6 
REMARK    5  A    between atoms: C7_9  and  N1_10 
REMARK    6  A    between atoms: C11_17  and  C12_18 
REMARK    7  A    between atoms: C14_20  and  N3_21 
REMARK       I    between atoms: N4_24  and  C17_25 
REMARK    8  A    between atoms: C17_25  and  C18_27 
REMARK    9  A    between atoms: C18_27  and  C19_28 
REMARK   10  A    between atoms: C19_28  and  C20_29 
REMARK   11  A    between atoms: C20_29  and  N5_30 
ROOT
HETATM    1  N1  UNL     1      22.013  29.424  12.843  1.00  0.00    -0.342 N 
ATOM      2  H1  UNL     1      22.588  30.161  12.437  1.00  0.00     0.167 HD
HETATM    3  C8  UNL     1      21.504  29.584  14.021  1.00  0.00     0.108 A 
HETATM    4  C9  UNL     1      20.728  28.594  14.576  1.00  0.00     0.065 A 
HETATM    5  C10 UNL     1      20.199  28.787  15.829  1.00  0.00     0.093 A 
HETATM    6  N2  UNL     1      20.453  29.941  16.483  1.00  0.00    -0.350 N 
ATOM      7  H2  UNL     1      20.060  30.082  17.413  1.00  0.00     0.166 HD
HETATM    8  C11 UNL     1      21.217  30.917  15.935  1.00  0.00     0.135 A 
HETATM    9  N8  UNL     1      21.733  30.729  14.713  1.00  0.00    -0.327 N 
ATOM     10  H8  UNL     1      22.309  31.459  14.294  1.00  0.00     0.169 HD
ENDROOT
BRANCH   8  11
HETATM   11  C12 UNL     1      21.440  32.138  16.719  1.00  0.00     0.095 A 
HETATM   12  C13 UNL     1      20.836  33.351  16.459  1.00  0.00     0.084 A 
HETATM   13  C14 UNL     1      21.279  34.268  17.391  1.00  0.00     0.120 A 
HETATM   14  N6  UNL     1      22.128  33.583  18.175  1.00  0.00    -0.285 N 
HETATM   15  N7  UNL     1      22.217  32.331  17.773  1.00  0.00    -0.295 N 
ATOM     16  H6  UNL     1      22.631  33.976  18.970  1.00  0.00     0.188 HD
ATOM     17  H7  UNL     1      22.799  31.615  18.209  1.00  0.00     0.187 HD
BRANCH  13  18
HETATM   18  N3  UNL     1      20.966  35.636  17.557  1.00  0.00    -0.363 N 
HETATM   19  C15 UNL     1      19.852  36.045  18.384  1.00  0.00     0.144 C 
HETATM   20  C16 UNL     1      20.392  37.210  19.227  1.00  0.00     0.145 C 
HETATM   21  N4  UNL     1      20.665  38.288  18.301  1.00  0.00    -0.349 N 
HETATM   22  C17 UNL     1      20.440  39.649  18.666  1.00  0.00     0.219 C 
HETATM   23  C25 UNL     1      21.176  37.996  16.980  1.00  0.00     0.145 C 
HETATM   24  O3  UNL     1      20.000  39.868  19.821  1.00  0.00    -0.273 OA
HETATM   25  C26 UNL     1      21.773  36.624  16.889  1.00  0.00     0.144 C 
BRANCH  22  26
HETATM   26  C18 UNL     1      20.700  40.775  17.766  1.00  0.00     0.105 C 
BRANCH  26  27
HETATM   27  C19 UNL     1      19.463  41.475  17.283  1.00  0.00     0.039 C 
BRANCH  27  28
HETATM   28  C20 UNL     1      18.682  40.603  16.379  1.00  0.00     0.273 C 
BRANCH  28  29
HETATM   29  N5  UNL     1      17.363  40.275  16.849  1.00  0.00     0.088 N 
HETATM   30  C21 UNL     1      17.153  38.884  17.077  1.00  0.00     0.272 C 
HETATM   31  C22 UNL     1      16.923  38.692  18.547  1.00  0.00     0.032 C 
HETATM   32  C23 UNL     1      16.397  40.054  18.980  1.00  0.00     0.032 C 
HETATM   33  C24 UNL     1      16.896  41.028  17.956  1.00  0.00     0.272 C 
ENDBRANCH  28  29
ENDBRANCH  27  28
ENDBRANCH  26  27
ENDBRANCH  22  26
ENDBRANCH  13  18
ENDBRANCH   8  11
BRANCH   1  34
HETATM   34  C7  UNL     1      21.780  28.228  12.109  1.00  0.00     0.040 A 
HETATM   35  C6  UNL     1      20.569  27.901  11.548  1.00  0.00     0.033 A 
HETATM   36  C5  UNL     1      20.400  26.721  10.845  1.00  0.00     0.039 A 
HETATM   37  C4  UNL     1      21.427  25.817  10.670  1.00  0.00     0.075 A 
HETATM   38  C28 UNL     1      22.646  26.158  11.243  1.00  0.00    -0.016 A 
HETATM   39  C27 UNL     1      22.827  27.335  11.949  1.00  0.00    -0.022 A 
HETATM   40  C29 UNL     1      23.929  25.396  11.228  1.00  0.00     0.042 C 
HETATM   41  C31 UNL     1      24.245  27.393  12.429  1.00  0.00     0.042 C 
HETATM   42  C30 UNL     1      24.953  26.487  11.450  1.00  0.00     0.009 C 
BRANCH  37  43
HETATM   43  O2  UNL     1      21.266  24.632   9.967  1.00  0.00    -0.348 OA
BRANCH  43  44
HETATM   44  C3  UNL     1      20.140  24.557   9.089  1.00  0.00     0.201 C 
BRANCH  44  45
HETATM   45  C2  UNL     1      18.969  23.907   9.746  1.00  0.00     0.193 C 
BRANCH  45  46
HETATM   46  O1  UNL     1      19.294  23.194  10.881  1.00  0.00    -0.394 OA
HETATM   47  C1  UNL     1      18.592  23.580  11.988  1.00  0.00     0.201 C 
ENDBRANCH  45  46
ENDBRANCH  44  45
ENDBRANCH  43  44
ENDBRANCH  37  43
ENDBRANCH   1  34
TORSDOF 11
ENDMDL
MODEL 2
REMARK VINA RESULT: -8.986354672      0.904      1.531
REMARK  11 active torsions:
REMARK  status: ('A' for Active; 'I' for Inactive)
REMARK    1  A    between atoms: O1_2  and  C2_3 
REMARK    2  A    between atoms: C2_3  and  C3_4 
REMARK    3  A    between atoms: C3_4  and  O2_5 
REMARK    4  A    between atoms: O2_5  and  C4_6 
REMARK    5  A    between atoms: C7_9  and  N1_10 
REMARK    6  A    between atoms: C11_17  and  C12_18 
REMARK    7  A    between atoms: C14_20  and  N3_21 
REMARK       I    between atoms: N4_24  and  C17_25 
REMARK    8  A    between atoms: C17_25  and  C18_27 
REMARK    9  A    between atoms: C18_27  and  C19_28 
REMARK   10  A    between atoms: C19_28  and  C20_29 
REMARK   11  A    between atoms: C20_29  and  N5_30 
ROOT
HETATM    1  N1  UNL     1      21.989  29.391  12.768  1.00  0.00    -0.342 N 
ATOM      2  H1  UNL     1      22.553  30.139  12.367  1.00  0.00     0.167 HD
HETATM    3  C8  UNL     1      21.484  29.534  13.950  1.00  0.00     0.108 A 
HETATM    4  C9  UNL     1      20.722  28.530  14.499  1.00  0.00     0.065 A 
HETATM    5  C10 UNL     1      20.197  28.705  15.757  1.00  0.00     0.093 A 
HETATM    6  N2  UNL     1      20.441  29.855  16.420  1.00  0.00    -0.350 N 
ATOM      7  H2  UNL     1      20.052  29.982  17.354  1.00  0.00     0.166 HD
HETATM    8  C11 UNL     1      21.191  30.844  15.878  1.00  0.00     0.135 A 
HETATM    9  N8  UNL     1      21.704  30.674  14.652  1.00  0.00    -0.327 N 
ATOM     10  H8  UNL     1      22.269  31.415  14.238  1.00  0.00     0.169 HD
ENDROOT
BRANCH   8  11
HETATM   11  C12 UNL     1      21.405  32.060  16.674  1.00  0.00     0.095 A 
HETATM   12  C13 UNL     1      20.803  33.274  16.416  1.00  0.00     0.084 A 
HETATM   13  C14 UNL     1      21.235  34.185  17.359  1.00  0.00     0.120 A 
HETATM   14  N6  UNL     1      22.076  33.495  18.147  1.00  0.00    -0.285 N 
HETATM   15  N7  UNL     1      22.170  32.246  17.737  1.00  0.00    -0.295 N 
ATOM     16  H6  UNL     1      22.570  33.883  18.951  1.00  0.00     0.188 HD
ATOM     17  H7  UNL     1      22.749  31.528  18.175  1.00  0.00     0.187 HD
BRANCH  13  18
HETATM   18  N3  UNL     1      20.918  35.551  17.532  1.00  0.00    -0.363 N 
HETATM   19  C15 UNL     1      19.783  35.952  18.334  1.00  0.00     0.144 C 
HETATM   20  C16 UNL     1      20.302  37.108  19.203  1.00  0.00     0.145 C 
HETATM   21  N4  UNL     1      20.600  38.195  18.296  1.00  0.00    -0.349 N 
HETATM   22  C17 UNL     1      20.367  39.553  18.670  1.00  0.00     0.219 C 
HETATM   23  C25 UNL     1      21.145  37.917  16.986  1.00  0.00     0.145 C 
HETATM   24  O3  UNL     1      19.896  39.760  19.815  1.00  0.00    -0.273 OA
HETATM   25  C26 UNL     1      21.743  36.546  16.896  1.00  0.00     0.144 C 
BRANCH  22  26
HETATM   26  C18 UNL     1      20.651  40.688  17.788  1.00  0.00     0.105 C 
BRANCH  26  27
HETATM   27  C19 UNL     1      19.427  41.392  17.278  1.00  0.00     0.039 C 
BRANCH  27  28
HETATM   28  C20 UNL     1      18.629  40.499  16.410  1.00  0.00     0.273 C 
BRANCH  28  29
HETATM   29  N5  UNL     1      17.313  40.194  16.906  1.00  0.00     0.088 N 
HETATM   30  C21 UNL     1      17.064  38.803  17.082  1.00  0.00     0.272 C 
HETATM   31  C22 UNL     1      16.870  38.556  18.549  1.00  0.00     0.032 C 
HETATM   32  C23 UNL     1      16.403  39.914  19.054  1.00  0.00     0.032 C 
HETATM   33  C24 UNL     1      16.904  40.914  18.057  1.00  0.00     0.272 C 
ENDBRANCH  28  29
ENDBRANCH  27  28
ENDBRANCH  26  27
ENDBRANCH  22  26
ENDBRANCH  13  18
ENDBRANCH   8  11
BRANCH   1  34
HETATM   34  C7  UNL     1      21.765  28.200  12.024  1.00  0.00     0.040 A 
HETATM   35  C6  UNL     1      20.556  27.866  11.461  1.00  0.00     0.033 A 
HETATM   36  C5  UNL     1      20.396  26.692  10.748  1.00  0.00     0.039 A 
HETATM   37  C4  UNL     1      21.432  25.800  10.563  1.00  0.00     0.075 A 
HETATM   38  C28 UNL     1      22.649  26.147  11.136  1.00  0.00    -0.016 A 
HETATM   39  C27 UNL     1      22.821  27.319  11.852  1.00  0.00    -0.022 A 
HETATM   40  C29 UNL     1      23.939  25.397  11.110  1.00  0.00     0.042 C 
HETATM   41  C31 UNL     1      24.239  27.386  12.330  1.00  0.00     0.042 C 
HETATM   42  C30 UNL     1      24.953  26.496  11.340  1.00  0.00     0.009 C 
BRANCH  37  43
HETATM   43  O2  UNL     1      21.280  24.620   9.848  1.00  0.00    -0.348 OA
BRANCH  43  44
HETATM   44  C3  UNL     1      20.989  24.748   8.455  1.00  0.00     0.201 C 
BRANCH  44  45
HETATM   45  C2  UNL     1      22.207  24.552   7.615  1.00  0.00     0.193 C 
BRANCH  45  46
HETATM   46  O1  UNL     1      22.279  25.404   6.533  1.00  0.00    -0.394 OA
HETATM   47  C1  UNL     1      21.154  25.399   5.758  1.00  0.00     0.201 C 
ENDBRANCH  45  46
ENDBRANCH  44  45
ENDBRANCH  43  44
ENDBRANCH  37  43
ENDBRANCH   1  34
TORSDOF 11
ENDMDL
MODEL 3
REMARK VINA RESULT: -8.905000053      3.328      4.919
REMARK  11 active torsions:
REMARK  status: ('A' for Active; 'I' for Inactive)
REMARK    1  A    between atoms: O1_2  and  C2_3 
REMARK    2  A    between atoms: C2_3  and  C3_4 
REMARK    3  A    between atoms: C3_4  and  O2_5 
REMARK    4  A    between atoms: O2_5  and  C4_6 
REMARK    5  A    between atoms: C7_9  and  N1_10 
REMARK    6  A    between atoms: C11_17  and  C12_18 
REMARK    7  A    between atoms: C14_20  and  N3_21 
REMARK       I    between atoms: N4_24  and  C17_25 
REMARK    8  A    between atoms: C17_25  and  C18_27 
REMARK    9  A    between atoms: C18_27  and  C19_28 
REMARK   10  A    between atoms: C19_28  and  C20_29 
REMARK   11  A    between atoms: C20_29  and  N5_30 
ROOT
HETATM    1  N1  UNL     1      21.660  29.459  12.771  1.00  0.00    -0.342 N 
ATOM      2  H1  UNL     1      22.058  30.276  12.308  1.00  0.00     0.167 HD
HETATM    3  C8  UNL     1      21.193  29.568  13.972  1.00  0.00     0.108 A 
HETATM    4  C9  UNL     1      20.655  28.471  14.602  1.00  0.00     0.065 A 
HETATM    5  C10 UNL     1      20.166  28.611  15.879  1.00  0.00     0.093 A 
HETATM    6  N2  UNL     1      20.226  29.818  16.481  1.00  0.00    -0.350 N 
ATOM      7  H2  UNL     1      19.863  29.919  17.429  1.00  0.00     0.166 HD
HETATM    8  C11 UNL     1      20.755  30.899  15.858  1.00  0.00     0.135 A 
HETATM    9  N8  UNL     1      21.232  30.763  14.613  1.00  0.00    -0.327 N 
ATOM     10  H8  UNL     1      21.632  31.573  14.139  1.00  0.00     0.169 HD
ENDROOT
BRANCH   8  11
HETATM   11  C12 UNL     1      20.779  32.172  16.590  1.00  0.00     0.095 A 
HETATM   12  C13 UNL     1      21.893  32.974  16.721  1.00  0.00     0.084 A 
HETATM   13  C14 UNL     1      21.549  34.081  17.470  1.00  0.00     0.120 A 
HETATM   14  N6  UNL     1      20.249  33.911  17.762  1.00  0.00    -0.285 N 
HETATM   15  N7  UNL     1      19.804  32.785  17.241  1.00  0.00    -0.295 N 
ATOM     16  H6  UNL     1      19.686  34.562  18.310  1.00  0.00     0.188 HD
ATOM     17  H7  UNL     1      18.848  32.438  17.327  1.00  0.00     0.187 HD
BRANCH  13  18
HETATM   18  N3  UNL     1      22.323  35.189  17.883  1.00  0.00    -0.363 N 
HETATM   19  C15 UNL     1      23.068  35.972  16.923  1.00  0.00     0.144 C 
HETATM   20  C16 UNL     1      22.792  37.434  17.304  1.00  0.00     0.145 C 
HETATM   21  N4  UNL     1      23.404  37.637  18.599  1.00  0.00    -0.349 N 
HETATM   22  C17 UNL     1      24.023  38.879  18.936  1.00  0.00     0.219 C 
HETATM   23  C25 UNL     1      23.396  36.574  19.580  1.00  0.00     0.145 C 
HETATM   24  O3  UNL     1      24.011  39.781  18.064  1.00  0.00    -0.273 OA
HETATM   25  C26 UNL     1      22.361  35.532  19.282  1.00  0.00     0.144 C 
BRANCH  22  26
HETATM   26  C18 UNL     1      24.657  39.134  20.232  1.00  0.00     0.105 C 
BRANCH  26  27
HETATM   27  C19 UNL     1      26.133  39.396  20.154  1.00  0.00     0.039 C 
BRANCH  27  28
HETATM   28  C20 UNL     1      26.868  38.165  19.790  1.00  0.00     0.273 C 
BRANCH  28  29
HETATM   29  N5  UNL     1      27.539  37.518  20.886  1.00  0.00     0.088 N 
HETATM   30  C21 UNL     1      26.820  36.424  21.447  1.00  0.00     0.272 C 
HETATM   31  C22 UNL     1      27.613  35.176  21.189  1.00  0.00     0.032 C 
HETATM   32  C23 UNL     1      29.032  35.710  21.046  1.00  0.00     0.032 C 
HETATM   33  C24 UNL     1      28.889  37.149  20.652  1.00  0.00     0.272 C 
ENDBRANCH  28  29
ENDBRANCH  27  28
ENDBRANCH  26  27
ENDBRANCH  22  26
ENDBRANCH  13  18
ENDBRANCH   8  11
BRANCH   1  34
HETATM   34  C7  UNL     1      21.624  28.211  12.089  1.00  0.00     0.040 A 
HETATM   35  C6  UNL     1      20.492  27.691  11.508  1.00  0.00     0.033 A 
HETATM   36  C5  UNL     1      20.516  26.470  10.858  1.00  0.00     0.039 A 
HETATM   37  C4  UNL     1      21.666  25.715  10.759  1.00  0.00     0.075 A 
HETATM   38  C28 UNL     1      22.803  26.251  11.350  1.00  0.00    -0.016 A 
HETATM   39  C27 UNL     1      22.792  27.471  12.003  1.00  0.00    -0.022 A 
HETATM   40  C29 UNL     1      24.181  25.678  11.410  1.00  0.00     0.042 C 
HETATM   41  C31 UNL     1      24.169  27.751  12.522  1.00  0.00     0.042 C 
HETATM   42  C30 UNL     1      25.032  26.912  11.610  1.00  0.00     0.009 C 
BRANCH  37  43
HETATM   43  O2  UNL     1      21.699  24.489  10.109  1.00  0.00    -0.348 OA
BRANCH  43  44
HETATM   44  C3  UNL     1      21.738  24.523   8.680  1.00  0.00     0.201 C 
BRANCH  44  45
HETATM   45  C2  UNL     1      20.538  23.871   8.079  1.00  0.00     0.193 C 
BRANCH  45  46
HETATM   46  O1  UNL     1      19.623  23.425   9.009  1.00  0.00    -0.394 OA
HETATM   47  C1  UNL     1      18.375  23.955   8.845  1.00  0.00     0.201 C 
ENDBRANCH  45  46
ENDBRANCH  44  45
ENDBRANCH  43  44
ENDBRANCH  37  43
ENDBRANCH   1  34
TORSDOF 11
ENDMDL
MODEL 4
REMARK VINA RESULT: -8.833791758      2.567      4.574
REMARK  11 active torsions:
REMARK  status: ('A' for Active; 'I' for Inactive)
REMARK    1  A    between atoms: O1_2  and  C2_3 
REMARK    2  A    between atoms: C2_3  and  C3_4 
REMARK    3  A    between atoms: C3_4  and  O2_5 
REMARK    4  A    between atoms: O2_5  and  C4_6 
REMARK    5  A    between atoms: C7_9  and  N1_10 
REMARK    6  A    between atoms: C11_17  and  C12_18 
REMARK    7  A    between atoms: C14_20  and  N3_21 
REMARK       I    between atoms: N4_24  and  C17_25 
REMARK    8  A    between atoms: C17_25  and  C18_27 
REMARK    9  A    between atoms: C18_27  and  C19_28 
REMARK   10  A    between atoms: C19_28  and  C20_29 
REMARK   11  A    between atoms: C20_29  and  N5_30 
ROOT
HETATM    1  N1  UNL     1      18.016  27.700  10.993  1.00  0.00    -0.342 N 
ATOM      2  H1  UNL     1      17.201  28.267  11.224  1.00  0.00     0.167 HD
HETATM    3  C8  UNL     1      19.043  27.704  11.779  1.00  0.00     0.108 A 
HETATM    4  C9  UNL     1      20.146  26.942  11.475  1.00  0.00     0.065 A 
HETATM    5  C10 UNL     1      21.225  26.964  12.325  1.00  0.00     0.093 A 
HETATM    6  N2  UNL     1      21.176  27.731  13.435  1.00  0.00    -0.350 N 
ATOM      7  H2  UNL     1      21.978  27.747  14.064  1.00  0.00     0.166 HD
HETATM    8  C11 UNL     1      20.088  28.481  13.735  1.00  0.00     0.135 A 
HETATM    9  N8  UNL     1      19.035  28.460  12.906  1.00  0.00    -0.327 N 
ATOM     10  H8  UNL     1      18.213  29.022  13.126  1.00  0.00     0.169 HD
ENDROOT
BRANCH   8  11
HETATM   11  C12 UNL     1      20.123  29.285  14.964  1.00  0.00     0.095 A 
HETATM   12  C13 UNL     1      20.141  30.663  14.992  1.00  0.00     0.084 A 
HETATM   13  C14 UNL     1      20.176  31.073  16.309  1.00  0.00     0.120 A 
HETATM   14  N6  UNL     1      20.178  29.937  17.026  1.00  0.00    -0.285 N 
HETATM   15  N7  UNL     1      20.147  28.889  16.227  1.00  0.00    -0.295 N 
ATOM     16  H6  UNL     1      20.199  29.892  18.044  1.00  0.00     0.188 HD
ATOM     17  H7  UNL     1      20.143  27.917  16.536  1.00  0.00     0.187 HD
BRANCH  13  18
HETATM   18  N3  UNL     1      20.205  32.371  16.869  1.00  0.00    -0.363 N 
HETATM   19  C15 UNL     1      21.438  33.125  16.928  1.00  0.00     0.144 C 
HETATM   20  C16 UNL     1      21.058  34.540  16.464  1.00  0.00     0.145 C 
HETATM   21  N4  UNL     1      20.173  35.074  17.476  1.00  0.00    -0.349 N 
HETATM   22  C17 UNL     1      20.211  36.455  17.835  1.00  0.00     0.219 C 
HETATM   23  C25 UNL     1      19.228  34.206  18.143  1.00  0.00     0.145 C 
HETATM   24  O3  UNL     1      21.041  37.180  17.236  1.00  0.00    -0.273 OA
HETATM   25  C26 UNL     1      18.985  32.936  17.384  1.00  0.00     0.144 C 
BRANCH  22  26
HETATM   26  C18 UNL     1      19.337  37.044  18.853  1.00  0.00     0.105 C 
BRANCH  26  27
HETATM   27  C19 UNL     1      18.097  37.684  18.302  1.00  0.00     0.039 C 
BRANCH  27  28
HETATM   28  C20 UNL     1      16.883  37.031  18.837  1.00  0.00     0.273 C 
BRANCH  28  29
HETATM   29  N5  UNL     1      15.968  36.548  17.839  1.00  0.00     0.088 N 
HETATM   30  C21 UNL     1      16.474  36.600  16.508  1.00  0.00     0.272 C 
HETATM   31  C22 UNL     1      16.605  35.190  16.013  1.00  0.00     0.032 C 
HETATM   32  C23 UNL     1      15.581  34.446  16.860  1.00  0.00     0.032 C 
HETATM   33  C24 UNL     1      15.390  35.277  18.092  1.00  0.00     0.272 C 
ENDBRANCH  28  29
ENDBRANCH  27  28
ENDBRANCH  26  27
ENDBRANCH  22  26
ENDBRANCH  13  18
ENDBRANCH   8  11
BRANCH   1  34
HETATM   34  C7  UNL     1      18.013  26.911   9.809  1.00  0.00     0.040 A 
HETATM   35  C6  UNL     1      18.400  27.382   8.577  1.00  0.00     0.033 A 
HETATM   36  C5  UNL     1      18.374  26.568   7.458  1.00  0.00     0.039 A 
HETATM   37  C4  UNL     1      17.964  25.252   7.518  1.00  0.00     0.075 A 
HETATM   38  C28 UNL     1      17.576  24.788   8.768  1.00  0.00    -0.016 A 
HETATM   39  C27 UNL     1      17.597  25.592   9.894  1.00  0.00    -0.022 A 
HETATM   40  C29 UNL     1      17.089  23.429   9.148  1.00  0.00     0.042 C 
HETATM   41  C31 UNL     1      17.120  24.790  11.066  1.00  0.00     0.042 C 
HETATM   42  C30 UNL     1      17.411  23.375  10.625  1.00  0.00     0.009 C 
BRANCH  37  43
HETATM   43  O2  UNL     1      17.936  24.429   6.401  1.00  0.00    -0.348 OA
BRANCH  43  44
HETATM   44  C3  UNL     1      19.198  23.966   5.915  1.00  0.00     0.201 C 
BRANCH  44  45
HETATM   45  C2  UNL     1      19.495  22.580   6.379  1.00  0.00     0.193 C 
BRANCH  45  46
HETATM   46  O1  UNL     1      20.191  22.529   7.569  1.00  0.00    -0.394 OA
HETATM   47  C1  UNL     1      21.213  23.433   7.642  1.00  0.00     0.201 C 
ENDBRANCH  45  46
ENDBRANCH  44  45
ENDBRANCH  43  44
ENDBRANCH  37  43
ENDBRANCH   1  34
TORSDOF 11
ENDMDL
MODEL 5
REMARK VINA RESULT: -8.746385313      4.042     14.052
REMARK  11 active torsions:
REMARK  status: ('A' for Active; 'I' for Inactive)
REMARK    1  A    between atoms: O1_2  and  C2_3 
REMARK    2  A    between atoms: C2_3  and  C3_4 
REMARK    3  A    between atoms: C3_4  and  O2_5 
REMARK    4  A    between atoms: O2_5  and  C4_6 
REMARK    5  A    between atoms: C7_9  and  N1_10 
REMARK    6  A    between atoms: C11_17  and  C12_18 
REMARK    7  A    between atoms: C14_20  and  N3_21 
REMARK       I    between atoms: N4_24  and  C17_25 
REMARK    8  A    between atoms: C17_25  and  C18_27 
REMARK    9  A    between atoms: C18_27  and  C19_28 
REMARK   10  A    between atoms: C19_28  and  C20_29 
REMARK   11  A    between atoms: C20_29  and  N5_30 
ROOT
HETATM    1  N1  UNL     1      18.255  32.894  15.363  1.00  0.00    -0.342 N 
ATOM      2  H1  UNL     1      17.787  33.039  14.468  1.00  0.00     0.167 HD
HETATM    3  C8  UNL     1      18.826  31.761  15.611  1.00  0.00     0.108 A 
HETATM    4  C9  UNL     1      19.458  31.558  16.815  1.00  0.00     0.065 A 
HETATM    5  C10 UNL     1      20.056  30.345  17.056  1.00  0.00     0.093 A 
HETATM    6  N2  UNL     1      20.008  29.385  16.108  1.00  0.00    -0.350 N 
ATOM      7  H2  UNL     1      20.452  28.485  16.290  1.00  0.00     0.166 HD
HETATM    8  C11 UNL     1      19.386  29.586  14.922  1.00  0.00     0.135 A 
HETATM    9  N8  UNL     1      18.802  30.768  14.686  1.00  0.00    -0.327 N 
ATOM     10  H8  UNL     1      18.332  30.926  13.795  1.00  0.00     0.169 HD
ENDROOT
BRANCH   8  11
HETATM   11  C12 UNL     1      19.384  28.484  13.951  1.00  0.00     0.095 A 
HETATM   12  C13 UNL     1      18.263  28.034  13.287  1.00  0.00     0.084 A 
HETATM   13  C14 UNL     1      18.633  26.992  12.460  1.00  0.00     0.120 A 
HETATM   14  N6  UNL     1      19.955  26.851  12.651  1.00  0.00    -0.285 N 
HETATM   15  N7  UNL     1      20.389  27.732  13.530  1.00  0.00    -0.295 N 
ATOM     16  H6  UNL     1      20.540  26.160  12.182  1.00  0.00     0.188 HD
ATOM     17  H7  UNL     1      21.357  27.821  13.841  1.00  0.00     0.187 HD
BRANCH  13  18
HETATM   18  N3  UNL     1      17.864  26.199  11.579  1.00  0.00    -0.363 N 
HETATM   19  C15 UNL     1      17.022  26.810  10.575  1.00  0.00     0.144 C 
HETATM   20  C16 UNL     1      17.286  26.005   9.293  1.00  0.00     0.145 C 
HETATM   21  N4  UNL     1      16.775  24.674   9.538  1.00  0.00    -0.349 N 
HETATM   22  C17 UNL     1      16.150  23.920   8.499  1.00  0.00     0.219 C 
HETATM   23  C25 UNL     1      16.892  24.083  10.853  1.00  0.00     0.145 C 
HETATM   24  O3  UNL     1      16.067  24.461   7.370  1.00  0.00    -0.273 OA
HETATM   25  C26 UNL     1      17.929  24.764  11.694  1.00  0.00     0.144 C 
BRANCH  22  26
HETATM   26  C18 UNL     1      15.616  22.570   8.696  1.00  0.00     0.105 C 
BRANCH  26  27
HETATM   27  C19 UNL     1      14.117  22.500   8.724  1.00  0.00     0.039 C 
BRANCH  27  28
HETATM   28  C20 UNL     1      13.659  21.167   9.169  1.00  0.00     0.273 C 
BRANCH  28  29
HETATM   29  N5  UNL     1      13.263  21.094  10.550  1.00  0.00     0.088 N 
HETATM   30  C21 UNL     1      14.197  20.424  11.391  1.00  0.00     0.272 C 
HETATM   31  C22 UNL     1      14.739  21.429  12.364  1.00  0.00     0.032 C 
HETATM   32  C23 UNL     1      13.625  22.464  12.425  1.00  0.00     0.032 C 
HETATM   33  C24 UNL     1      12.863  22.319  11.143  1.00  0.00     0.272 C 
ENDBRANCH  28  29
ENDBRANCH  27  28
ENDBRANCH  26  27
ENDBRANCH  22  26
ENDBRANCH  13  18
ENDBRANCH   8  11
BRANCH   1  34
HETATM   34  C7  UNL     1      18.273  33.941  16.325  1.00  0.00     0.040 A 
HETATM   35  C6  UNL     1      19.371  34.729  16.577  1.00  0.00     0.033 A 
HETATM   36  C5  UNL     1      19.330  35.733  17.527  1.00  0.00     0.039 A 
HETATM   37  C4  UNL     1      18.197  35.997  18.268  1.00  0.00     0.075 A 
HETATM   38  C28 UNL     1      17.093  35.194  18.005  1.00  0.00    -0.016 A 
HETATM   39  C27 UNL     1      17.122  34.186  17.057  1.00  0.00    -0.022 A 
HETATM   40  C29 UNL     1      15.740  35.235  18.634  1.00  0.00     0.042 C 
HETATM   41  C31 UNL     1      15.781  33.519  17.025  1.00  0.00     0.042 C 
HETATM   42  C30 UNL     1      14.874  34.597  17.572  1.00  0.00     0.009 C 
BRANCH  37  43
HETATM   43  O2  UNL     1      18.147  37.003  19.223  1.00  0.00    -0.348 OA
BRANCH  43  44
HETATM   44  C3  UNL     1      18.317  38.342  18.752  1.00  0.00     0.201 C 
BRANCH  44  45
HETATM   45  C2  UNL     1      17.220  38.744  17.824  1.00  0.00     0.193 C 
BRANCH  45  46
HETATM   46  O1  UNL     1      17.666  39.181  16.594  1.00  0.00    -0.394 OA
HETATM   47  C1  UNL     1      18.927  39.707  16.625  1.00  0.00     0.201 C 
ENDBRANCH  45  46
ENDBRANCH  44  45
ENDBRANCH  43  44
ENDBRANCH  37  43
ENDBRANCH   1  34
TORSDOF 11
ENDMDL
