MODEL 1
REMARK VINA RESULT: -9.136339680      0.000      0.000
REMARK  13 active torsions:
REMARK  status: ('A' for Active; 'I' for Inactive)
REMARK    1  A    between atoms: O1_2  and  C2_3 
REMARK    2  A    between atoms: C2_3  and  C3_5 
REMARK    3  A    between atoms: C3_5  and  C4_6 
REMARK    4  A    between atoms: C4_6  and  C5_7 
REMARK    5  A    between atoms: C5_7  and  N1_8 
REMARK    6  A    between atoms: C5_7  and  C14_20 
REMARK       I    between atoms: N1_8  and  C6_10 
REMARK    7  A    between atoms: C6_10  and  C7_12 
REMARK    8  A    between atoms: C7_12  and  O4_13 
REMARK    9  A    between atoms: C14_20  and  O6_22 
REMARK   10  A    between atoms: O6_22  and  C15_23 
REMARK   11  A    between atoms: C18_26  and  N2_27 
REMARK       I    between atoms: N2_27  and  C19_28 
REMARK   12  A    between atoms: C19_28  and  C20_30 
REMARK   13  A    between atoms: C20_30  and  N3_31 
ROOT
HETATM    1  C14 UNL     1      18.553  32.955  14.890  1.00  0.00     0.306 C 
HETATM    2  O5  UNL     1      18.499  33.723  14.106  1.00  0.00    -0.258 OA
ENDROOT
BRANCH   1   3
HETATM    3  C5  UNL     1      18.516  32.776  16.382  1.00  0.00     0.088 C 
BRANCH   3   4
HETATM    4  C4  UNL     1      17.379  31.889  16.837  1.00  0.00     0.073 C 
BRANCH   4   5
HETATM    5  C3  UNL     1      16.090  32.569  16.736  1.00  0.00     0.117 C 
BRANCH   5   6
HETATM    6  C2  UNL     1      15.892  33.778  17.584  1.00  0.00     0.258 C 
HETATM    7  O2  UNL     1      15.813  34.134  18.657  1.00  0.00    -0.265 OA
BRANCH   6   8
HETATM    8  O1  UNL     1      15.759  34.908  16.578  1.00  0.00    -0.326 OA
HETATM    9  C1  UNL     1      16.643  35.954  16.572  1.00  0.00     0.213 C 
ENDBRANCH   6   8
ENDBRANCH   5   6
ENDBRANCH   4   5
ENDBRANCH   3   4
BRANCH   3  10
HETATM   10  N1  UNL     1      19.752  32.740  17.026  1.00  0.00    -0.323 N 
HETATM   11  C6  UNL     1      20.506  34.001  17.122  1.00  0.00     0.257 C 
HETATM   12  O3  UNL     1      20.063  35.058  16.854  1.00  0.00    -0.270 OA
ATOM     13  H1  UNL     1      20.121  31.872  17.415  1.00  0.00     0.169 HD
BRANCH  11  14
HETATM   14  C7  UNL     1      21.945  33.919  17.580  1.00  0.00     0.141 C 
HETATM   15  C9  UNL     1      22.352  32.499  17.531  1.00  0.00     0.048 C 
HETATM   16  C10 UNL     1      22.469  32.001  16.117  1.00  0.00     0.004 C 
HETATM   17  C11 UNL     1      23.087  32.888  15.127  1.00  0.00     0.000 C 
HETATM   18  C12 UNL     1      22.440  34.302  15.202  1.00  0.00     0.004 C 
HETATM   19  C13 UNL     1      22.760  34.754  16.607  1.00  0.00     0.048 C 
BRANCH  14  20
HETATM   20  O4  UNL     1      22.010  34.455  18.811  1.00  0.00    -0.375 OA
HETATM   21  C8  UNL     1      22.731  35.553  19.071  1.00  0.00     0.203 C 
ENDBRANCH  14  20
ENDBRANCH  11  14
ENDBRANCH   3  10
ENDBRANCH   1   3
BRANCH   1  22
HETATM   22  O6  UNL     1      18.715  31.581  14.404  1.00  0.00    -0.310 OA
BRANCH  22  23
HETATM   23  C15 UNL     1      19.688  30.746  14.059  1.00  0.00     0.141 C 
HETATM   24  C16 UNL     1      20.349  31.388  12.713  1.00  0.00     0.036 C 
HETATM   25  C17 UNL     1      21.587  30.624  12.535  1.00  0.00     0.042 C 
HETATM   26  C18 UNL     1      21.331  29.145  12.193  1.00  0.00     0.167 C 
HETATM   27  C25 UNL     1      20.308  28.566  13.125  1.00  0.00     0.051 C 
HETATM   28  C26 UNL     1      19.160  29.431  13.534  1.00  0.00    -0.011 C 
HETATM   29  C27 UNL     1      18.316  28.675  14.492  1.00  0.00     0.012 C 
HETATM   30  C30 UNL     1      18.308  29.608  12.285  1.00  0.00     0.012 C 
HETATM   31  C28 UNL     1      17.392  27.808  13.663  1.00  0.00     0.001 C 
HETATM   32  C29 UNL     1      17.224  28.565  12.380  1.00  0.00     0.001 C 
BRANCH  26  33
HETATM   33  N2  UNL     1      22.425  28.435  12.121  1.00  0.00    -0.408 NA
HETATM   34  C19 UNL     1      23.590  27.687  12.053  1.00  0.00     0.315 C 
HETATM   35  O7  UNL     1      24.597  27.584  12.609  1.00  0.00    -0.256 OA
BRANCH  34  36
HETATM   36  C20 UNL     1      23.436  26.722  10.777  1.00  0.00     0.390 C 
BRANCH  36  37
HETATM   37  N3  UNL     1      23.063  25.425  11.156  1.00  0.00     0.102 N 
HETATM   38  C21 UNL     1      23.189  24.461  10.076  1.00  0.00     0.299 C 
HETATM   39  C22 UNL     1      21.993  24.543   9.118  1.00  0.00     0.198 C 
HETATM   40  O8  UNL     1      20.808  24.465   9.786  1.00  0.00    -0.388 OA
HETATM   41  C23 UNL     1      20.679  25.549  10.646  1.00  0.00     0.198 C 
HETATM   42  C24 UNL     1      21.767  25.364  11.733  1.00  0.00     0.299 C 
ENDBRANCH  36  37
ENDBRANCH  34  36
ENDBRANCH  26  33
ENDBRANCH  22  23
ENDBRANCH   1  22
TORSDOF 13
ENDMDL
MODEL 2
REMARK VINA RESULT: -9.052687358      2.219      3.129
REMARK  13 active torsions:
REMARK  status: ('A' for Active; 'I' for Inactive)
REMARK    1  A    between atoms: O1_2  and  C2_3 
REMARK    2  A    between atoms: C2_3  and  C3_5 
REMARK    3  A    between atoms: C3_5  and  C4_6 
REMARK    4  A    between atoms: C4_6  and  C5_7 
REMARK    5  A    between atoms: C5_7  and  N1_8 
REMARK    6  A    between atoms: C5_7  and  C14_20 
REMARK       I    between atoms: N1_8  and  C6_10 
REMARK    7  A    between atoms: C6_10  and  C7_12 
REMARK    8  A    between atoms: C7_12  and  O4_13 
REMARK    9  A    between atoms: C14_20  and  O6_22 
REMARK   10  A    between atoms: O6_22  and  C15_23 
REMARK   11  A    between atoms: C18_26  and  N2_27 
REMARK       I    between atoms: N2_27  and  C19_28 
REMARK   12  A    between atoms: C19_28  and  C20_30 
REMARK   13  A    between atoms: C20_30  and  N3_31 
ROOT
HETATM    1  C14 UNL     1      18.638  33.103  14.845  1.00  0.00     0.306 C 
HETATM    2  O5  UNL     1      18.373  33.850  14.083  1.00  0.00    -0.258 OA
ENDROOT
BRANCH   1   3
HETATM    3  C5  UNL     1      18.595  32.850  16.326  1.00  0.00     0.088 C 
BRANCH   3   4
HETATM    4  C4  UNL     1      17.474  31.917  16.728  1.00  0.00     0.073 C 
BRANCH   4   5
HETATM    5  C3  UNL     1      16.171  32.572  16.648  1.00  0.00     0.117 C 
BRANCH   5   6
HETATM    6  C2  UNL     1      15.956  33.764  17.517  1.00  0.00     0.258 C 
HETATM    7  O2  UNL     1      15.848  34.096  18.594  1.00  0.00    -0.265 OA
BRANCH   6   8
HETATM    8  O1  UNL     1      15.858  34.915  16.533  1.00  0.00    -0.326 OA
HETATM    9  C1  UNL     1      16.637  36.033  16.675  1.00  0.00     0.213 C 
ENDBRANCH   6   8
ENDBRANCH   5   6
ENDBRANCH   4   5
ENDBRANCH   3   4
BRANCH   3  10
HETATM   10  N1  UNL     1      19.827  32.809  16.976  1.00  0.00    -0.323 N 
HETATM   11  C6  UNL     1      20.508  34.091  17.224  1.00  0.00     0.257 C 
HETATM   12  O3  UNL     1      20.008  35.146  17.071  1.00  0.00    -0.270 OA
ATOM     13  H1  UNL     1      20.241  31.925  17.270  1.00  0.00     0.169 HD
BRANCH  11  14
HETATM   14  C7  UNL     1      21.947  34.038  17.687  1.00  0.00     0.141 C 
HETATM   15  C9  UNL     1      22.390  32.629  17.616  1.00  0.00     0.048 C 
HETATM   16  C10 UNL     1      22.525  32.159  16.194  1.00  0.00     0.004 C 
HETATM   17  C11 UNL     1      23.125  33.078  15.223  1.00  0.00     0.000 C 
HETATM   18  C12 UNL     1      22.443  34.475  15.319  1.00  0.00     0.004 C 
HETATM   19  C13 UNL     1      22.745  34.909  16.733  1.00  0.00     0.048 C 
BRANCH  14  20
HETATM   20  O4  UNL     1      21.993  34.554  18.928  1.00  0.00    -0.375 OA
HETATM   21  C8  UNL     1      22.753  35.614  19.229  1.00  0.00     0.203 C 
ENDBRANCH  14  20
ENDBRANCH  11  14
ENDBRANCH   3  10
ENDBRANCH   1   3
BRANCH   1  22
HETATM   22  O6  UNL     1      19.256  31.879  14.326  1.00  0.00    -0.310 OA
BRANCH  22  23
HETATM   23  C15 UNL     1      19.117  31.038  13.308  1.00  0.00     0.141 C 
HETATM   24  C16 UNL     1      17.695  30.281  13.565  1.00  0.00     0.036 C 
HETATM   25  C17 UNL     1      17.430  29.597  12.296  1.00  0.00     0.042 C 
HETATM   26  C18 UNL     1      18.439  28.472  12.005  1.00  0.00     0.167 C 
HETATM   27  C25 UNL     1      19.839  28.958  12.230  1.00  0.00     0.051 C 
HETATM   28  C26 UNL     1      20.087  29.881  13.379  1.00  0.00    -0.011 C 
HETATM   29  C27 UNL     1      21.519  30.271  13.373  1.00  0.00     0.012 C 
HETATM   30  C30 UNL     1      19.894  29.043  14.635  1.00  0.00     0.012 C 
HETATM   31  C28 UNL     1      22.272  29.163  14.078  1.00  0.00     0.001 C 
HETATM   32  C29 UNL     1      21.274  28.586  15.036  1.00  0.00     0.001 C 
BRANCH  26  33
HETATM   33  N2  UNL     1      18.268  27.915  10.835  1.00  0.00    -0.408 NA
HETATM   34  C19 UNL     1      18.092  27.334   9.589  1.00  0.00     0.315 C 
HETATM   35  O7  UNL     1      18.389  27.517   8.488  1.00  0.00    -0.256 OA
BRANCH  34  36
HETATM   36  C20 UNL     1      17.159  26.045   9.818  1.00  0.00     0.390 C 
BRANCH  36  37
HETATM   37  N3  UNL     1      17.858  24.855   9.571  1.00  0.00     0.102 N 
HETATM   38  C21 UNL     1      16.990  23.692   9.502  1.00  0.00     0.299 C 
HETATM   39  C22 UNL     1      16.612  23.199  10.904  1.00  0.00     0.198 C 
HETATM   40  O8  UNL     1      17.713  23.014  11.686  1.00  0.00    -0.388 OA
HETATM   41  C23 UNL     1      18.366  24.226  11.874  1.00  0.00     0.198 C 
HETATM   42  C24 UNL     1      18.922  24.633  10.486  1.00  0.00     0.299 C 
ENDBRANCH  36  37
ENDBRANCH  34  36
ENDBRANCH  26  33
ENDBRANCH  22  23
ENDBRANCH   1  22
TORSDOF 13
ENDMDL
MODEL 3
REMARK VINA RESULT: -8.807858409      1.945      4.595
REMARK  13 active torsions:
REMARK  status: ('A' for Active; 'I' for Inactive)
REMARK    1  A    between atoms: O1_2  and  C2_3 
REMARK    2  A    between atoms: C2_3  and  C3_5 
REMARK    3  A    between atoms: C3_5  and  C4_6 
REMARK    4  A    between atoms: C4_6  and  C5_7 
REMARK    5  A    between atoms: C5_7  and  N1_8 
REMARK    6  A    between atoms: C5_7  and  C14_20 
REMARK       I    between atoms: N1_8  and  C6_10 
REMARK    7  A    between atoms: C6_10  and  C7_12 
REMARK    8  A    between atoms: C7_12  and  O4_13 
REMARK    9  A    between atoms: C14_20  and  O6_22 
REMARK   10  A    between atoms: O6_22  and  C15_23 
REMARK   11  A    between atoms: C18_26  and  N2_27 
REMARK       I    between atoms: N2_27  and  C19_28 
REMARK   12  A    between atoms: C19_28  and  C20_30 
REMARK   13  A    between atoms: C20_30  and  N3_31 
ROOT
HETATM    1  C14 UNL     1      21.283  34.304  15.851  1.00  0.00     0.306 C 
HETATM    2  O5  UNL     1      22.125  34.602  15.209  1.00  0.00    -0.258 OA
ENDROOT
BRANCH   1   3
HETATM    3  C5  UNL     1      20.696  34.523  17.217  1.00  0.00     0.088 C 
BRANCH   3   4
HETATM    4  C4  UNL     1      21.660  34.182  18.331  1.00  0.00     0.073 C 
BRANCH   4   5
HETATM    5  C3  UNL     1      22.286  35.378  18.889  1.00  0.00     0.117 C 
BRANCH   5   6
HETATM    6  C2  UNL     1      21.810  35.832  20.226  1.00  0.00     0.258 C 
HETATM    7  O2  UNL     1      21.784  35.556  21.324  1.00  0.00    -0.265 OA
BRANCH   6   8
HETATM    8  O1  UNL     1      21.120  37.153  19.936  1.00  0.00    -0.326 OA
HETATM    9  C1  UNL     1      21.686  38.073  19.092  1.00  0.00     0.213 C 
ENDBRANCH   6   8
ENDBRANCH   5   6
ENDBRANCH   4   5
ENDBRANCH   3   4
BRANCH   3  10
HETATM   10  N1  UNL     1      19.814  35.596  17.339  1.00  0.00    -0.323 N 
HETATM   11  C6  UNL     1      18.682  35.442  18.268  1.00  0.00     0.257 C 
HETATM   12  O3  UNL     1      18.572  34.557  19.035  1.00  0.00    -0.270 OA
ATOM     13  H1  UNL     1      19.948  36.455  16.805  1.00  0.00     0.169 HD
BRANCH  11  14
HETATM   14  C7  UNL     1      17.587  36.485  18.211  1.00  0.00     0.141 C 
HETATM   15  C9  UNL     1      17.296  36.753  16.786  1.00  0.00     0.048 C 
HETATM   16  C10 UNL     1      16.617  35.583  16.127  1.00  0.00     0.004 C 
HETATM   17  C11 UNL     1      15.576  34.881  16.882  1.00  0.00     0.000 C 
HETATM   18  C12 UNL     1      16.094  34.533  18.309  1.00  0.00     0.004 C 
HETATM   19  C13 UNL     1      16.379  35.889  18.911  1.00  0.00     0.048 C 
BRANCH  14  20
HETATM   20  O4  UNL     1      18.020  37.565  18.883  1.00  0.00    -0.375 OA
HETATM   21  C8  UNL     1      17.272  38.667  19.017  1.00  0.00     0.203 C 
ENDBRANCH  14  20
ENDBRANCH  11  14
ENDBRANCH   3  10
ENDBRANCH   1   3
BRANCH   1  22
HETATM   22  O6  UNL     1      20.340  33.362  15.242  1.00  0.00    -0.310 OA
BRANCH  22  23
HETATM   23  C15 UNL     1      20.320  32.115  14.784  1.00  0.00     0.141 C 
HETATM   24  C16 UNL     1      20.256  32.253  13.160  1.00  0.00     0.036 C 
HETATM   25  C17 UNL     1      20.537  30.897  12.683  1.00  0.00     0.042 C 
HETATM   26  C18 UNL     1      19.426  29.895  13.047  1.00  0.00     0.167 C 
HETATM   27  C25 UNL     1      19.050  30.039  14.492  1.00  0.00     0.051 C 
HETATM   28  C26 UNL     1      19.013  31.414  15.076  1.00  0.00    -0.011 C 
HETATM   29  C27 UNL     1      18.674  31.309  16.516  1.00  0.00     0.012 C 
HETATM   30  C30 UNL     1      17.827  32.111  14.424  1.00  0.00     0.012 C 
HETATM   31  C28 UNL     1      17.165  31.213  16.599  1.00  0.00     0.001 C 
HETATM   32  C29 UNL     1      16.679  31.949  15.387  1.00  0.00     0.001 C 
BRANCH  26  33
HETATM   33  N2  UNL     1      19.707  28.665  12.707  1.00  0.00    -0.408 NA
HETATM   34  C19 UNL     1      19.995  27.359  12.347  1.00  0.00     0.315 C 
HETATM   35  O7  UNL     1      19.442  26.405  12.000  1.00  0.00    -0.256 OA
BRANCH  34  36
HETATM   36  C20 UNL     1      21.583  27.179  12.518  1.00  0.00     0.390 C 
BRANCH  36  37
HETATM   37  N3  UNL     1      22.248  27.293  11.289  1.00  0.00     0.102 N 
HETATM   38  C21 UNL     1      22.581  26.005  10.704  1.00  0.00     0.299 C 
HETATM   39  C22 UNL     1      23.841  25.414  11.350  1.00  0.00     0.198 C 
HETATM   40  O8  UNL     1      24.874  26.302  11.343  1.00  0.00    -0.388 OA
HETATM   41  C23 UNL     1      24.544  27.414  12.107  1.00  0.00     0.198 C 
HETATM   42  C24 UNL     1      23.395  28.128  11.351  1.00  0.00     0.299 C 
ENDBRANCH  36  37
ENDBRANCH  34  36
ENDBRANCH  26  33
ENDBRANCH  22  23
ENDBRANCH   1  22
TORSDOF 13
ENDMDL
MODEL 4
REMARK VINA RESULT: -8.791534848      2.190      9.726
REMARK  13 active torsions:
REMARK  status: ('A' for Active; 'I' for Inactive)
REMARK    1  A    between atoms: O1_2  and  C2_3 
REMARK    2  A    between atoms: C2_3  and  C3_5 
REMARK    3  A    between atoms: C3_5  and  C4_6 
REMARK    4  A    between atoms: C4_6  and  C5_7 
REMARK    5  A    between atoms: C5_7  and  N1_8 
REMARK    6  A    between atoms: C5_7  and  C14_20 
REMARK       I    between atoms: N1_8  and  C6_10 
REMARK    7  A    between atoms: C6_10  and  C7_12 
REMARK    8  A    between atoms: C7_12  and  O4_13 
REMARK    9  A    between atoms: C14_20  and  O6_22 
REMARK   10  A    between atoms: O6_22  and  C15_23 
REMARK   11  A    between atoms: C18_26  and  N2_27 
REMARK       I    between atoms: N2_27  and  C19_28 
REMARK   12  A    between atoms: C19_28  and  C20_30 
REMARK   13  A    between atoms: C20_30  and  N3_31 
ROOT
HETATM    1  C14 UNL     1      21.272  30.462  12.312  1.00  0.00     0.306 C 
HETATM    2  O5  UNL     1      21.141  31.316  11.632  1.00  0.00    -0.258 OA
ENDROOT
BRANCH   1   3
HETATM    3  C5  UNL     1      21.462  28.971  12.322  1.00  0.00     0.088 C 
BRANCH   3   4
HETATM    4  C4  UNL     1      22.873  28.562  12.683  1.00  0.00     0.073 C 
BRANCH   4   5
HETATM    5  C3  UNL     1      23.471  27.720  11.649  1.00  0.00     0.117 C 
BRANCH   5   6
HETATM    6  C2  UNL     1      23.744  26.299  12.005  1.00  0.00     0.258 C 
HETATM    7  O2  UNL     1      24.571  25.568  12.259  1.00  0.00    -0.265 OA
BRANCH   6   8
HETATM    8  O1  UNL     1      22.368  25.658  12.015  1.00  0.00    -0.326 OA
HETATM    9  C1  UNL     1      21.988  24.788  11.028  1.00  0.00     0.213 C 
ENDBRANCH   6   8
ENDBRANCH   5   6
ENDBRANCH   4   5
ENDBRANCH   3   4
BRANCH   3  10
HETATM   10  N1  UNL     1      20.369  28.217  12.748  1.00  0.00    -0.323 N 
HETATM   11  C6  UNL     1      19.582  27.519  11.718  1.00  0.00     0.257 C 
HETATM   12  O3  UNL     1      19.913  27.410  10.594  1.00  0.00    -0.270 OA
ATOM     13  H1  UNL     1      20.124  28.152  13.736  1.00  0.00     0.169 HD
BRANCH  11  14
HETATM   14  C7  UNL     1      18.257  26.921  12.139  1.00  0.00     0.141 C 
HETATM   15  C9  UNL     1      17.757  27.704  13.290  1.00  0.00     0.048 C 
HETATM   16  C10 UNL     1      17.335  29.088  12.880  1.00  0.00     0.004 C 
HETATM   17  C11 UNL     1      16.594  29.235  11.624  1.00  0.00     0.000 C 
HETATM   18  C12 UNL     1      17.333  28.482  10.479  1.00  0.00     0.004 C 
HETATM   19  C13 UNL     1      17.324  27.046  10.948  1.00  0.00     0.048 C 
BRANCH  14  20
HETATM   20  O4  UNL     1      18.469  25.625  12.423  1.00  0.00    -0.375 OA
HETATM   21  C8  UNL     1      17.818  24.643  11.787  1.00  0.00     0.203 C 
ENDBRANCH  14  20
ENDBRANCH  11  14
ENDBRANCH   3  10
ENDBRANCH   1   3
BRANCH   1  22
HETATM   22  O6  UNL     1      21.286  30.799  13.738  1.00  0.00    -0.310 OA
BRANCH  22  23
HETATM   23  C15 UNL     1      21.370  31.872  14.516  1.00  0.00     0.141 C 
HETATM   24  C16 UNL     1      22.263  31.405  15.799  1.00  0.00     0.036 C 
HETATM   25  C17 UNL     1      22.588  32.664  16.474  1.00  0.00     0.042 C 
HETATM   26  C18 UNL     1      21.350  33.355  17.074  1.00  0.00     0.167 C 
HETATM   27  C25 UNL     1      20.239  33.395  16.068  1.00  0.00     0.051 C 
HETATM   28  C26 UNL     1      20.053  32.210  15.177  1.00  0.00    -0.011 C 
HETATM   29  C27 UNL     1      18.942  32.494  14.236  1.00  0.00     0.012 C 
HETATM   30  C30 UNL     1      19.554  31.088  16.076  1.00  0.00     0.012 C 
HETATM   31  C28 UNL     1      17.659  32.166  14.969  1.00  0.00     0.001 C 
HETATM   32  C29 UNL     1      18.052  31.099  15.946  1.00  0.00     0.001 C 
BRANCH  26  33
HETATM   33  N2  UNL     1      21.613  34.522  17.599  1.00  0.00    -0.408 NA
HETATM   34  C19 UNL     1      21.901  35.756  18.161  1.00  0.00     0.315 C 
HETATM   35  O7  UNL     1      22.733  36.261  18.782  1.00  0.00    -0.256 OA
BRANCH  34  36
HETATM   36  C20 UNL     1      20.644  36.705  17.841  1.00  0.00     0.390 C 
BRANCH  36  37
HETATM   37  N3  UNL     1      19.850  36.906  18.978  1.00  0.00     0.102 N 
HETATM   38  C21 UNL     1      19.243  35.680  19.469  1.00  0.00     0.299 C 
HETATM   39  C22 UNL     1      18.002  35.310  18.648  1.00  0.00     0.198 C 
HETATM   40  O8  UNL     1      17.131  36.353  18.555  1.00  0.00    -0.388 OA
HETATM   41  C23 UNL     1      17.729  37.409  17.880  1.00  0.00     0.198 C 
HETATM   42  C24 UNL     1      18.867  37.916  18.801  1.00  0.00     0.299 C 
ENDBRANCH  36  37
ENDBRANCH  34  36
ENDBRANCH  26  33
ENDBRANCH  22  23
ENDBRANCH   1  22
TORSDOF 13
ENDMDL
MODEL 5
REMARK VINA RESULT: -8.699243896      2.163     10.161
REMARK  13 active torsions:
REMARK  status: ('A' for Active; 'I' for Inactive)
REMARK    1  A    between atoms: O1_2  and  C2_3 
REMARK    2  A    between atoms: C2_3  and  C3_5 
REMARK    3  A    between atoms: C3_5  and  C4_6 
REMARK    4  A    between atoms: C4_6  and  C5_7 
REMARK    5  A    between atoms: C5_7  and  N1_8 
REMARK    6  A    between atoms: C5_7  and  C14_20 
REMARK       I    between atoms: N1_8  and  C6_10 
REMARK    7  A    between atoms: C6_10  and  C7_12 
REMARK    8  A    between atoms: C7_12  and  O4_13 
REMARK    9  A    between atoms: C14_20  and  O6_22 
REMARK   10  A    between atoms: O6_22  and  C15_23 
REMARK   11  A    between atoms: C18_26  and  N2_27 
REMARK       I    between atoms: N2_27  and  C19_28 
REMARK   12  A    between atoms: C19_28  and  C20_30 
REMARK   13  A    between atoms: C20_30  and  N3_31 
ROOT
HETATM    1  C14 UNL     1      21.348  30.105  12.735  1.00  0.00     0.306 C 
HETATM    2  O5  UNL     1      21.463  31.008  12.118  1.00  0.00    -0.258 OA
ENDROOT
BRANCH   1   3
HETATM    3  C5  UNL     1      21.411  28.605  12.666  1.00  0.00     0.088 C 
BRANCH   3   4
HETATM    4  C4  UNL     1      22.752  28.054  13.099  1.00  0.00     0.073 C 
BRANCH   4   5
HETATM    5  C3  UNL     1      23.599  27.734  11.953  1.00  0.00     0.117 C 
BRANCH   5   6
HETATM    6  C2  UNL     1      23.942  26.299  11.742  1.00  0.00     0.258 C 
HETATM    7  O2  UNL     1      24.419  25.396  12.233  1.00  0.00    -0.265 OA
BRANCH   6   8
HETATM    8  O1  UNL     1      23.437  26.009  10.340  1.00  0.00    -0.326 OA
HETATM    9  C1  UNL     1      22.872  24.800  10.030  1.00  0.00     0.213 C 
ENDBRANCH   6   8
ENDBRANCH   5   6
ENDBRANCH   4   5
ENDBRANCH   3   4
BRANCH   3  10
HETATM   10  N1  UNL     1      20.230  27.928  12.967  1.00  0.00    -0.323 N 
HETATM   11  C6  UNL     1      19.628  27.106  11.904  1.00  0.00     0.257 C 
HETATM   12  O3  UNL     1      20.162  26.844  10.888  1.00  0.00    -0.270 OA
ATOM     13  H1  UNL     1      19.799  27.999  13.889  1.00  0.00     0.169 HD
BRANCH  11  14
HETATM   14  C7  UNL     1      18.226  26.586  12.134  1.00  0.00     0.141 C 
HETATM   15  C9  UNL     1      17.638  27.358  13.250  1.00  0.00     0.048 C 
HETATM   16  C10 UNL     1      17.359  28.782  12.855  1.00  0.00     0.004 C 
HETATM   17  C11 UNL     1      16.790  29.026  11.527  1.00  0.00     0.000 C 
HETATM   18  C12 UNL     1      17.615  28.267  10.446  1.00  0.00     0.004 C 
HETATM   19  C13 UNL     1      17.456  26.819  10.846  1.00  0.00     0.048 C 
BRANCH  14  20
HETATM   20  O4  UNL     1      18.318  25.268  12.382  1.00  0.00    -0.375 OA
HETATM   21  C8  UNL     1      17.623  24.363  11.683  1.00  0.00     0.203 C 
ENDBRANCH  14  20
ENDBRANCH  11  14
ENDBRANCH   3  10
ENDBRANCH   1   3
BRANCH   1  22
HETATM   22  O6  UNL     1      21.023  30.350  14.143  1.00  0.00    -0.310 OA
BRANCH  22  23
HETATM   23  C15 UNL     1      20.130  31.016  14.866  1.00  0.00     0.141 C 
HETATM   24  C16 UNL     1      19.206  31.813  13.783  1.00  0.00     0.036 C 
HETATM   25  C17 UNL     1      18.067  32.283  14.575  1.00  0.00     0.042 C 
HETATM   26  C18 UNL     1      18.466  33.340  15.621  1.00  0.00     0.167 C 
HETATM   27  C25 UNL     1      19.676  32.888  16.381  1.00  0.00     0.051 C 
HETATM   28  C26 UNL     1      20.747  32.162  15.633  1.00  0.00    -0.011 C 
HETATM   29  C27 UNL     1      21.810  31.768  16.589  1.00  0.00     0.012 C 
HETATM   30  C30 UNL     1      21.383  33.195  14.713  1.00  0.00     0.012 C 
HETATM   31  C28 UNL     1      22.714  32.971  16.752  1.00  0.00     0.001 C 
HETATM   32  C29 UNL     1      22.598  33.702  15.448  1.00  0.00     0.001 C 
BRANCH  26  33
HETATM   33  N2  UNL     1      17.475  33.700  16.394  1.00  0.00    -0.408 NA
HETATM   34  C19 UNL     1      16.421  34.072  17.212  1.00  0.00     0.315 C 
HETATM   35  O7  UNL     1      15.498  33.598  17.720  1.00  0.00    -0.256 OA
BRANCH  34  36
HETATM   36  C20 UNL     1      16.574  35.653  17.461  1.00  0.00     0.390 C 
BRANCH  36  37
HETATM   37  N3  UNL     1      16.956  35.931  18.780  1.00  0.00     0.102 N 
HETATM   38  C21 UNL     1      16.682  37.304  19.172  1.00  0.00     0.299 C 
HETATM   39  C22 UNL     1      17.761  38.256  18.642  1.00  0.00     0.198 C 
HETATM   40  O8  UNL     1      19.013  37.832  18.972  1.00  0.00    -0.388 OA
HETATM   41  C23 UNL     1      19.267  36.604  18.376  1.00  0.00     0.198 C 
HETATM   42  C24 UNL     1      18.308  35.593  19.053  1.00  0.00     0.299 C 
ENDBRANCH  36  37
ENDBRANCH  34  36
ENDBRANCH  26  33
ENDBRANCH  22  23
ENDBRANCH   1  22
TORSDOF 13
ENDMDL
