MODEL 1
REMARK VINA RESULT: -7.080451610      0.000      0.000
REMARK  12 active torsions:
REMARK  status: ('A' for Active; 'I' for Inactive)
REMARK    1  A    between atoms: O1_2  and  C2_3 
REMARK    2  A    between atoms: C2_3  and  C3_4 
REMARK    3  A    between atoms: C3_4  and  C4_5 
REMARK    4  A    between atoms: C4_5  and  N1_6 
REMARK    5  A    between atoms: C9_11  and  C10_12 
REMARK    6  A    between atoms: C13_15  and  O2_16 
REMARK    7  A    between atoms: O2_16  and  C14_17 
REMARK    8  A    between atoms: C14_17  and  C15_18 
REMARK    9  A    between atoms: C15_18  and  N2_19 
REMARK   10  A    between atoms: N4_30  and  C22_31 
REMARK   11  A    between atoms: C22_31  and  C23_32 
REMARK   12  A    between atoms: C30_39  and  O5_40 
ROOT
HETATM    1  N1  UNL     1      18.954  27.058  10.907  1.00  0.00    -0.291 N 
HETATM    2  C5  UNL     1      19.773  26.031  10.904  1.00  0.00     0.062 A 
HETATM    3  C6  UNL     1      21.030  25.953  11.543  1.00  0.00    -0.014 A 
HETATM    4  C7  UNL     1      21.416  27.021  12.241  1.00  0.00    -0.036 A 
HETATM    5  C8  UNL     1      22.740  26.980  12.945  1.00  0.00     0.050 C 
HETATM    6  C9  UNL     1      20.620  28.154  12.323  1.00  0.00     0.051 A 
HETATM    7  C19 UNL     1      19.426  28.129  11.654  1.00  0.00     0.263 A 
HETATM    8  O3  UNL     1      18.649  29.118  11.676  1.00  0.00    -0.267 OA
HETATM    9  C20 UNL     1      22.038  24.854  11.304  1.00  0.00     0.145 C 
HETATM   10  C21 UNL     1      22.158  24.537   9.855  1.00  0.00     0.232 C 
HETATM   11  O4  UNL     1      23.334  24.500   9.455  1.00  0.00    -0.272 OA
HETATM   12  N4  UNL     1      21.213  24.255   8.779  1.00  0.00    -0.290 N 
HETATM   13  C26 UNL     1      19.804  24.247   9.066  1.00  0.00     0.123 A 
HETATM   14  C27 UNL     1      19.200  24.925  10.163  1.00  0.00     0.035 A 
HETATM   15  C28 UNL     1      17.916  24.745  10.543  1.00  0.00     0.004 A 
HETATM   16  C29 UNL     1      17.596  25.148  11.939  1.00  0.00     0.054 C 
HETATM   17  C30 UNL     1      17.205  23.860   9.755  1.00  0.00     0.149 A 
HETATM   18  N5  UNL     1      17.751  23.213   8.701  1.00  0.00    -0.302 N 
ATOM     19  H5  UNL     1      17.179  22.571   8.152  1.00  0.00     0.171 HD
HETATM   20  C31 UNL     1      19.033  23.407   8.370  1.00  0.00     0.275 A 
HETATM   21  O6  UNL     1      19.610  22.841   7.411  1.00  0.00    -0.266 OA
ENDROOT
BRANCH   6  22
HETATM   22  C10 UNL     1      21.056  29.310  13.100  1.00  0.00    -0.004 A 
HETATM   23  C11 UNL     1      21.610  30.418  12.475  1.00  0.00     0.018 A 
HETATM   24  C12 UNL     1      22.001  31.479  13.255  1.00  0.00     0.057 A 
HETATM   25  C13 UNL     1      21.822  31.388  14.621  1.00  0.00     0.141 A 
HETATM   26  N3  UNL     1      21.286  30.311  15.204  1.00  0.00    -0.346 N 
HETATM   27  C18 UNL     1      20.899  29.267  14.466  1.00  0.00     0.102 A 
ATOM     28  H3  UNL     1      21.172  30.286  16.218  1.00  0.00     0.167 HD
BRANCH  25  29
HETATM   29  O2  UNL     1      22.214  32.463  15.442  1.00  0.00    -0.334 OA
BRANCH  29  30
HETATM   30  C14 UNL     1      21.322  32.952  16.400  1.00  0.00     0.207 C 
BRANCH  30  31
HETATM   31  C15 UNL     1      20.529  34.077  15.782  1.00  0.00     0.298 C 
BRANCH  31  32
HETATM   32  N2  UNL     1      19.126  33.783  15.924  1.00  0.00     0.082 N 
HETATM   33  C16 UNL     1      19.015  32.689  16.878  1.00  0.00     0.309 C 
HETATM   34  C17 UNL     1      18.640  33.314  14.640  1.00  0.00     0.309 C 
ENDBRANCH  31  32
ENDBRANCH  30  31
ENDBRANCH  29  30
ENDBRANCH  25  29
ENDBRANCH   6  22
BRANCH   1  35
HETATM   35  C4  UNL     1      17.859  27.227  10.033  1.00  0.00     0.075 C 
BRANCH  35  36
HETATM   36  C3  UNL     1      17.658  28.037   8.845  1.00  0.00     0.071 C 
BRANCH  36  37
HETATM   37  C2  UNL     1      18.228  27.166   7.691  1.00  0.00     0.172 C 
BRANCH  37  38
HETATM   38  O1  UNL     1      17.374  26.181   7.347  1.00  0.00    -0.396 OA
HETATM   39  C1  UNL     1      17.287  25.799   6.041  1.00  0.00     0.201 C 
ENDBRANCH  37  38
ENDBRANCH  36  37
ENDBRANCH  35  36
ENDBRANCH   1  35
BRANCH  12  40
HETATM   40  C22 UNL     1      21.554  23.986   7.464  1.00  0.00     0.078 C 
BRANCH  40  41
HETATM   41  C23 UNL     1      21.848  25.167   6.560  1.00  0.00     0.025 A 
HETATM   42  C24 UNL     1      22.375  25.090   5.204  1.00  0.00     0.010 A 
HETATM   43  C25 UNL     1      20.982  25.539   5.449  1.00  0.00     0.010 A 
ENDBRANCH  40  41
ENDBRANCH  12  40
BRANCH  17  44
HETATM   44  O5  UNL     1      15.865  23.664  10.118  1.00  0.00    -0.346 OA
ATOM     45  H5  UNL     1      15.339  23.173   9.499  1.00  0.00     0.219 HD
ENDBRANCH  17  44
TORSDOF 12
ENDMDL
MODEL 2
REMARK VINA RESULT: -6.887550109      0.958      1.146
REMARK  12 active torsions:
REMARK  status: ('A' for Active; 'I' for Inactive)
REMARK    1  A    between atoms: O1_2  and  C2_3 
REMARK    2  A    between atoms: C2_3  and  C3_4 
REMARK    3  A    between atoms: C3_4  and  C4_5 
REMARK    4  A    between atoms: C4_5  and  N1_6 
REMARK    5  A    between atoms: C9_11  and  C10_12 
REMARK    6  A    between atoms: C13_15  and  O2_16 
REMARK    7  A    between atoms: O2_16  and  C14_17 
REMARK    8  A    between atoms: C14_17  and  C15_18 
REMARK    9  A    between atoms: C15_18  and  N2_19 
REMARK   10  A    between atoms: N4_30  and  C22_31 
REMARK   11  A    between atoms: C22_31  and  C23_32 
REMARK   12  A    between atoms: C30_39  and  O5_40 
ROOT
HETATM    1  N1  UNL     1      18.958  27.020  10.948  1.00  0.00    -0.291 N 
HETATM    2  C5  UNL     1      19.767  25.987  10.897  1.00  0.00     0.062 A 
HETATM    3  C6  UNL     1      21.049  25.889  11.481  1.00  0.00    -0.014 A 
HETATM    4  C7  UNL     1      21.474  26.945  12.175  1.00  0.00    -0.036 A 
HETATM    5  C8  UNL     1      22.827  26.883  12.821  1.00  0.00     0.050 C 
HETATM    6  C9  UNL     1      20.692  28.083  12.306  1.00  0.00     0.051 A 
HETATM    7  C19 UNL     1      19.471  28.077  11.688  1.00  0.00     0.263 A 
HETATM    8  O3  UNL     1      18.705  29.072  11.757  1.00  0.00    -0.267 OA
HETATM    9  C20 UNL     1      22.036  24.786  11.184  1.00  0.00     0.145 C 
HETATM   10  C21 UNL     1      22.092  24.487   9.728  1.00  0.00     0.232 C 
HETATM   11  O4  UNL     1      23.250  24.446   9.277  1.00  0.00    -0.272 OA
HETATM   12  N4  UNL     1      21.100  24.227   8.690  1.00  0.00    -0.290 N 
HETATM   13  C26 UNL     1      19.704  24.227   9.036  1.00  0.00     0.123 A 
HETATM   14  C27 UNL     1      19.153  24.895  10.166  1.00  0.00     0.035 A 
HETATM   15  C28 UNL     1      17.885  24.721  10.599  1.00  0.00     0.004 A 
HETATM   16  C29 UNL     1      17.629  25.108  12.012  1.00  0.00     0.054 C 
HETATM   17  C30 UNL     1      17.134  23.852   9.830  1.00  0.00     0.149 A 
HETATM   18  N5  UNL     1      17.628  23.215   8.746  1.00  0.00    -0.302 N 
ATOM     19  H5  UNL     1      17.028  22.585   8.213  1.00  0.00     0.171 HD
HETATM   20  C31 UNL     1      18.897  23.403   8.363  1.00  0.00     0.275 A 
HETATM   21  O6  UNL     1      19.427  22.845   7.373  1.00  0.00    -0.266 OA
ENDROOT
BRANCH   6  22
HETATM   22  C10 UNL     1      21.171  29.224  13.078  1.00  0.00    -0.004 A 
HETATM   23  C11 UNL     1      21.635  30.368  12.444  1.00  0.00     0.018 A 
HETATM   24  C12 UNL     1      22.072  31.413  13.220  1.00  0.00     0.057 A 
HETATM   25  C13 UNL     1      22.026  31.273  14.594  1.00  0.00     0.141 A 
HETATM   26  N3  UNL     1      21.575  30.162  15.186  1.00  0.00    -0.346 N 
HETATM   27  C18 UNL     1      21.147  29.132  14.452  1.00  0.00     0.102 A 
ATOM     28  H3  UNL     1      21.559  30.101  16.204  1.00  0.00     0.167 HD
BRANCH  25  29
HETATM   29  O2  UNL     1      22.468  32.331  15.411  1.00  0.00    -0.334 OA
BRANCH  29  30
HETATM   30  C14 UNL     1      21.820  32.572  16.626  1.00  0.00     0.207 C 
BRANCH  30  31
HETATM   31  C15 UNL     1      22.743  33.379  17.506  1.00  0.00     0.298 C 
BRANCH  31  32
HETATM   32  N2  UNL     1      22.124  34.651  17.778  1.00  0.00     0.082 N 
HETATM   33  C16 UNL     1      20.695  34.483  17.563  1.00  0.00     0.309 C 
HETATM   34  C17 UNL     1      22.619  35.602  16.800  1.00  0.00     0.309 C 
ENDBRANCH  31  32
ENDBRANCH  30  31
ENDBRANCH  29  30
ENDBRANCH  25  29
ENDBRANCH   6  22
BRANCH   1  35
HETATM   35  C4  UNL     1      17.829  27.210  10.124  1.00  0.00     0.075 C 
BRANCH  35  36
HETATM   36  C3  UNL     1      17.585  28.035   8.955  1.00  0.00     0.071 C 
BRANCH  36  37
HETATM   37  C2  UNL     1      18.224  27.236   7.786  1.00  0.00     0.172 C 
BRANCH  37  38
HETATM   38  O1  UNL     1      17.405  26.257   7.350  1.00  0.00    -0.396 OA
HETATM   39  C1  UNL     1      17.391  25.938   6.025  1.00  0.00     0.201 C 
ENDBRANCH  37  38
ENDBRANCH  36  37
ENDBRANCH  35  36
ENDBRANCH   1  35
BRANCH  12  40
HETATM   40  C22 UNL     1      21.382  23.973   7.358  1.00  0.00     0.078 C 
BRANCH  40  41
HETATM   41  C23 UNL     1      21.761  25.152   6.484  1.00  0.00     0.025 A 
HETATM   42  C24 UNL     1      22.516  25.082   5.240  1.00  0.00     0.010 A 
HETATM   43  C25 UNL     1      21.079  25.452   5.232  1.00  0.00     0.010 A 
ENDBRANCH  40  41
ENDBRANCH  12  40
BRANCH  17  44
HETATM   44  O5  UNL     1      15.809  23.663  10.248  1.00  0.00    -0.346 OA
ATOM     45  H5  UNL     1      15.463  24.327  10.832  1.00  0.00     0.219 HD
ENDBRANCH  17  44
TORSDOF 12
ENDMDL
MODEL 3
REMARK VINA RESULT: -6.768368978      0.949      1.053
REMARK  12 active torsions:
REMARK  status: ('A' for Active; 'I' for Inactive)
REMARK    1  A    between atoms: O1_2  and  C2_3 
REMARK    2  A    between atoms: C2_3  and  C3_4 
REMARK    3  A    between atoms: C3_4  and  C4_5 
REMARK    4  A    between atoms: C4_5  and  N1_6 
REMARK    5  A    between atoms: C9_11  and  C10_12 
REMARK    6  A    between atoms: C13_15  and  O2_16 
REMARK    7  A    between atoms: O2_16  and  C14_17 
REMARK    8  A    between atoms: C14_17  and  C15_18 
REMARK    9  A    between atoms: C15_18  and  N2_19 
REMARK   10  A    between atoms: N4_30  and  C22_31 
REMARK   11  A    between atoms: C22_31  and  C23_32 
REMARK   12  A    between atoms: C30_39  and  O5_40 
ROOT
HETATM    1  N1  UNL     1      18.775  27.008  10.430  1.00  0.00    -0.291 N 
HETATM    2  C5  UNL     1      19.628  26.024  10.606  1.00  0.00     0.062 A 
HETATM    3  C6  UNL     1      20.772  26.037  11.434  1.00  0.00    -0.014 A 
HETATM    4  C7  UNL     1      20.999  27.154  12.126  1.00  0.00    -0.036 A 
HETATM    5  C8  UNL     1      22.198  27.210  13.026  1.00  0.00     0.050 C 
HETATM    6  C9  UNL     1      20.153  28.248  12.026  1.00  0.00     0.051 A 
HETATM    7  C19 UNL     1      19.080  28.133  11.183  1.00  0.00     0.263 A 
HETATM    8  O3  UNL     1      18.268  29.083  11.035  1.00  0.00    -0.267 OA
HETATM    9  C20 UNL     1      21.850  24.980  11.410  1.00  0.00     0.145 C 
HETATM   10  C21 UNL     1      22.208  24.605  10.015  1.00  0.00     0.232 C 
HETATM   11  O4  UNL     1      23.432  24.609   9.802  1.00  0.00    -0.272 OA
HETATM   12  N4  UNL     1      21.455  24.228   8.823  1.00  0.00    -0.290 N 
HETATM   13  C26 UNL     1      20.020  24.163   8.890  1.00  0.00     0.123 A 
HETATM   14  C27 UNL     1      19.224  24.859   9.844  1.00  0.00     0.035 A 
HETATM   15  C28 UNL     1      17.905  24.632  10.032  1.00  0.00     0.004 A 
HETATM   16  C29 UNL     1      17.356  25.081  11.340  1.00  0.00     0.054 C 
HETATM   17  C30 UNL     1      17.365  23.677   9.192  1.00  0.00     0.149 A 
HETATM   18  N5  UNL     1      18.094  23.012   8.269  1.00  0.00    -0.302 N 
ATOM     19  H5  UNL     1      17.643  22.318   7.673  1.00  0.00     0.171 HD
HETATM   20  C31 UNL     1      19.403  23.255   8.129  1.00  0.00     0.275 A 
HETATM   21  O6  UNL     1      20.145  22.676   7.301  1.00  0.00    -0.266 OA
ENDROOT
BRANCH   6  22
HETATM   22  C10 UNL     1      20.413  29.458  12.799  1.00  0.00    -0.004 A 
HETATM   23  C11 UNL     1      21.275  30.435  12.321  1.00  0.00     0.018 A 
HETATM   24  C12 UNL     1      21.482  31.554  13.090  1.00  0.00     0.057 A 
HETATM   25  C13 UNL     1      20.820  31.650  14.298  1.00  0.00     0.141 A 
HETATM   26  N3  UNL     1      19.993  30.697  14.741  1.00  0.00    -0.346 N 
HETATM   27  C18 UNL     1      19.778  29.600  14.011  1.00  0.00     0.102 A 
ATOM     28  H3  UNL     1      19.525  30.810  15.640  1.00  0.00     0.167 HD
BRANCH  25  29
HETATM   29  O2  UNL     1      21.015  32.789  15.104  1.00  0.00    -0.334 OA
BRANCH  29  30
HETATM   30  C14 UNL     1      20.576  32.771  16.430  1.00  0.00     0.207 C 
BRANCH  30  31
HETATM   31  C15 UNL     1      19.536  33.850  16.602  1.00  0.00     0.298 C 
BRANCH  31  32
HETATM   32  N2  UNL     1      18.463  33.331  17.412  1.00  0.00     0.082 N 
HETATM   33  C16 UNL     1      17.528  32.677  16.510  1.00  0.00     0.309 C 
HETATM   34  C17 UNL     1      17.787  34.460  18.024  1.00  0.00     0.309 C 
ENDBRANCH  31  32
ENDBRANCH  30  31
ENDBRANCH  29  30
ENDBRANCH  25  29
ENDBRANCH   6  22
BRANCH   1  35
HETATM   35  C4  UNL     1      17.824  27.082   9.391  1.00  0.00     0.075 C 
BRANCH  35  36
HETATM   36  C3  UNL     1      17.828  27.728   8.090  1.00  0.00     0.071 C 
BRANCH  36  37
HETATM   37  C2  UNL     1      17.755  26.550   7.081  1.00  0.00     0.172 C 
BRANCH  37  38
HETATM   38  O1  UNL     1      17.752  26.989   5.806  1.00  0.00    -0.396 OA
HETATM   39  C1  UNL     1      18.556  28.034   5.458  1.00  0.00     0.201 C 
ENDBRANCH  37  38
ENDBRANCH  36  37
ENDBRANCH  35  36
ENDBRANCH   1  35
BRANCH  12  40
HETATM   40  C22 UNL     1      22.008  23.917   7.592  1.00  0.00     0.078 C 
BRANCH  40  41
HETATM   41  C23 UNL     1      22.244  25.058   6.621  1.00  0.00     0.025 A 
HETATM   42  C24 UNL     1      22.582  24.919   5.211  1.00  0.00     0.010 A 
HETATM   43  C25 UNL     1      21.261  25.456   5.623  1.00  0.00     0.010 A 
ENDBRANCH  40  41
ENDBRANCH  12  40
BRANCH  17  44
HETATM   44  O5  UNL     1      15.993  23.432   9.355  1.00  0.00    -0.346 OA
ATOM     45  H5  UNL     1      15.761  22.865  10.080  1.00  0.00     0.219 HD
ENDBRANCH  17  44
TORSDOF 12
ENDMDL
MODEL 4
REMARK VINA RESULT: -6.592988517      3.217     11.147
REMARK  12 active torsions:
REMARK  status: ('A' for Active; 'I' for Inactive)
REMARK    1  A    between atoms: O1_2  and  C2_3 
REMARK    2  A    between atoms: C2_3  and  C3_4 
REMARK    3  A    between atoms: C3_4  and  C4_5 
REMARK    4  A    between atoms: C4_5  and  N1_6 
REMARK    5  A    between atoms: C9_11  and  C10_12 
REMARK    6  A    between atoms: C13_15  and  O2_16 
REMARK    7  A    between atoms: O2_16  and  C14_17 
REMARK    8  A    between atoms: C14_17  and  C15_18 
REMARK    9  A    between atoms: C15_18  and  N2_19 
REMARK   10  A    between atoms: N4_30  and  C22_31 
REMARK   11  A    between atoms: C22_31  and  C23_32 
REMARK   12  A    between atoms: C30_39  and  O5_40 
ROOT
HETATM    1  N1  UNL     1      18.780  32.414  15.860  1.00  0.00    -0.291 N 
HETATM    2  C5  UNL     1      19.786  33.259  15.880  1.00  0.00     0.062 A 
HETATM    3  C6  UNL     1      21.058  33.070  15.295  1.00  0.00    -0.014 A 
HETATM    4  C7  UNL     1      21.252  31.927  14.638  1.00  0.00    -0.036 A 
HETATM    5  C8  UNL     1      22.586  31.686  13.993  1.00  0.00     0.050 C 
HETATM    6  C9  UNL     1      20.251  30.971  14.542  1.00  0.00     0.051 A 
HETATM    7  C19 UNL     1      19.060  31.251  15.157  1.00  0.00     0.263 A 
HETATM    8  O3  UNL     1      18.105  30.434  15.119  1.00  0.00    -0.267 OA
HETATM    9  C20 UNL     1      22.253  33.955  15.558  1.00  0.00     0.145 C 
HETATM   10  C21 UNL     1      22.376  34.283  17.003  1.00  0.00     0.232 C 
HETATM   11  O4  UNL     1      23.519  34.098  17.456  1.00  0.00    -0.272 OA
HETATM   12  N4  UNL     1      21.464  34.776  18.030  1.00  0.00    -0.290 N 
HETATM   13  C26 UNL     1      20.097  35.054  17.680  1.00  0.00     0.123 A 
HETATM   14  C27 UNL     1      19.414  34.477  16.572  1.00  0.00     0.035 A 
HETATM   15  C28 UNL     1      18.208  34.896  16.130  1.00  0.00     0.004 A 
HETATM   16  C29 UNL     1      17.871  34.524  14.730  1.00  0.00     0.054 C 
HETATM   17  C30 UNL     1      17.656  35.926  16.868  1.00  0.00     0.149 A 
HETATM   18  N5  UNL     1      18.276  36.482  17.932  1.00  0.00    -0.302 N 
ATOM     19  H5  UNL     1      17.822  37.240  18.442  1.00  0.00     0.171 HD
HETATM   20  C31 UNL     1      19.480  36.049  18.324  1.00  0.00     0.275 A 
HETATM   21  O6  UNL     1      20.119  36.517  19.297  1.00  0.00    -0.266 OA
ENDROOT
BRANCH   6  22
HETATM   22  C10 UNL     1      20.480  29.731  13.809  1.00  0.00    -0.004 A 
HETATM   23  C11 UNL     1      20.053  29.592  12.496  1.00  0.00     0.018 A 
HETATM   24  C12 UNL     1      20.298  28.403  11.854  1.00  0.00     0.057 A 
HETATM   25  C13 UNL     1      20.956  27.407  12.547  1.00  0.00     0.141 A 
HETATM   26  N3  UNL     1      21.360  27.560  13.812  1.00  0.00    -0.346 N 
HETATM   27  C18 UNL     1      21.133  28.707  14.458  1.00  0.00     0.102 A 
ATOM     28  H3  UNL     1      21.844  26.798  14.287  1.00  0.00     0.167 HD
BRANCH  25  29
HETATM   29  O2  UNL     1      21.219  26.179  11.909  1.00  0.00    -0.334 OA
BRANCH  29  30
HETATM   30  C14 UNL     1      20.297  25.677  10.987  1.00  0.00     0.207 C 
BRANCH  30  31
HETATM   31  C15 UNL     1      19.745  24.379  11.524  1.00  0.00     0.298 C 
BRANCH  31  32
HETATM   32  N2  UNL     1      18.425  24.622  12.047  1.00  0.00     0.082 N 
HETATM   33  C16 UNL     1      17.672  23.387  11.888  1.00  0.00     0.309 C 
HETATM   34  C17 UNL     1      17.803  25.640  11.222  1.00  0.00     0.309 C 
ENDBRANCH  31  32
ENDBRANCH  30  31
ENDBRANCH  29  30
ENDBRANCH  25  29
ENDBRANCH   6  22
BRANCH   1  35
HETATM   35  C4  UNL     1      17.640  32.490  16.687  1.00  0.00     0.075 C 
BRANCH  35  36
HETATM   36  C3  UNL     1      16.361  31.801  16.673  1.00  0.00     0.071 C 
BRANCH  36  37
HETATM   37  C2  UNL     1      15.313  32.946  16.693  1.00  0.00     0.172 C 
BRANCH  37  38
HETATM   38  O1  UNL     1      15.382  33.662  17.834  1.00  0.00    -0.396 OA
HETATM   39  C1  UNL     1      14.574  34.749  17.991  1.00  0.00     0.201 C 
ENDBRANCH  37  38
ENDBRANCH  36  37
ENDBRANCH  35  36
ENDBRANCH   1  35
BRANCH  12  40
HETATM   40  C22 UNL     1      21.798  35.010  19.354  1.00  0.00     0.078 C 
BRANCH  40  41
HETATM   41  C23 UNL     1      23.129  35.681  19.633  1.00  0.00     0.025 A 
HETATM   42  C24 UNL     1      23.320  37.084  19.976  1.00  0.00     0.010 A 
HETATM   43  C25 UNL     1      23.570  36.019  20.980  1.00  0.00     0.010 A 
ENDBRANCH  40  41
ENDBRANCH  12  40
BRANCH  17  44
HETATM   44  O5  UNL     1      16.397  36.372  16.441  1.00  0.00    -0.346 OA
ATOM     45  H5  UNL     1      16.175  37.265  16.678  1.00  0.00     0.219 HD
ENDBRANCH  17  44
TORSDOF 12
ENDMDL
MODEL 5
REMARK VINA RESULT: -6.589347172      3.590     10.988
REMARK  12 active torsions:
REMARK  status: ('A' for Active; 'I' for Inactive)
REMARK    1  A    between atoms: O1_2  and  C2_3 
REMARK    2  A    between atoms: C2_3  and  C3_4 
REMARK    3  A    between atoms: C3_4  and  C4_5 
REMARK    4  A    between atoms: C4_5  and  N1_6 
REMARK    5  A    between atoms: C9_11  and  C10_12 
REMARK    6  A    between atoms: C13_15  and  O2_16 
REMARK    7  A    between atoms: O2_16  and  C14_17 
REMARK    8  A    between atoms: C14_17  and  C15_18 
REMARK    9  A    between atoms: C15_18  and  N2_19 
REMARK   10  A    between atoms: N4_30  and  C22_31 
REMARK   11  A    between atoms: C22_31  and  C23_32 
REMARK   12  A    between atoms: C30_39  and  O5_40 
ROOT
HETATM    1  N1  UNL     1      18.662  32.329  15.688  1.00  0.00    -0.291 N 
HETATM    2  C5  UNL     1      19.693  33.143  15.687  1.00  0.00     0.062 A 
HETATM    3  C6  UNL     1      20.951  32.908  15.089  1.00  0.00    -0.014 A 
HETATM    4  C7  UNL     1      21.102  31.753  14.442  1.00  0.00    -0.036 A 
HETATM    5  C8  UNL     1      22.420  31.465  13.784  1.00  0.00     0.050 C 
HETATM    6  C9  UNL     1      20.071  30.828  14.368  1.00  0.00     0.051 A 
HETATM    7  C19 UNL     1      18.897  31.150  14.993  1.00  0.00     0.263 A 
HETATM    8  O3  UNL     1      17.916  30.363  14.976  1.00  0.00    -0.267 OA
HETATM    9  C20 UNL     1      22.177  33.758  15.329  1.00  0.00     0.145 C 
HETATM   10  C21 UNL     1      22.327  34.097  16.769  1.00  0.00     0.232 C 
HETATM   11  O4  UNL     1      23.469  33.882  17.210  1.00  0.00    -0.272 OA
HETATM   12  N4  UNL     1      21.443  34.629  17.802  1.00  0.00    -0.290 N 
HETATM   13  C26 UNL     1      20.081  34.945  17.465  1.00  0.00     0.123 A 
HETATM   14  C27 UNL     1      19.368  34.379  16.370  1.00  0.00     0.035 A 
HETATM   15  C28 UNL     1      18.169  34.830  15.939  1.00  0.00     0.004 A 
HETATM   16  C29 UNL     1      17.805  34.455  14.546  1.00  0.00     0.054 C 
HETATM   17  C30 UNL     1      17.659  35.885  16.672  1.00  0.00     0.149 A 
HETATM   18  N5  UNL     1      18.309  36.432  17.723  1.00  0.00    -0.302 N 
ATOM     19  H5  UNL     1      17.884  37.208  18.230  1.00  0.00     0.171 HD
HETATM   20  C31 UNL     1      19.503  35.966  18.105  1.00  0.00     0.275 A 
HETATM   21  O6  UNL     1      20.168  36.423  19.065  1.00  0.00    -0.266 OA
ENDROOT
BRANCH   6  22
HETATM   22  C10 UNL     1      20.253  29.574  13.646  1.00  0.00    -0.004 A 
HETATM   23  C11 UNL     1      19.696  29.391  12.388  1.00  0.00     0.018 A 
HETATM   24  C12 UNL     1      19.901  28.191  11.752  1.00  0.00     0.057 A 
HETATM   25  C13 UNL     1      20.652  27.228  12.397  1.00  0.00     0.141 A 
HETATM   26  N3  UNL     1      21.180  27.423  13.610  1.00  0.00    -0.346 N 
HETATM   27  C18 UNL     1      20.993  28.582  14.248  1.00  0.00     0.102 A 
ATOM     28  H3  UNL     1      21.729  26.685  14.049  1.00  0.00     0.167 HD
BRANCH  25  29
HETATM   29  O2  UNL     1      20.877  25.989  11.765  1.00  0.00    -0.334 OA
BRANCH  29  30
HETATM   30  C14 UNL     1      22.174  25.473  11.716  1.00  0.00     0.207 C 
BRANCH  30  31
HETATM   31  C15 UNL     1      22.830  25.953  10.445  1.00  0.00     0.298 C 
BRANCH  31  32
HETATM   32  N2  UNL     1      24.040  26.655  10.788  1.00  0.00     0.082 N 
HETATM   33  C16 UNL     1      24.402  26.244  12.136  1.00  0.00     0.309 C 
HETATM   34  C17 UNL     1      23.735  28.074  10.815  1.00  0.00     0.309 C 
ENDBRANCH  31  32
ENDBRANCH  30  31
ENDBRANCH  29  30
ENDBRANCH  25  29
ENDBRANCH   6  22
BRANCH   1  35
HETATM   35  C4  UNL     1      17.534  32.449  16.527  1.00  0.00     0.075 C 
BRANCH  35  36
HETATM   36  C3  UNL     1      16.209  31.854  16.493  1.00  0.00     0.071 C 
BRANCH  36  37
HETATM   37  C2  UNL     1      15.250  33.051  16.739  1.00  0.00     0.172 C 
BRANCH  37  38
HETATM   38  O1  UNL     1      15.566  33.715  17.870  1.00  0.00    -0.396 OA
HETATM   39  C1  UNL     1      14.830  34.804  18.233  1.00  0.00     0.201 C 
ENDBRANCH  37  38
ENDBRANCH  36  37
ENDBRANCH  35  36
ENDBRANCH   1  35
BRANCH  12  40
HETATM   40  C22 UNL     1      21.800  34.866  19.119  1.00  0.00     0.078 C 
BRANCH  40  41
HETATM   41  C23 UNL     1      23.102  35.601  19.371  1.00  0.00     0.025 A 
HETATM   42  C24 UNL     1      23.242  37.035  19.581  1.00  0.00     0.010 A 
HETATM   43  C25 UNL     1      23.488  36.081  20.690  1.00  0.00     0.010 A 
ENDBRANCH  40  41
ENDBRANCH  12  40
BRANCH  17  44
HETATM   44  O5  UNL     1      16.409  36.365  16.255  1.00  0.00    -0.346 OA
ATOM     45  H5  UNL     1      16.298  37.307  16.291  1.00  0.00     0.219 HD
ENDBRANCH  17  44
TORSDOF 12
ENDMDL
