MODEL 1
REMARK VINA RESULT: -8.103820049      0.000      0.000
REMARK  11 active torsions:
REMARK  status: ('A' for Active; 'I' for Inactive)
REMARK    1  A    between atoms: C2_2  and  C3_3 
REMARK    2  A    between atoms: C3_3  and  C5_5 
REMARK    3  A    between atoms: C7_7  and  C8_8 
REMARK    4  A    between atoms: C8_8  and  N1_9 
REMARK    5  A    between atoms: C15_18  and  O1_19 
REMARK    6  A    between atoms: C17_21  and  C18_22 
REMARK    7  A    between atoms: C19_23  and  N4_24 
REMARK    8  A    between atoms: C24_32  and  C25_33 
REMARK       I    between atoms: C25_33  and  N6_35 
REMARK    9  A    between atoms: N6_35  and  C26_37 
REMARK   10  A    between atoms: C26_37  and  C27_38 
REMARK   11  A    between atoms: C27_38  and  O4_39 
ROOT
HETATM    1  C5  UNL     1      21.902  26.425  11.746  1.00  0.00    -0.009 A 
HETATM    2  C6  UNL     1      22.272  27.445  12.569  1.00  0.00     0.021 A 
HETATM    3  C7  UNL     1      21.362  28.334  13.122  1.00  0.00    -0.013 A 
HETATM    4  C14 UNL     1      20.038  28.117  12.783  1.00  0.00     0.109 A 
HETATM    5  N3  UNL     1      19.634  27.119  11.972  1.00  0.00    -0.285 N 
HETATM    6  C15 UNL     1      18.373  26.774  11.534  1.00  0.00     0.179 A 
HETATM    7  C17 UNL     1      18.528  25.700  10.733  1.00  0.00     0.115 A 
HETATM    8  N8  UNL     1      19.851  25.423  10.702  1.00  0.00    -0.336 N 
ATOM      9  H8  UNL     1      20.262  24.656  10.171  1.00  0.00     0.168 HD
HETATM   10  C30 UNL     1      20.554  26.276  11.453  1.00  0.00     0.121 A 
ENDROOT
BRANCH   7  11
HETATM   11  C18 UNL     1      17.543  24.880  10.032  1.00  0.00     0.093 A 
HETATM   12  C19 UNL     1      17.381  24.939   8.631  1.00  0.00     0.070 A 
HETATM   13  C23 UNL     1      16.341  24.083   8.337  1.00  0.00     0.067 A 
HETATM   14  C24 UNL     1      15.879  23.524   9.483  1.00  0.00     0.105 A 
HETATM   15  N7  UNL     1      16.624  24.023  10.494  1.00  0.00    -0.343 N 
HETATM   16  C29 UNL     1      16.386  23.678  11.884  1.00  0.00     0.157 C 
BRANCH  12  17
HETATM   17  N4  UNL     1      18.153  25.727   7.750  1.00  0.00    -0.296 N 
HETATM   18  C20 UNL     1      17.905  27.095   7.366  1.00  0.00     0.153 C 
HETATM   19  C21 UNL     1      18.861  27.429   6.271  1.00  0.00     0.144 C 
HETATM   20  N5  UNL     1      19.846  26.386   6.307  1.00  0.00    -0.341 N 
HETATM   21  C22 UNL     1      19.316  25.320   7.064  1.00  0.00     0.323 C 
ATOM     22  H5  UNL     1      20.764  26.410   5.864  1.00  0.00     0.164 HD
HETATM   23  O2  UNL     1      19.807  24.170   7.121  1.00  0.00    -0.247 OA
ENDBRANCH  12  17
BRANCH  14  24
HETATM   24  C25 UNL     1      14.742  22.550   9.621  1.00  0.00     0.268 C 
HETATM   25  O3  UNL     1      15.053  21.329   9.514  1.00  0.00    -0.266 OA
HETATM   26  N6  UNL     1      13.480  23.088   9.852  1.00  0.00    -0.354 N 
ATOM     27  H6  UNL     1      13.482  24.106   9.908  1.00  0.00     0.162 HD
BRANCH  26  28
HETATM   28  C26 UNL     1      12.192  22.523  10.025  1.00  0.00     0.149 C 
BRANCH  28  29
HETATM   29  C27 UNL     1      11.585  22.638  11.365  1.00  0.00     0.186 C 
BRANCH  29  30
HETATM   30  O4  UNL     1      10.483  23.406  11.477  1.00  0.00    -0.394 OA
HETATM   31  C28 UNL     1       9.974  23.804  10.233  1.00  0.00     0.201 C 
ENDBRANCH  29  30
ENDBRANCH  28  29
ENDBRANCH  26  28
ENDBRANCH  14  24
ENDBRANCH   7  11
BRANCH   6  32
HETATM   32  O1  UNL     1      17.255  27.473  11.926  1.00  0.00    -0.339 OA
HETATM   33  C16 UNL     1      16.672  28.612  11.450  1.00  0.00     0.211 C 
ENDBRANCH   6  32
BRANCH   1  34
HETATM   34  C3  UNL     1      22.872  25.514  11.180  1.00  0.00     0.018 C 
HETATM   35  C4  UNL     1      24.296  25.705  11.656  1.00  0.00     0.015 C 
BRANCH  34  36
HETATM   36  C2  UNL     1      22.912  25.455   9.685  1.00  0.00     0.004 C 
HETATM   37  C1  UNL     1      22.764  24.061   9.141  1.00  0.00     0.006 C 
ENDBRANCH  34  36
ENDBRANCH   1  34
BRANCH   3  38
HETATM   38  C8  UNL     1      21.709  29.458  14.010  1.00  0.00     0.312 C 
BRANCH  38  39
HETATM   39  N1  UNL     1      20.618  30.243  14.478  1.00  0.00     0.096 N 
HETATM   40  C9  UNL     1      20.417  29.993  15.884  1.00  0.00     0.303 C 
HETATM   41  C10 UNL     1      19.259  30.857  16.383  1.00  0.00     0.302 C 
HETATM   42  N2  UNL     1      19.689  32.219  16.259  1.00  0.00     0.087 N 
HETATM   43  C11 UNL     1      18.885  33.158  17.000  1.00  0.00     0.310 C 
HETATM   44  C12 UNL     1      19.862  32.540  14.880  1.00  0.00     0.302 C 
HETATM   45  C13 UNL     1      20.943  31.640  14.306  1.00  0.00     0.303 C 
ENDBRANCH  38  39
ENDBRANCH   3  38
TORSDOF 11
ENDMDL
MODEL 2
REMARK VINA RESULT: -7.922697914      6.803     14.869
REMARK  11 active torsions:
REMARK  status: ('A' for Active; 'I' for Inactive)
REMARK    1  A    between atoms: C2_2  and  C3_3 
REMARK    2  A    between atoms: C3_3  and  C5_5 
REMARK    3  A    between atoms: C7_7  and  C8_8 
REMARK    4  A    between atoms: C8_8  and  N1_9 
REMARK    5  A    between atoms: C15_18  and  O1_19 
REMARK    6  A    between atoms: C17_21  and  C18_22 
REMARK    7  A    between atoms: C19_23  and  N4_24 
REMARK    8  A    between atoms: C24_32  and  C25_33 
REMARK       I    between atoms: C25_33  and  N6_35 
REMARK    9  A    between atoms: N6_35  and  C26_37 
REMARK   10  A    between atoms: C26_37  and  C27_38 
REMARK   11  A    between atoms: C27_38  and  O4_39 
ROOT
HETATM    1  C5  UNL     1      17.866  34.508  17.070  1.00  0.00    -0.009 A 
HETATM    2  C6  UNL     1      17.525  33.570  16.144  1.00  0.00     0.021 A 
HETATM    3  C7  UNL     1      18.438  33.025  15.253  1.00  0.00    -0.013 A 
HETATM    4  C14 UNL     1      19.734  33.498  15.366  1.00  0.00     0.109 A 
HETATM    5  N3  UNL     1      20.108  34.425  16.270  1.00  0.00    -0.285 N 
HETATM    6  C15 UNL     1      21.338  35.002  16.507  1.00  0.00     0.179 A 
HETATM    7  C17 UNL     1      21.161  35.876  17.518  1.00  0.00     0.115 A 
HETATM    8  N8  UNL     1      19.857  35.813  17.867  1.00  0.00    -0.336 N 
ATOM      9  H8  UNL     1      19.436  36.370  18.610  1.00  0.00     0.168 HD
HETATM   10  C30 UNL     1      19.186  34.931  17.119  1.00  0.00     0.121 A 
ENDROOT
BRANCH   7  11
HETATM   11  C18 UNL     1      22.116  36.731  18.222  1.00  0.00     0.093 A 
HETATM   12  C19 UNL     1      22.233  38.109  17.943  1.00  0.00     0.070 A 
HETATM   13  C23 UNL     1      23.255  38.569  18.745  1.00  0.00     0.067 A 
HETATM   14  C24 UNL     1      23.748  37.542  19.480  1.00  0.00     0.105 A 
HETATM   15  N7  UNL     1      23.041  36.440  19.144  1.00  0.00    -0.343 N 
HETATM   16  C29 UNL     1      23.320  35.131  19.707  1.00  0.00     0.157 C 
BRANCH  12  17
HETATM   17  N4  UNL     1      21.441  38.828  17.021  1.00  0.00    -0.296 N 
HETATM   18  C20 UNL     1      21.857  39.355  15.745  1.00  0.00     0.153 C 
HETATM   19  C21 UNL     1      20.744  40.205  15.231  1.00  0.00     0.144 C 
HETATM   20  N5  UNL     1      19.609  39.857  16.038  1.00  0.00    -0.341 N 
HETATM   21  C22 UNL     1      20.085  39.180  17.180  1.00  0.00     0.323 C 
ATOM     22  H5  UNL     1      18.633  40.063  15.824  1.00  0.00     0.164 HD
HETATM   23  O2  UNL     1      19.400  38.924  18.196  1.00  0.00    -0.247 OA
ENDBRANCH  12  17
BRANCH  14  24
HETATM   24  C25 UNL     1      24.880  37.597  20.469  1.00  0.00     0.268 C 
HETATM   25  O3  UNL     1      24.589  37.254  21.651  1.00  0.00    -0.266 OA
HETATM   26  N6  UNL     1      26.116  38.014  19.985  1.00  0.00    -0.354 N 
ATOM     27  H6  UNL     1      26.104  38.230  18.988  1.00  0.00     0.162 HD
BRANCH  26  28
HETATM   28  C26 UNL     1      27.387  38.202  20.581  1.00  0.00     0.149 C 
BRANCH  28  29
HETATM   29  C27 UNL     1      28.535  37.536  19.936  1.00  0.00     0.186 C 
BRANCH  29  30
HETATM   30  O4  UNL     1      28.634  36.200  20.083  1.00  0.00    -0.394 OA
HETATM   31  C28 UNL     1      29.102  35.831  21.352  1.00  0.00     0.201 C 
ENDBRANCH  29  30
ENDBRANCH  28  29
ENDBRANCH  26  28
ENDBRANCH  14  24
ENDBRANCH   7  11
BRANCH   6  32
HETATM   32  O1  UNL     1      22.452  34.652  15.780  1.00  0.00    -0.339 OA
HETATM   33  C16 UNL     1      23.452  33.749  16.010  1.00  0.00     0.211 C 
ENDBRANCH   6  32
BRANCH   1  34
HETATM   34  C3  UNL     1      16.893  35.062  17.986  1.00  0.00     0.018 C 
HETATM   35  C4  UNL     1      15.708  34.171  18.292  1.00  0.00     0.015 C 
BRANCH  34  36
HETATM   36  C2  UNL     1      16.348  36.406  17.618  1.00  0.00     0.004 C 
HETATM   37  C1  UNL     1      16.336  37.378  18.766  1.00  0.00     0.006 C 
ENDBRANCH  34  36
ENDBRANCH   1  34
BRANCH   3  38
HETATM   38  C8  UNL     1      18.121  32.016  14.227  1.00  0.00     0.312 C 
BRANCH  38  39
HETATM   39  N1  UNL     1      19.024  30.921  14.129  1.00  0.00     0.096 N 
HETATM   40  C9  UNL     1      18.284  29.684  14.161  1.00  0.00     0.303 C 
HETATM   41  C10 UNL     1      19.259  28.515  14.032  1.00  0.00     0.302 C 
HETATM   42  N2  UNL     1      19.842  28.618  12.726  1.00  0.00     0.087 N 
HETATM   43  C11 UNL     1      20.513  27.421  12.286  1.00  0.00     0.310 C 
HETATM   44  C12 UNL     1      20.628  29.805  12.647  1.00  0.00     0.302 C 
HETATM   45  C13 UNL     1      19.718  31.003  12.864  1.00  0.00     0.303 C 
ENDBRANCH  38  39
ENDBRANCH   3  38
TORSDOF 11
ENDMDL
MODEL 3
REMARK VINA RESULT: -7.871794831      0.740      1.005
REMARK  11 active torsions:
REMARK  status: ('A' for Active; 'I' for Inactive)
REMARK    1  A    between atoms: C2_2  and  C3_3 
REMARK    2  A    between atoms: C3_3  and  C5_5 
REMARK    3  A    between atoms: C7_7  and  C8_8 
REMARK    4  A    between atoms: C8_8  and  N1_9 
REMARK    5  A    between atoms: C15_18  and  O1_19 
REMARK    6  A    between atoms: C17_21  and  C18_22 
REMARK    7  A    between atoms: C19_23  and  N4_24 
REMARK    8  A    between atoms: C24_32  and  C25_33 
REMARK       I    between atoms: C25_33  and  N6_35 
REMARK    9  A    between atoms: N6_35  and  C26_37 
REMARK   10  A    between atoms: C26_37  and  C27_38 
REMARK   11  A    between atoms: C27_38  and  O4_39 
ROOT
HETATM    1  C5  UNL     1      21.846  27.328  11.333  1.00  0.00    -0.009 A 
HETATM    2  C6  UNL     1      22.131  28.388  12.139  1.00  0.00     0.021 A 
HETATM    3  C7  UNL     1      21.149  29.164  12.736  1.00  0.00    -0.013 A 
HETATM    4  C14 UNL     1      19.845  28.790  12.460  1.00  0.00     0.109 A 
HETATM    5  N3  UNL     1      19.525  27.748  11.667  1.00  0.00    -0.285 N 
HETATM    6  C15 UNL     1      18.294  27.253  11.290  1.00  0.00     0.179 A 
HETATM    7  C17 UNL     1      18.538  26.202  10.481  1.00  0.00     0.115 A 
HETATM    8  N8  UNL     1      19.881  26.083  10.387  1.00  0.00    -0.336 N 
ATOM      9  H8  UNL     1      20.355  25.369   9.835  1.00  0.00     0.168 HD
HETATM   10  C30 UNL     1      20.513  27.017  11.105  1.00  0.00     0.121 A 
ENDROOT
BRANCH   7  11
HETATM   11  C18 UNL     1      17.626  25.266   9.826  1.00  0.00     0.093 A 
HETATM   12  C19 UNL     1      17.477  25.225   8.424  1.00  0.00     0.070 A 
HETATM   13  C23 UNL     1      16.507  24.276   8.177  1.00  0.00     0.067 A 
HETATM   14  C24 UNL     1      16.075  23.757   9.353  1.00  0.00     0.105 A 
HETATM   15  N7  UNL     1      16.768  24.374  10.335  1.00  0.00    -0.343 N 
HETATM   16  C29 UNL     1      16.540  24.099  11.743  1.00  0.00     0.157 C 
BRANCH  12  17
HETATM   17  N4  UNL     1      18.198  26.012   7.499  1.00  0.00    -0.296 N 
HETATM   18  C20 UNL     1      17.933  27.382   7.134  1.00  0.00     0.153 C 
HETATM   19  C21 UNL     1      18.823  27.715   5.985  1.00  0.00     0.144 C 
HETATM   20  N5  UNL     1      19.804  26.667   5.960  1.00  0.00    -0.341 N 
HETATM   21  C22 UNL     1      19.316  25.602   6.745  1.00  0.00     0.323 C 
ATOM     22  H5  UNL     1      20.695  26.689   5.463  1.00  0.00     0.164 HD
HETATM   23  O2  UNL     1      19.806  24.450   6.770  1.00  0.00    -0.247 OA
ENDBRANCH  12  17
BRANCH  14  24
HETATM   24  C25 UNL     1      15.012  22.711   9.545  1.00  0.00     0.268 C 
HETATM   25  O3  UNL     1      15.393  21.513   9.399  1.00  0.00    -0.266 OA
HETATM   26  N6  UNL     1      13.735  23.164   9.861  1.00  0.00    -0.354 N 
ATOM     27  H6  UNL     1      13.676  24.179   9.933  1.00  0.00     0.162 HD
BRANCH  26  28
HETATM   28  C26 UNL     1      12.499  22.516  10.103  1.00  0.00     0.149 C 
BRANCH  28  29
HETATM   29  C27 UNL     1      11.991  22.538  11.488  1.00  0.00     0.186 C 
BRANCH  29  30
HETATM   30  O4  UNL     1      10.901  23.293  11.732  1.00  0.00    -0.394 OA
HETATM   31  C28 UNL     1      10.079  23.432  10.605  1.00  0.00     0.201 C 
ENDBRANCH  29  30
ENDBRANCH  28  29
ENDBRANCH  26  28
ENDBRANCH  14  24
ENDBRANCH   7  11
BRANCH   6  32
HETATM   32  O1  UNL     1      17.121  27.816  11.735  1.00  0.00    -0.339 OA
HETATM   33  C16 UNL     1      16.419  28.914  11.330  1.00  0.00     0.211 C 
ENDBRANCH   6  32
BRANCH   1  34
HETATM   34  C3  UNL     1      22.890  26.536  10.721  1.00  0.00     0.018 C 
HETATM   35  C4  UNL     1      22.988  25.105  11.205  1.00  0.00     0.015 C 
BRANCH  34  36
HETATM   36  C2  UNL     1      24.267  27.117  10.785  1.00  0.00     0.004 C 
HETATM   37  C1  UNL     1      25.094  26.562  11.913  1.00  0.00     0.006 C 
ENDBRANCH  34  36
ENDBRANCH   1  34
BRANCH   3  38
HETATM   38  C8  UNL     1      21.401  30.326  13.607  1.00  0.00     0.312 C 
BRANCH  38  39
HETATM   39  N1  UNL     1      20.281  30.810  14.340  1.00  0.00     0.096 N 
HETATM   40  C9  UNL     1      20.513  30.620  15.751  1.00  0.00     0.303 C 
HETATM   41  C10 UNL     1      19.316  31.163  16.531  1.00  0.00     0.302 C 
HETATM   42  N2  UNL     1      19.294  32.578  16.300  1.00  0.00     0.087 N 
HETATM   43  C11 UNL     1      18.463  33.310  17.223  1.00  0.00     0.310 C 
HETATM   44  C12 UNL     1      19.022  32.832  14.923  1.00  0.00     0.302 C 
HETATM   45  C13 UNL     1      20.139  32.226  14.090  1.00  0.00     0.303 C 
ENDBRANCH  38  39
ENDBRANCH   3  38
TORSDOF 11
ENDMDL
MODEL 4
REMARK VINA RESULT: -7.807780323      6.163     14.260
REMARK  11 active torsions:
REMARK  status: ('A' for Active; 'I' for Inactive)
REMARK    1  A    between atoms: C2_2  and  C3_3 
REMARK    2  A    between atoms: C3_3  and  C5_5 
REMARK    3  A    between atoms: C7_7  and  C8_8 
REMARK    4  A    between atoms: C8_8  and  N1_9 
REMARK    5  A    between atoms: C15_18  and  O1_19 
REMARK    6  A    between atoms: C17_21  and  C18_22 
REMARK    7  A    between atoms: C19_23  and  N4_24 
REMARK    8  A    between atoms: C24_32  and  C25_33 
REMARK       I    between atoms: C25_33  and  N6_35 
REMARK    9  A    between atoms: N6_35  and  C26_37 
REMARK   10  A    between atoms: C26_37  and  C27_38 
REMARK   11  A    between atoms: C27_38  and  O4_39 
ROOT
HETATM    1  C5  UNL     1      17.877  33.274  16.065  1.00  0.00    -0.009 A 
HETATM    2  C6  UNL     1      17.843  32.473  14.965  1.00  0.00     0.021 A 
HETATM    3  C7  UNL     1      18.956  32.241  14.168  1.00  0.00    -0.013 A 
HETATM    4  C14 UNL     1      20.116  32.881  14.567  1.00  0.00     0.109 A 
HETATM    5  N3  UNL     1      20.187  33.681  15.650  1.00  0.00    -0.285 N 
HETATM    6  C15 UNL     1      21.248  34.390  16.174  1.00  0.00     0.179 A 
HETATM    7  C17 UNL     1      20.776  35.034  17.260  1.00  0.00     0.115 A 
HETATM    8  N8  UNL     1      19.469  34.710  17.371  1.00  0.00    -0.336 N 
ATOM      9  H8  UNL     1      18.854  35.056  18.108  1.00  0.00     0.168 HD
HETATM   10  C30 UNL     1      19.079  33.881  16.398  1.00  0.00     0.121 A 
ENDROOT
BRANCH   7  11
HETATM   11  C18 UNL     1      21.453  35.888  18.234  1.00  0.00     0.093 A 
HETATM   12  C19 UNL     1      21.024  37.206  18.499  1.00  0.00     0.070 A 
HETATM   13  C23 UNL     1      21.920  37.716  19.415  1.00  0.00     0.067 A 
HETATM   14  C24 UNL     1      22.852  36.776  19.705  1.00  0.00     0.105 A 
HETATM   15  N7  UNL     1      22.547  35.679  18.977  1.00  0.00    -0.343 N 
HETATM   16  C29 UNL     1      23.359  34.475  18.999  1.00  0.00     0.157 C 
BRANCH  12  17
HETATM   17  N4  UNL     1      19.898  37.833  17.921  1.00  0.00    -0.296 N 
HETATM   18  C20 UNL     1      19.901  38.863  16.912  1.00  0.00     0.153 C 
HETATM   19  C21 UNL     1      18.498  39.349  16.769  1.00  0.00     0.144 C 
HETATM   20  N5  UNL     1      17.693  38.357  17.425  1.00  0.00    -0.341 N 
HETATM   21  C22 UNL     1      18.547  37.576  18.232  1.00  0.00     0.323 C 
ATOM     22  H5  UNL     1      16.685  38.239  17.325  1.00  0.00     0.164 HD
HETATM   23  O2  UNL     1      18.161  36.766  19.104  1.00  0.00    -0.247 OA
ENDBRANCH  12  17
BRANCH  14  24
HETATM   24  C25 UNL     1      24.022  36.918  20.639  1.00  0.00     0.268 C 
HETATM   25  O3  UNL     1      23.931  36.282  21.729  1.00  0.00    -0.266 OA
HETATM   26  N6  UNL     1      25.073  37.723  20.211  1.00  0.00    -0.354 N 
ATOM     27  H6  UNL     1      24.919  38.124  19.285  1.00  0.00     0.162 HD
BRANCH  26  28
HETATM   28  C26 UNL     1      26.309  38.106  20.785  1.00  0.00     0.149 C 
BRANCH  28  29
HETATM   29  C27 UNL     1      27.429  37.152  20.663  1.00  0.00     0.186 C 
BRANCH  29  30
HETATM   30  O4  UNL     1      27.343  36.009  21.373  1.00  0.00    -0.394 OA
HETATM   31  C28 UNL     1      28.539  35.277  21.362  1.00  0.00     0.201 C 
ENDBRANCH  29  30
ENDBRANCH  28  29
ENDBRANCH  26  28
ENDBRANCH  14  24
ENDBRANCH   7  11
BRANCH   6  32
HETATM   32  O1  UNL     1      22.498  34.350  15.600  1.00  0.00    -0.339 OA
HETATM   33  C16 UNL     1      23.461  33.382  15.567  1.00  0.00     0.211 C 
ENDBRANCH   6  32
BRANCH   1  34
HETATM   34  C3  UNL     1      16.701  33.501  16.876  1.00  0.00     0.018 C 
HETATM   35  C4  UNL     1      15.597  32.478  16.719  1.00  0.00     0.015 C 
BRANCH  34  36
HETATM   36  C2  UNL     1      16.071  34.852  16.741  1.00  0.00     0.004 C 
HETATM   37  C1  UNL     1      15.159  35.199  17.886  1.00  0.00     0.006 C 
ENDBRANCH  34  36
ENDBRANCH   1  34
BRANCH   3  38
HETATM   38  C8  UNL     1      18.973  31.392  12.963  1.00  0.00     0.312 C 
BRANCH  38  39
HETATM   39  N1  UNL     1      18.883  29.990  13.188  1.00  0.00     0.096 N 
HETATM   40  C9  UNL     1      17.675  29.484  12.582  1.00  0.00     0.303 C 
HETATM   41  C10 UNL     1      17.599  27.975  12.807  1.00  0.00     0.302 C 
HETATM   42  N2  UNL     1      18.698  27.403  12.086  1.00  0.00     0.087 N 
HETATM   43  C11 UNL     1      18.591  25.980  11.886  1.00  0.00     0.310 C 
HETATM   44  C12 UNL     1      19.926  27.833  12.670  1.00  0.00     0.302 C 
HETATM   45  C13 UNL     1      20.012  29.345  12.558  1.00  0.00     0.303 C 
ENDBRANCH  38  39
ENDBRANCH   3  38
TORSDOF 11
ENDMDL
MODEL 5
REMARK VINA RESULT: -7.804562885      6.222     12.060
REMARK  11 active torsions:
REMARK  status: ('A' for Active; 'I' for Inactive)
REMARK    1  A    between atoms: C2_2  and  C3_3 
REMARK    2  A    between atoms: C3_3  and  C5_5 
REMARK    3  A    between atoms: C7_7  and  C8_8 
REMARK    4  A    between atoms: C8_8  and  N1_9 
REMARK    5  A    between atoms: C15_18  and  O1_19 
REMARK    6  A    between atoms: C17_21  and  C18_22 
REMARK    7  A    between atoms: C19_23  and  N4_24 
REMARK    8  A    between atoms: C24_32  and  C25_33 
REMARK       I    between atoms: C25_33  and  N6_35 
REMARK    9  A    between atoms: N6_35  and  C26_37 
REMARK   10  A    between atoms: C26_37  and  C27_38 
REMARK   11  A    between atoms: C27_38  and  O4_39 
ROOT
HETATM    1  C5  UNL     1      22.174  38.368  17.091  1.00  0.00    -0.009 A 
HETATM    2  C6  UNL     1      22.958  38.749  18.138  1.00  0.00     0.021 A 
HETATM    3  C7  UNL     1      23.470  37.849  19.061  1.00  0.00    -0.013 A 
HETATM    4  C14 UNL     1      23.134  36.523  18.849  1.00  0.00     0.109 A 
HETATM    5  N3  UNL     1      22.361  36.109  17.825  1.00  0.00    -0.285 N 
HETATM    6  C15 UNL     1      21.931  34.845  17.480  1.00  0.00     0.179 A 
HETATM    7  C17 UNL     1      21.174  34.989  16.374  1.00  0.00     0.115 A 
HETATM    8  N8  UNL     1      21.161  36.307  16.076  1.00  0.00    -0.336 N 
ATOM      9  H8  UNL     1      20.663  36.710  15.283  1.00  0.00     0.168 HD
HETATM   10  C30 UNL     1      21.881  37.019  16.949  1.00  0.00     0.121 A 
ENDROOT
BRANCH   7  11
HETATM   11  C18 UNL     1      20.501  33.995  15.539  1.00  0.00     0.093 A 
HETATM   12  C19 UNL     1      19.117  33.745  15.643  1.00  0.00     0.070 A 
HETATM   13  C23 UNL     1      18.852  32.723  14.757  1.00  0.00     0.067 A 
HETATM   14  C24 UNL     1      20.000  32.355  14.137  1.00  0.00     0.105 A 
HETATM   15  N7  UNL     1      20.984  33.140  14.629  1.00  0.00    -0.343 N 
HETATM   16  C29 UNL     1      22.371  33.003  14.222  1.00  0.00     0.157 C 
BRANCH  12  17
HETATM   17  N4  UNL     1      18.222  34.429  16.496  1.00  0.00    -0.296 N 
HETATM   18  C20 UNL     1      18.252  34.463  17.937  1.00  0.00     0.153 C 
HETATM   19  C21 UNL     1      17.002  35.137  18.391  1.00  0.00     0.144 C 
HETATM   20  N5  UNL     1      16.477  35.776  17.217  1.00  0.00    -0.341 N 
HETATM   21  C22 UNL     1      17.116  35.207  16.097  1.00  0.00     0.323 C 
ATOM     22  H5  UNL     1      15.770  36.511  17.198  1.00  0.00     0.164 HD
HETATM   23  O2  UNL     1      16.753  35.367  14.909  1.00  0.00    -0.247 OA
ENDBRANCH  12  17
BRANCH  14  24
HETATM   24  C25 UNL     1      20.168  31.268  13.112  1.00  0.00     0.268 C 
HETATM   25  O3  UNL     1      20.519  31.654  11.960  1.00  0.00    -0.266 OA
HETATM   26  N6  UNL     1      19.923  29.965  13.534  1.00  0.00    -0.354 N 
ATOM     27  H6  UNL     1      19.660  29.904  14.517  1.00  0.00     0.162 HD
BRANCH  26  28
HETATM   28  C26 UNL     1      19.962  28.704  12.889  1.00  0.00     0.149 C 
BRANCH  28  29
HETATM   29  C27 UNL     1      18.768  28.310  12.116  1.00  0.00     0.186 C 
BRANCH  29  30
HETATM   30  O4  UNL     1      18.076  29.294  11.508  1.00  0.00    -0.394 OA
HETATM   31  C28 UNL     1      16.695  29.049  11.491  1.00  0.00     0.201 C 
ENDBRANCH  29  30
ENDBRANCH  28  29
ENDBRANCH  26  28
ENDBRANCH  14  24
ENDBRANCH   7  11
BRANCH   6  32
HETATM   32  O1  UNL     1      22.289  33.735  18.210  1.00  0.00    -0.339 OA
HETATM   33  C16 UNL     1      22.709  32.490  17.840  1.00  0.00     0.211 C 
ENDBRANCH   6  32
BRANCH   1  34
HETATM   34  C3  UNL     1      21.650  39.327  16.145  1.00  0.00     0.018 C 
HETATM   35  C4  UNL     1      22.526  40.536  15.893  1.00  0.00     0.015 C 
BRANCH  34  36
HETATM   36  C2  UNL     1      20.272  39.836  16.432  1.00  0.00     0.004 C 
HETATM   37  C1  UNL     1      20.090  41.288  16.085  1.00  0.00     0.006 C 
ENDBRANCH  34  36
ENDBRANCH   1  34
BRANCH   3  38
HETATM   38  C8  UNL     1      24.314  38.208  20.215  1.00  0.00     0.312 C 
BRANCH  38  39
HETATM   39  N1  UNL     1      25.642  37.696  20.199  1.00  0.00     0.096 N 
HETATM   40  C9  UNL     1      26.552  38.738  19.791  1.00  0.00     0.303 C 
HETATM   41  C10 UNL     1      27.977  38.187  19.800  1.00  0.00     0.302 C 
HETATM   42  N2  UNL     1      28.283  37.879  21.166  1.00  0.00     0.087 N 
HETATM   43  C11 UNL     1      29.687  37.684  21.424  1.00  0.00     0.310 C 
HETATM   44  C12 UNL     1      27.441  36.818  21.615  1.00  0.00     0.302 C 
HETATM   45  C13 UNL     1      25.996  37.282  21.537  1.00  0.00     0.303 C 
ENDBRANCH  38  39
ENDBRANCH   3  38
TORSDOF 11
ENDMDL
