MODEL 1
REMARK VINA RESULT: -7.303218801      0.000      0.000
REMARK  13 active torsions:
REMARK  status: ('A' for Active; 'I' for Inactive)
REMARK    1  A    between atoms: O1_2  and  N1_3 
REMARK    2  A    between atoms: C5_8  and  O3_9 
REMARK    3  A    between atoms: C16_23  and  O6_24 
REMARK    4  A    between atoms: O6_24  and  C17_25 
REMARK    5  A    between atoms: C17_25  and  C19_27 
REMARK       I    between atoms: C19_27  and  N2_29 
REMARK       I    between atoms: N2_29  and  C20_31 
REMARK    6  A    between atoms: C20_31  and  C21_33 
REMARK    7  A    between atoms: C21_33  and  C22_34 
REMARK    8  A    between atoms: C22_34  and  C23_35 
REMARK    9  A    between atoms: C23_35  and  C24_36 
REMARK   10  A    between atoms: C24_36  and  C25_37 
REMARK   11  A    between atoms: C25_37  and  C26_38 
REMARK   12  A    between atoms: C26_38  and  C27_39 
REMARK   13  A    between atoms: C27_39  and  S1_40 
ROOT
HETATM    1  N1  UNL     1      23.995  37.838  20.120  1.00  0.00    -0.218 N 
HETATM    2  C2  UNL     1      24.507  36.909  21.043  1.00  0.00     0.244 C 
HETATM    3  O2  UNL     1      25.111  37.199  22.102  1.00  0.00    -0.271 OA
HETATM    4  C3  UNL     1      24.152  35.626  20.445  1.00  0.00     0.120 C 
HETATM    5  C4  UNL     1      22.727  35.945  19.876  1.00  0.00     0.027 A 
HETATM    6  C5  UNL     1      21.646  35.446  20.688  1.00  0.00     0.135 A 
HETATM    7  C6  UNL     1      22.024  34.771  19.457  1.00  0.00     0.043 A 
HETATM    8  C7  UNL     1      21.371  34.584  18.187  1.00  0.00     0.096 C 
HETATM    9  C8  UNL     1      22.267  34.919  16.995  1.00  0.00     0.137 C 
HETATM   10  O4  UNL     1      23.171  34.188  16.680  1.00  0.00    -0.297 OA
HETATM   11  C9  UNL     1      22.017  36.152  16.225  1.00  0.00     0.111 C 
HETATM   12  C10 UNL     1      20.999  37.035  16.875  1.00  0.00     0.135 C 
HETATM   13  O5  UNL     1      20.199  36.518  17.841  1.00  0.00    -0.374 OA
HETATM   14  C11 UNL     1      20.033  35.146  17.848  1.00  0.00     0.065 C 
HETATM   15  C12 UNL     1      18.888  34.670  18.673  1.00  0.00     0.046 C 
HETATM   16  C13 UNL     1      19.723  34.673  16.413  1.00  0.00     0.046 C 
HETATM   17  C14 UNL     1      21.646  38.259  17.364  1.00  0.00     0.042 C 
HETATM   18  C15 UNL     1      22.803  38.760  16.484  1.00  0.00     0.015 C 
HETATM   19  C16 UNL     1      22.066  38.248  18.845  1.00  0.00     0.161 C 
HETATM   20  C29 UNL     1      22.990  37.180  19.230  1.00  0.00     0.159 C 
ENDROOT
BRANCH  19  21
HETATM   21  O6  UNL     1      21.016  38.556  19.601  1.00  0.00    -0.342 OA
BRANCH  21  22
HETATM   22  C17 UNL     1      20.335  39.708  19.536  1.00  0.00     0.111 C 
HETATM   23  C18 UNL     1      21.077  40.901  18.983  1.00  0.00     0.082 C 
BRANCH  22  24
HETATM   24  C19 UNL     1      18.942  39.634  19.035  1.00  0.00     0.276 C 
HETATM   25  O7  UNL     1      18.378  40.590  18.485  1.00  0.00    -0.265 OA
HETATM   26  N2  UNL     1      18.224  38.420  19.190  1.00  0.00    -0.292 N 
HETATM   27  C20 UNL     1      16.897  38.231  18.711  1.00  0.00     0.224 C 
ATOM     28  H2  UNL     1      18.681  37.644  19.669  1.00  0.00     0.172 HD
HETATM   29  O8  UNL     1      16.341  39.180  18.104  1.00  0.00    -0.273 OA
BRANCH  27  30
HETATM   30  C21 UNL     1      16.174  36.950  18.915  1.00  0.00     0.103 C 
BRANCH  30  31
HETATM   31  C22 UNL     1      15.756  36.360  17.599  1.00  0.00     0.009 C 
BRANCH  31  32
HETATM   32  C23 UNL     1      14.759  35.230  17.812  1.00  0.00     0.000 C 
BRANCH  32  33
HETATM   33  C24 UNL     1      15.443  33.899  17.698  1.00  0.00     0.000 C 
BRANCH  33  34
HETATM   34  C25 UNL     1      15.965  33.595  16.314  1.00  0.00     0.001 C 
BRANCH  34  35
HETATM   35  C26 UNL     1      16.554  32.225  16.206  1.00  0.00     0.010 C 
BRANCH  35  36
HETATM   36  C27 UNL     1      17.436  32.026  15.002  1.00  0.00     0.073 C 
BRANCH  36  37
HETATM   37  S1  UNL     1      18.795  30.908  15.217  1.00  0.00    -0.173 SA
HETATM   38  C28 UNL     1      19.527  30.931  16.846  1.00  0.00     0.089 C 
ENDBRANCH  36  37
ENDBRANCH  35  36
ENDBRANCH  34  35
ENDBRANCH  33  34
ENDBRANCH  32  33
ENDBRANCH  31  32
ENDBRANCH  30  31
ENDBRANCH  27  30
ENDBRANCH  22  24
ENDBRANCH  21  22
ENDBRANCH  19  21
BRANCH   1  39
HETATM   39  O1  UNL     1      24.334  39.159  20.007  1.00  0.00    -0.280 OA
HETATM   40  C1  UNL     1      25.609  39.295  19.462  1.00  0.00     0.238 C 
ENDBRANCH   1  39
BRANCH   6  41
HETATM   41  O3  UNL     1      20.453  36.106  20.910  1.00  0.00    -0.394 OA
ATOM     42  H3  UNL     1      19.599  35.692  20.940  1.00  0.00     0.210 HD
ENDBRANCH   6  41
TORSDOF 13
ENDMDL
MODEL 2
REMARK VINA RESULT: -7.169379929      8.021     12.451
REMARK  13 active torsions:
REMARK  status: ('A' for Active; 'I' for Inactive)
REMARK    1  A    between atoms: O1_2  and  N1_3 
REMARK    2  A    between atoms: C5_8  and  O3_9 
REMARK    3  A    between atoms: C16_23  and  O6_24 
REMARK    4  A    between atoms: O6_24  and  C17_25 
REMARK    5  A    between atoms: C17_25  and  C19_27 
REMARK       I    between atoms: C19_27  and  N2_29 
REMARK       I    between atoms: N2_29  and  C20_31 
REMARK    6  A    between atoms: C20_31  and  C21_33 
REMARK    7  A    between atoms: C21_33  and  C22_34 
REMARK    8  A    between atoms: C22_34  and  C23_35 
REMARK    9  A    between atoms: C23_35  and  C24_36 
REMARK   10  A    between atoms: C24_36  and  C25_37 
REMARK   11  A    between atoms: C25_37  and  C26_38 
REMARK   12  A    between atoms: C26_38  and  C27_39 
REMARK   13  A    between atoms: C27_39  and  S1_40 
ROOT
HETATM    1  N1  UNL     1      21.125  26.670  11.275  1.00  0.00    -0.218 N 
HETATM    2  C2  UNL     1      22.105  25.696  11.532  1.00  0.00     0.244 C 
HETATM    3  O2  UNL     1      23.137  25.872  12.221  1.00  0.00    -0.271 OA
HETATM    4  C3  UNL     1      21.600  24.528  10.818  1.00  0.00     0.120 C 
HETATM    5  C4  UNL     1      20.063  24.647  11.099  1.00  0.00     0.027 A 
HETATM    6  C5  UNL     1      19.585  23.761  12.130  1.00  0.00     0.135 A 
HETATM    7  C6  UNL     1      19.341  23.469  10.727  1.00  0.00     0.043 A 
HETATM    8  C7  UNL     1      18.152  23.427   9.915  1.00  0.00     0.096 C 
HETATM    9  C8  UNL     1      18.292  24.199   8.603  1.00  0.00     0.137 C 
HETATM   10  O4  UNL     1      18.967  23.767   7.704  1.00  0.00    -0.297 OA
HETATM   11  C9  UNL     1      17.589  25.485   8.443  1.00  0.00     0.111 C 
HETATM   12  C10 UNL     1      16.974  25.964   9.720  1.00  0.00     0.135 C 
HETATM   13  O5  UNL     1      16.817  25.089  10.744  1.00  0.00    -0.374 OA
HETATM   14  C11 UNL     1      16.787  23.745  10.420  1.00  0.00     0.065 C 
HETATM   15  C12 UNL     1      16.259  22.864  11.498  1.00  0.00     0.046 C 
HETATM   16  C13 UNL     1      15.832  23.540   9.225  1.00  0.00     0.046 C 
HETATM   17  C14 UNL     1      17.680  27.162  10.190  1.00  0.00     0.042 C 
HETATM   18  C15 UNL     1      18.188  28.081   9.068  1.00  0.00     0.015 C 
HETATM   19  C16 UNL     1      18.790  26.920  11.228  1.00  0.00     0.161 C 
HETATM   20  C29 UNL     1      19.863  26.020  10.804  1.00  0.00     0.159 C 
ENDROOT
BRANCH  19  21
HETATM   21  O6  UNL     1      18.246  26.821  12.438  1.00  0.00    -0.342 OA
BRANCH  21  22
HETATM   22  C17 UNL     1      17.866  27.858  13.196  1.00  0.00     0.111 C 
HETATM   23  C18 UNL     1      17.834  27.630  14.688  1.00  0.00     0.082 C 
BRANCH  22  24
HETATM   24  C19 UNL     1      18.429  29.184  12.845  1.00  0.00     0.276 C 
HETATM   25  O7  UNL     1      17.831  29.995  12.125  1.00  0.00    -0.265 OA
HETATM   26  N2  UNL     1      19.705  29.540  13.355  1.00  0.00    -0.292 N 
HETATM   27  C20 UNL     1      20.318  30.801  13.111  1.00  0.00     0.224 C 
ATOM     28  H2  UNL     1      20.207  28.859  13.924  1.00  0.00     0.172 HD
HETATM   29  O8  UNL     1      19.692  31.648  12.426  1.00  0.00    -0.273 OA
BRANCH  27  30
HETATM   30  C21 UNL     1      21.666  31.124  13.646  1.00  0.00     0.103 C 
BRANCH  30  31
HETATM   31  C22 UNL     1      21.828  30.586  15.039  1.00  0.00     0.009 C 
BRANCH  31  32
HETATM   32  C23 UNL     1      21.201  31.533  16.052  1.00  0.00     0.000 C 
BRANCH  32  33
HETATM   33  C24 UNL     1      20.088  30.847  16.790  1.00  0.00     0.000 C 
BRANCH  33  34
HETATM   34  C25 UNL     1      18.820  31.663  16.883  1.00  0.00     0.001 C 
BRANCH  34  35
HETATM   35  C26 UNL     1      17.717  31.116  16.035  1.00  0.00     0.010 C 
BRANCH  35  36
HETATM   36  C27 UNL     1      17.250  32.052  14.952  1.00  0.00     0.073 C 
BRANCH  36  37
HETATM   37  S1  UNL     1      17.947  33.682  14.986  1.00  0.00    -0.173 SA
HETATM   38  C28 UNL     1      16.775  34.985  15.325  1.00  0.00     0.089 C 
ENDBRANCH  36  37
ENDBRANCH  35  36
ENDBRANCH  34  35
ENDBRANCH  33  34
ENDBRANCH  32  33
ENDBRANCH  31  32
ENDBRANCH  30  31
ENDBRANCH  27  30
ENDBRANCH  22  24
ENDBRANCH  21  22
ENDBRANCH  19  21
BRANCH   1  39
HETATM   39  O1  UNL     1      21.254  28.025  11.416  1.00  0.00    -0.280 OA
HETATM   40  C1  UNL     1      22.568  28.422  11.177  1.00  0.00     0.238 C 
ENDBRANCH   1  39
BRANCH   6  41
HETATM   41  O3  UNL     1      18.621  24.082  13.065  1.00  0.00    -0.394 OA
ATOM     42  H3  UNL     1      17.685  24.097  12.900  1.00  0.00     0.210 HD
ENDBRANCH   6  41
TORSDOF 13
ENDMDL
MODEL 3
REMARK VINA RESULT: -7.021224514      7.936     12.444
REMARK  13 active torsions:
REMARK  status: ('A' for Active; 'I' for Inactive)
REMARK    1  A    between atoms: O1_2  and  N1_3 
REMARK    2  A    between atoms: C5_8  and  O3_9 
REMARK    3  A    between atoms: C16_23  and  O6_24 
REMARK    4  A    between atoms: O6_24  and  C17_25 
REMARK    5  A    between atoms: C17_25  and  C19_27 
REMARK       I    between atoms: C19_27  and  N2_29 
REMARK       I    between atoms: N2_29  and  C20_31 
REMARK    6  A    between atoms: C20_31  and  C21_33 
REMARK    7  A    between atoms: C21_33  and  C22_34 
REMARK    8  A    between atoms: C22_34  and  C23_35 
REMARK    9  A    between atoms: C23_35  and  C24_36 
REMARK   10  A    between atoms: C24_36  and  C25_37 
REMARK   11  A    between atoms: C25_37  and  C26_38 
REMARK   12  A    between atoms: C26_38  and  C27_39 
REMARK   13  A    between atoms: C27_39  and  S1_40 
ROOT
HETATM    1  N1  UNL     1      21.062  26.768  11.453  1.00  0.00    -0.218 N 
HETATM    2  C2  UNL     1      22.079  25.811  11.608  1.00  0.00     0.244 C 
HETATM    3  O2  UNL     1      23.120  25.965  12.289  1.00  0.00    -0.271 OA
HETATM    4  C3  UNL     1      21.597  24.690  10.809  1.00  0.00     0.120 C 
HETATM    5  C4  UNL     1      20.064  24.731  11.129  1.00  0.00     0.027 A 
HETATM    6  C5  UNL     1      19.638  23.748  12.093  1.00  0.00     0.135 A 
HETATM    7  C6  UNL     1      19.372  23.564  10.675  1.00  0.00     0.043 A 
HETATM    8  C7  UNL     1      18.167  23.547   9.886  1.00  0.00     0.096 C 
HETATM    9  C8  UNL     1      18.251  24.429   8.641  1.00  0.00     0.137 C 
HETATM   10  O4  UNL     1      18.920  24.097   7.696  1.00  0.00    -0.297 OA
HETATM   11  C9  UNL     1      17.503  25.700   8.602  1.00  0.00     0.111 C 
HETATM   12  C10 UNL     1      16.902  26.049   9.927  1.00  0.00     0.135 C 
HETATM   13  O5  UNL     1      16.797  25.088  10.877  1.00  0.00    -0.374 OA
HETATM   14  C11 UNL     1      16.804  23.775  10.443  1.00  0.00     0.065 C 
HETATM   15  C12 UNL     1      16.330  22.791  11.455  1.00  0.00     0.046 C 
HETATM   16  C13 UNL     1      15.830  23.637   9.255  1.00  0.00     0.046 C 
HETATM   17  C14 UNL     1      17.578  27.229  10.481  1.00  0.00     0.042 C 
HETATM   18  C15 UNL     1      18.031  28.254   9.429  1.00  0.00     0.015 C 
HETATM   19  C16 UNL     1      18.719  26.941  11.473  1.00  0.00     0.161 C 
HETATM   20  C29 UNL     1      19.812  26.116  10.954  1.00  0.00     0.159 C 
ENDROOT
BRANCH  19  21
HETATM   21  O6  UNL     1      18.207  26.724  12.681  1.00  0.00    -0.342 OA
BRANCH  21  22
HETATM   22  C17 UNL     1      17.722  27.674  13.491  1.00  0.00     0.111 C 
HETATM   23  C18 UNL     1      17.526  27.293  14.939  1.00  0.00     0.082 C 
BRANCH  22  24
HETATM   24  C19 UNL     1      18.292  29.034  13.343  1.00  0.00     0.276 C 
HETATM   25  O7  UNL     1      17.696  29.948  12.758  1.00  0.00    -0.265 OA
HETATM   26  N2  UNL     1      19.573  29.301  13.892  1.00  0.00    -0.292 N 
HETATM   27  C20 UNL     1      20.194  30.580  13.839  1.00  0.00     0.224 C 
ATOM     28  H2  UNL     1      20.074  28.537  14.348  1.00  0.00     0.172 HD
HETATM   29  O8  UNL     1      19.570  31.525  13.295  1.00  0.00    -0.273 OA
BRANCH  27  30
HETATM   30  C21 UNL     1      21.547  30.809  14.409  1.00  0.00     0.103 C 
BRANCH  30  31
HETATM   31  C22 UNL     1      22.192  32.011  13.780  1.00  0.00     0.009 C 
BRANCH  31  32
HETATM   32  C23 UNL     1      23.302  32.548  14.671  1.00  0.00     0.000 C 
BRANCH  32  33
HETATM   33  C24 UNL     1      22.802  32.744  16.072  1.00  0.00     0.000 C 
BRANCH  33  34
HETATM   34  C25 UNL     1      22.101  34.063  16.295  1.00  0.00     0.001 C 
BRANCH  34  35
HETATM   35  C26 UNL     1      20.837  33.922  17.078  1.00  0.00     0.010 C 
BRANCH  35  36
HETATM   36  C27 UNL     1      19.649  33.490  16.260  1.00  0.00     0.073 C 
BRANCH  36  37
HETATM   37  S1  UNL     1      18.724  32.121  16.904  1.00  0.00    -0.173 SA
HETATM   38  C28 UNL     1      17.235  31.736  15.996  1.00  0.00     0.089 C 
ENDBRANCH  36  37
ENDBRANCH  35  36
ENDBRANCH  34  35
ENDBRANCH  33  34
ENDBRANCH  32  33
ENDBRANCH  31  32
ENDBRANCH  30  31
ENDBRANCH  27  30
ENDBRANCH  22  24
ENDBRANCH  21  22
ENDBRANCH  19  21
BRANCH   1  39
HETATM   39  O1  UNL     1      21.149  28.112  11.703  1.00  0.00    -0.280 OA
HETATM   40  C1  UNL     1      22.361  28.620  11.241  1.00  0.00     0.238 C 
ENDBRANCH   1  39
BRANCH   6  41
HETATM   41  O3  UNL     1      18.686  23.957  13.070  1.00  0.00    -0.394 OA
ATOM     42  H3  UNL     1      18.366  23.294  13.671  1.00  0.00     0.210 HD
ENDBRANCH   6  41
TORSDOF 13
ENDMDL
MODEL 4
REMARK VINA RESULT: -6.940271990      8.136     13.158
REMARK  13 active torsions:
REMARK  status: ('A' for Active; 'I' for Inactive)
REMARK    1  A    between atoms: O1_2  and  N1_3 
REMARK    2  A    between atoms: C5_8  and  O3_9 
REMARK    3  A    between atoms: C16_23  and  O6_24 
REMARK    4  A    between atoms: O6_24  and  C17_25 
REMARK    5  A    between atoms: C17_25  and  C19_27 
REMARK       I    between atoms: C19_27  and  N2_29 
REMARK       I    between atoms: N2_29  and  C20_31 
REMARK    6  A    between atoms: C20_31  and  C21_33 
REMARK    7  A    between atoms: C21_33  and  C22_34 
REMARK    8  A    between atoms: C22_34  and  C23_35 
REMARK    9  A    between atoms: C23_35  and  C24_36 
REMARK   10  A    between atoms: C24_36  and  C25_37 
REMARK   11  A    between atoms: C25_37  and  C26_38 
REMARK   12  A    between atoms: C26_38  and  C27_39 
REMARK   13  A    between atoms: C27_39  and  S1_40 
ROOT
HETATM    1  N1  UNL     1      17.897  27.426  12.394  1.00  0.00    -0.218 N 
HETATM    2  C2  UNL     1      17.160  28.514  11.896  1.00  0.00     0.244 C 
HETATM    3  O2  UNL     1      17.207  29.685  12.340  1.00  0.00    -0.271 OA
HETATM    4  C3  UNL     1      16.393  27.918  10.807  1.00  0.00     0.120 C 
HETATM    5  C4  UNL     1      17.451  26.933  10.202  1.00  0.00     0.027 A 
HETATM    6  C5  UNL     1      18.082  27.415   8.999  1.00  0.00     0.135 A 
HETATM    7  C6  UNL     1      17.047  26.396   8.938  1.00  0.00     0.043 A 
HETATM    8  C7  UNL     1      17.047  25.003   8.571  1.00  0.00     0.096 C 
HETATM    9  C8  UNL     1      16.336  24.113   9.590  1.00  0.00     0.137 C 
HETATM   10  O4  UNL     1      15.135  24.126   9.688  1.00  0.00    -0.297 OA
HETATM   11  C9  UNL     1      17.134  23.230  10.461  1.00  0.00     0.111 C 
HETATM   12  C10 UNL     1      18.603  23.493  10.349  1.00  0.00     0.135 C 
HETATM   13  O5  UNL     1      19.066  24.208   9.294  1.00  0.00    -0.374 OA
HETATM   14  C11 UNL     1      18.266  24.248   8.167  1.00  0.00     0.065 C 
HETATM   15  C12 UNL     1      18.960  24.724   6.938  1.00  0.00     0.046 C 
HETATM   16  C13 UNL     1      17.792  22.818   7.838  1.00  0.00     0.046 C 
HETATM   17  C14 UNL     1      19.097  24.076  11.603  1.00  0.00     0.042 C 
HETATM   18  C15 UNL     1      18.397  23.551  12.867  1.00  0.00     0.015 C 
HETATM   19  C16 UNL     1      19.183  25.613  11.638  1.00  0.00     0.161 C 
HETATM   20  C29 UNL     1      17.925  26.319  11.389  1.00  0.00     0.159 C 
ENDROOT
BRANCH  19  21
HETATM   21  O6  UNL     1      20.318  26.002  11.063  1.00  0.00    -0.342 OA
BRANCH  21  22
HETATM   22  C17 UNL     1      21.448  26.296  11.717  1.00  0.00     0.111 C 
HETATM   23  C18 UNL     1      22.694  25.566  11.275  1.00  0.00     0.082 C 
BRANCH  22  24
HETATM   24  C19 UNL     1      21.708  27.729  11.994  1.00  0.00     0.276 C 
HETATM   25  O7  UNL     1      22.305  28.466  11.198  1.00  0.00    -0.265 OA
HETATM   26  N2  UNL     1      21.255  28.280  13.221  1.00  0.00    -0.292 N 
HETATM   27  C20 UNL     1      21.419  29.650  13.568  1.00  0.00     0.224 C 
ATOM     28  H2  UNL     1      20.789  27.664  13.887  1.00  0.00     0.172 HD
HETATM   29  O8  UNL     1      21.975  30.414  12.740  1.00  0.00    -0.273 OA
BRANCH  27  30
HETATM   30  C21 UNL     1      20.948  30.181  14.874  1.00  0.00     0.103 C 
BRANCH  30  31
HETATM   31  C22 UNL     1      19.477  30.479  14.827  1.00  0.00     0.009 C 
BRANCH  31  32
HETATM   32  C23 UNL     1      19.234  31.887  14.303  1.00  0.00     0.000 C 
BRANCH  32  33
HETATM   33  C24 UNL     1      17.859  32.356  14.679  1.00  0.00     0.000 C 
BRANCH  33  34
HETATM   34  C25 UNL     1      17.267  31.631  15.865  1.00  0.00     0.001 C 
BRANCH  34  35
HETATM   35  C26 UNL     1      15.970  32.221  16.315  1.00  0.00     0.010 C 
BRANCH  35  36
HETATM   36  C27 UNL     1      15.955  33.727  16.347  1.00  0.00     0.073 C 
BRANCH  36  37
HETATM   37  S1  UNL     1      15.500  34.462  17.895  1.00  0.00    -0.173 SA
HETATM   38  C28 UNL     1      15.472  36.247  17.891  1.00  0.00     0.089 C 
ENDBRANCH  36  37
ENDBRANCH  35  36
ENDBRANCH  34  35
ENDBRANCH  33  34
ENDBRANCH  32  33
ENDBRANCH  31  32
ENDBRANCH  30  31
ENDBRANCH  27  30
ENDBRANCH  22  24
ENDBRANCH  21  22
ENDBRANCH  19  21
BRANCH   1  39
HETATM   39  O1  UNL     1      18.514  27.339  13.613  1.00  0.00    -0.280 OA
HETATM   40  C1  UNL     1      17.574  27.320  14.641  1.00  0.00     0.238 C 
ENDBRANCH   1  39
BRANCH   6  41
HETATM   41  O3  UNL     1      19.412  27.233   8.675  1.00  0.00    -0.394 OA
ATOM     42  H3  UNL     1      19.873  26.403   8.712  1.00  0.00     0.210 HD
ENDBRANCH   6  41
TORSDOF 13
ENDMDL
MODEL 5
REMARK VINA RESULT: -6.756086327      8.677     13.815
REMARK  13 active torsions:
REMARK  status: ('A' for Active; 'I' for Inactive)
REMARK    1  A    between atoms: O1_2  and  N1_3 
REMARK    2  A    between atoms: C5_8  and  O3_9 
REMARK    3  A    between atoms: C16_23  and  O6_24 
REMARK    4  A    between atoms: O6_24  and  C17_25 
REMARK    5  A    between atoms: C17_25  and  C19_27 
REMARK       I    between atoms: C19_27  and  N2_29 
REMARK       I    between atoms: N2_29  and  C20_31 
REMARK    6  A    between atoms: C20_31  and  C21_33 
REMARK    7  A    between atoms: C21_33  and  C22_34 
REMARK    8  A    between atoms: C22_34  and  C23_35 
REMARK    9  A    between atoms: C23_35  and  C24_36 
REMARK   10  A    between atoms: C24_36  and  C25_37 
REMARK   11  A    between atoms: C25_37  and  C26_38 
REMARK   12  A    between atoms: C26_38  and  C27_39 
REMARK   13  A    between atoms: C27_39  and  S1_40 
ROOT
HETATM    1  N1  UNL     1      18.356  27.346  11.912  1.00  0.00    -0.218 N 
HETATM    2  C2  UNL     1      17.667  28.473  11.432  1.00  0.00     0.244 C 
HETATM    3  O2  UNL     1      17.875  29.656  11.789  1.00  0.00    -0.271 OA
HETATM    4  C3  UNL     1      16.723  27.896  10.480  1.00  0.00     0.120 C 
HETATM    5  C4  UNL     1      17.605  26.780   9.823  1.00  0.00     0.027 A 
HETATM    6  C5  UNL     1      18.126  27.132   8.526  1.00  0.00     0.135 A 
HETATM    7  C6  UNL     1      17.003  26.218   8.652  1.00  0.00     0.043 A 
HETATM    8  C7  UNL     1      16.831  24.813   8.380  1.00  0.00     0.096 C 
HETATM    9  C8  UNL     1      16.171  24.055   9.531  1.00  0.00     0.137 C 
HETATM   10  O4  UNL     1      14.997  24.192   9.766  1.00  0.00    -0.297 OA
HETATM   11  C9  UNL     1      16.985  23.146  10.360  1.00  0.00     0.111 C 
HETATM   12  C10 UNL     1      18.447  23.257  10.062  1.00  0.00     0.135 C 
HETATM   13  O5  UNL     1      18.842  23.864   8.916  1.00  0.00    -0.374 OA
HETATM   14  C11 UNL     1      17.918  23.922   7.888  1.00  0.00     0.065 C 
HETATM   15  C12 UNL     1      18.499  24.259   6.559  1.00  0.00     0.046 C 
HETATM   16  C13 UNL     1      17.280  22.529   7.711  1.00  0.00     0.046 C 
HETATM   17  C14 UNL     1      19.141  23.856  11.209  1.00  0.00     0.042 C 
HETATM   18  C15 UNL     1      18.554  23.472  12.578  1.00  0.00     0.015 C 
HETATM   19  C16 UNL     1      19.370  25.376  11.133  1.00  0.00     0.161 C 
HETATM   20  C29 UNL     1      18.162  26.189  10.985  1.00  0.00     0.159 C 
ENDROOT
BRANCH  19  21
HETATM   21  O6  UNL     1      20.458  25.620  10.406  1.00  0.00    -0.342 OA
BRANCH  21  22
HETATM   22  C17 UNL     1      21.688  25.176  10.693  1.00  0.00     0.111 C 
HETATM   23  C18 UNL     1      22.407  24.424   9.599  1.00  0.00     0.082 C 
BRANCH  22  24
HETATM   24  C19 UNL     1      22.586  26.111  11.412  1.00  0.00     0.276 C 
HETATM   25  O7  UNL     1      23.819  26.072  11.301  1.00  0.00    -0.265 OA
HETATM   26  N2  UNL     1      22.011  27.090  12.263  1.00  0.00    -0.292 N 
HETATM   27  C20 UNL     1      22.780  28.059  12.968  1.00  0.00     0.224 C 
ATOM     28  H2  UNL     1      20.997  27.102  12.374  1.00  0.00     0.172 HD
HETATM   29  O8  UNL     1      24.027  28.058  12.816  1.00  0.00    -0.273 OA
BRANCH  27  30
HETATM   30  C21 UNL     1      22.138  29.053  13.866  1.00  0.00     0.103 C 
BRANCH  30  31
HETATM   31  C22 UNL     1      21.892  30.345  13.140  1.00  0.00     0.009 C 
BRANCH  31  32
HETATM   32  C23 UNL     1      22.382  31.524  13.967  1.00  0.00     0.000 C 
BRANCH  32  33
HETATM   33  C24 UNL     1      21.288  32.538  14.133  1.00  0.00     0.000 C 
BRANCH  33  34
HETATM   34  C25 UNL     1      19.985  32.148  13.477  1.00  0.00     0.001 C 
BRANCH  34  35
HETATM   35  C26 UNL     1      18.791  32.683  14.198  1.00  0.00     0.010 C 
BRANCH  35  36
HETATM   36  C27 UNL     1      18.035  31.650  14.991  1.00  0.00     0.073 C 
BRANCH  36  37
HETATM   37  S1  UNL     1      18.512  31.478  16.690  1.00  0.00    -0.173 SA
HETATM   38  C28 UNL     1      19.966  30.475  16.957  1.00  0.00     0.089 C 
ENDBRANCH  36  37
ENDBRANCH  35  36
ENDBRANCH  34  35
ENDBRANCH  33  34
ENDBRANCH  32  33
ENDBRANCH  31  32
ENDBRANCH  30  31
ENDBRANCH  27  30
ENDBRANCH  22  24
ENDBRANCH  21  22
ENDBRANCH  19  21
BRANCH   1  39
HETATM   39  O1  UNL     1      19.106  27.265  13.054  1.00  0.00    -0.280 OA
HETATM   40  C1  UNL     1      18.365  27.673  14.160  1.00  0.00     0.238 C 
ENDBRANCH   1  39
BRANCH   6  41
HETATM   41  O3  UNL     1      19.385  26.802   8.063  1.00  0.00    -0.394 OA
ATOM     42  H3  UNL     1      19.933  27.363   7.528  1.00  0.00     0.210 HD
ENDBRANCH   6  41
TORSDOF 13
ENDMDL
