MODEL 1
REMARK VINA RESULT: -8.320207075      0.000      0.000
REMARK  14 active torsions:
REMARK  status: ('A' for Active; 'I' for Inactive)
REMARK    1  A    between atoms: C2_2  and  C3_3 
REMARK    2  A    between atoms: C5_7  and  N2_8 
REMARK    3  A    between atoms: C9_12  and  C10_13 
REMARK       I    between atoms: C10_13  and  N3_15 
REMARK    4  A    between atoms: N3_15  and  C11_16 
REMARK    5  A    between atoms: N3_15  and  C13_18 
REMARK    6  A    between atoms: C13_18  and  C14_19 
REMARK    7  A    between atoms: C14_19  and  O2_20 
REMARK    8  A    between atoms: C18_26  and  N5_27 
REMARK    9  A    between atoms: N5_27  and  C19_29 
REMARK   10  A    between atoms: C19_29  and  C20_30 
REMARK   11  A    between atoms: C20_30  and  N6_31 
REMARK   12  A    between atoms: N6_31  and  N7_33 
REMARK   13  A    between atoms: N7_33  and  N8_34 
REMARK   14  A    between atoms: C22_42  and  C23_43 
ROOT
HETATM    1  C3  UNL     1      20.261  23.358  19.368  1.00  0.00     0.037 A 
HETATM    2  N1  UNL     1      19.249  23.294  18.449  1.00  0.00    -0.352 N 
ATOM      3  H1  UNL     1      18.539  22.572  18.564  1.00  0.00     0.166 HD
HETATM    4  C4  UNL     1      19.142  24.128  17.408  1.00  0.00     0.122 A 
HETATM    5  C5  UNL     1      18.132  24.077  16.478  1.00  0.00     0.150 A 
HETATM    6  N4  UNL     1      18.065  24.942  15.441  1.00  0.00    -0.174 N 
ATOM      7  H4  UNL     1      17.297  24.867  14.774  1.00  0.00     0.186 HD
HETATM    8  C18 UNL     1      18.985  25.891  15.277  1.00  0.00     0.681 A 
HETATM    9  N9  UNL     1      19.984  25.963  16.172  1.00  0.00    -0.174 N 
ATOM     10  H9  UNL     1      20.693  26.686  16.053  1.00  0.00     0.186 HD
HETATM   11  C21 UNL     1      20.091  25.125  17.215  1.00  0.00     0.152 A 
HETATM   12  N10 UNL     1      21.083  25.193  18.112  1.00  0.00    -0.338 N 
ATOM     13  H10 UNL     1      21.793  25.916  17.997  1.00  0.00     0.167 HD
HETATM   14  C22 UNL     1      21.190  24.341  19.175  1.00  0.00     0.070 A 
ENDROOT
BRANCH   5  15
HETATM   15  N2  UNL     1      17.118  23.063  16.651  1.00  0.00    -0.365 N 
HETATM   16  C6  UNL     1      15.862  23.643  17.035  1.00  0.00     0.124 C 
HETATM   17  C7  UNL     1      15.364  23.340  18.391  1.00  0.00     0.021 C 
HETATM   18  C8  UNL     1      15.536  21.957  18.884  1.00  0.00     0.015 C 
HETATM   19  C9  UNL     1      15.542  20.949  17.723  1.00  0.00     0.080 C 
HETATM   20  C16 UNL     1      17.003  20.705  17.433  1.00  0.00     0.034 C 
HETATM   21  C17 UNL     1      17.473  21.707  16.411  1.00  0.00     0.125 C 
BRANCH  19  22
HETATM   22  C10 UNL     1      14.802  19.722  18.111  1.00  0.00     0.224 C 
HETATM   23  O1  UNL     1      15.419  18.835  18.761  1.00  0.00    -0.273 OA
HETATM   24  N3  UNL     1      13.445  19.531  17.773  1.00  0.00    -0.350 N 
BRANCH  24  25
HETATM   25  C11 UNL     1      12.692  20.519  17.045  1.00  0.00     0.121 C 
HETATM   26  C12 UNL     1      12.690  20.182  15.558  1.00  0.00     0.026 C 
ENDBRANCH  24  25
BRANCH  24  27
HETATM   27  C13 UNL     1      12.768  18.316  18.168  1.00  0.00     0.152 C 
BRANCH  27  28
HETATM   28  C14 UNL     1      11.402  18.666  18.700  1.00  0.00     0.186 C 
BRANCH  28  29
HETATM   29  O2  UNL     1      11.331  18.712  20.074  1.00  0.00    -0.394 OA
HETATM   30  C15 UNL     1      12.283  17.974  20.741  1.00  0.00     0.201 C 
ENDBRANCH  28  29
ENDBRANCH  27  28
ENDBRANCH  24  27
ENDBRANCH  19  22
ENDBRANCH   5  15
BRANCH   8  31
HETATM   31  N5  UNL     1      18.943  26.728  14.321  1.00  0.00    -0.224 N 
ATOM     32  H5  UNL     1      18.365  26.515  13.508  1.00  0.00     0.177 HD
BRANCH  31  33
HETATM   33  C19 UNL     1      19.670  27.948  14.342  1.00  0.00     0.160 C 
BRANCH  33  34
HETATM   34  C20 UNL     1      21.044  27.835  13.715  1.00  0.00     0.175 C 
BRANCH  34  35
HETATM   35  N6  UNL     1      22.038  28.168  14.717  1.00  0.00    -0.251 N 
ATOM     36  H6  UNL     1      22.200  29.136  14.992  1.00  0.00     0.197 HD
BRANCH  35  37
HETATM   37  N7  UNL     1      22.690  27.236  15.232  1.00  0.00    -0.249 NA
BRANCH  37  38
HETATM   38  N8  UNL     1      23.471  26.451  15.782  1.00  0.00    -0.261 N 
ATOM     39  H82 UNL     1      24.210  26.852  15.204  1.00  0.00     0.193 HD
ATOM     40  H81 UNL     1      23.986  25.753  16.318  1.00  0.00     0.193 HD
ENDBRANCH  37  38
ENDBRANCH  35  37
ENDBRANCH  34  35
ENDBRANCH  33  34
ENDBRANCH  31  33
ENDBRANCH   8  31
BRANCH   1  41
HETATM   41  C2  UNL     1      20.303  22.361  20.480  1.00  0.00     0.055 C 
HETATM   42  C1  UNL     1      18.955  21.671  20.635  1.00  0.00     0.011 C 
ENDBRANCH   1  41
BRANCH  14  43
HETATM   43  C23 UNL     1      22.332  24.539  20.058  1.00  0.00     0.036 A 
HETATM   44  C24 UNL     1      23.373  23.683  20.215  1.00  0.00     0.019 A 
HETATM   45  C25 UNL     1      24.391  23.923  21.104  1.00  0.00     0.018 A 
HETATM   46  C26 UNL     1      24.362  25.072  21.869  1.00  0.00     0.089 A 
HETATM   47  N11 UNL     1      23.328  25.936  21.722  1.00  0.00    -0.352 N 
HETATM   48  C27 UNL     1      22.342  25.688  20.851  1.00  0.00     0.113 A 
ATOM     49  H11 UNL     1      23.300  26.788  22.284  1.00  0.00     0.166 HD
HETATM   50  N12 UNL     1      21.352  26.532  20.714  1.00  0.00    -0.380 N 
HETATM   51  C28 UNL     1      21.285  27.742  21.495  1.00  0.00     0.147 C 
ATOM     52  H12 UNL     1      20.612  26.331  20.042  1.00  0.00     0.160 HD
ENDBRANCH  14  43
TORSDOF 14
ENDMDL
MODEL 2
REMARK VINA RESULT: -8.279045339      0.868      1.505
REMARK  14 active torsions:
REMARK  status: ('A' for Active; 'I' for Inactive)
REMARK    1  A    between atoms: C2_2  and  C3_3 
REMARK    2  A    between atoms: C5_7  and  N2_8 
REMARK    3  A    between atoms: C9_12  and  C10_13 
REMARK       I    between atoms: C10_13  and  N3_15 
REMARK    4  A    between atoms: N3_15  and  C11_16 
REMARK    5  A    between atoms: N3_15  and  C13_18 
REMARK    6  A    between atoms: C13_18  and  C14_19 
REMARK    7  A    between atoms: C14_19  and  O2_20 
REMARK    8  A    between atoms: C18_26  and  N5_27 
REMARK    9  A    between atoms: N5_27  and  C19_29 
REMARK   10  A    between atoms: C19_29  and  C20_30 
REMARK   11  A    between atoms: C20_30  and  N6_31 
REMARK   12  A    between atoms: N6_31  and  N7_33 
REMARK   13  A    between atoms: N7_33  and  N8_34 
REMARK   14  A    between atoms: C22_42  and  C23_43 
ROOT
HETATM    1  C3  UNL     1      19.269  24.082  19.737  1.00  0.00     0.037 A 
HETATM    2  N1  UNL     1      18.452  23.767  18.686  1.00  0.00    -0.352 N 
ATOM      3  H1  UNL     1      17.794  22.996  18.801  1.00  0.00     0.166 HD
HETATM    4  C4  UNL     1      18.468  24.415  17.515  1.00  0.00     0.122 A 
HETATM    5  C5  UNL     1      17.653  24.112  16.452  1.00  0.00     0.150 A 
HETATM    6  N4  UNL     1      17.705  24.796  15.287  1.00  0.00    -0.174 N 
ATOM      7  H4  UNL     1      17.081  24.535  14.524  1.00  0.00     0.186 HD
HETATM    8  C18 UNL     1      18.558  25.806  15.120  1.00  0.00     0.681 A 
HETATM    9  N9  UNL     1      19.367  26.124  16.145  1.00  0.00    -0.174 N 
ATOM     10  H9  UNL     1      20.023  26.895  16.025  1.00  0.00     0.186 HD
HETATM   11  C21 UNL     1      19.351  25.472  17.318  1.00  0.00     0.152 A 
HETATM   12  N10 UNL     1      20.152  25.785  18.343  1.00  0.00    -0.338 N 
ATOM     13  H10 UNL     1      20.809  26.556  18.227  1.00  0.00     0.167 HD
HETATM   14  C22 UNL     1      20.133  25.122  19.538  1.00  0.00     0.070 A 
ENDROOT
BRANCH   5  15
HETATM   15  N2  UNL     1      16.712  23.029  16.622  1.00  0.00    -0.365 N 
HETATM   16  C6  UNL     1      15.395  23.524  16.908  1.00  0.00     0.124 C 
HETATM   17  C7  UNL     1      14.845  23.247  18.249  1.00  0.00     0.021 C 
HETATM   18  C8  UNL     1      15.094  21.907  18.822  1.00  0.00     0.015 C 
HETATM   19  C9  UNL     1      15.245  20.849  17.716  1.00  0.00     0.080 C 
HETATM   20  C16 UNL     1      16.735  20.709  17.517  1.00  0.00     0.034 C 
HETATM   21  C17 UNL     1      17.184  21.696  16.471  1.00  0.00     0.125 C 
BRANCH  19  22
HETATM   22  C10 UNL     1      14.580  19.586  18.127  1.00  0.00     0.224 C 
HETATM   23  O1  UNL     1      15.269  18.721  18.733  1.00  0.00    -0.273 OA
HETATM   24  N3  UNL     1      13.218  19.338  17.856  1.00  0.00    -0.350 N 
BRANCH  24  25
HETATM   25  C11 UNL     1      12.386  20.299  17.180  1.00  0.00     0.121 C 
HETATM   26  C12 UNL     1      12.287  19.952  15.698  1.00  0.00     0.026 C 
ENDBRANCH  24  25
BRANCH  24  27
HETATM   27  C13 UNL     1      12.617  18.090  18.270  1.00  0.00     0.152 C 
BRANCH  27  28
HETATM   28  C14 UNL     1      11.290  18.378  18.925  1.00  0.00     0.186 C 
BRANCH  28  29
HETATM   29  O2  UNL     1      11.375  18.642  20.272  1.00  0.00    -0.394 OA
HETATM   30  C15 UNL     1      12.324  17.917  20.958  1.00  0.00     0.201 C 
ENDBRANCH  28  29
ENDBRANCH  27  28
ENDBRANCH  24  27
ENDBRANCH  19  22
ENDBRANCH   5  15
BRANCH   8  31
HETATM   31  N5  UNL     1      18.622  26.478  14.044  1.00  0.00    -0.224 N 
ATOM     32  H5  UNL     1      17.757  26.686  13.544  1.00  0.00     0.177 HD
BRANCH  31  33
HETATM   33  C19 UNL     1      19.851  26.948  13.509  1.00  0.00     0.160 C 
BRANCH  33  34
HETATM   34  C20 UNL     1      20.427  28.118  14.277  1.00  0.00     0.175 C 
BRANCH  34  35
HETATM   35  N6  UNL     1      21.867  27.963  14.346  1.00  0.00    -0.251 N 
ATOM     36  H6  UNL     1      22.488  28.613  13.864  1.00  0.00     0.197 HD
BRANCH  35  37
HETATM   37  N7  UNL     1      22.326  27.012  15.013  1.00  0.00    -0.249 NA
BRANCH  37  38
HETATM   38  N8  UNL     1      22.924  26.195  15.723  1.00  0.00    -0.261 N 
ATOM     39  H82 UNL     1      23.078  26.954  16.387  1.00  0.00     0.193 HD
ATOM     40  H81 UNL     1      23.382  25.414  16.192  1.00  0.00     0.193 HD
ENDBRANCH  37  38
ENDBRANCH  35  37
ENDBRANCH  34  35
ENDBRANCH  33  34
ENDBRANCH  31  33
ENDBRANCH   8  31
BRANCH   1  41
HETATM   41  C2  UNL     1      19.190  23.276  20.992  1.00  0.00     0.055 C 
HETATM   42  C1  UNL     1      18.641  21.886  20.705  1.00  0.00     0.011 C 
ENDBRANCH   1  41
BRANCH  14  43
HETATM   43  C23 UNL     1      21.074  25.578  20.552  1.00  0.00     0.036 A 
HETATM   44  C24 UNL     1      20.851  26.565  21.456  1.00  0.00     0.019 A 
HETATM   45  C25 UNL     1      21.809  26.967  22.353  1.00  0.00     0.018 A 
HETATM   46  C26 UNL     1      23.046  26.352  22.341  1.00  0.00     0.089 A 
HETATM   47  N11 UNL     1      23.282  25.365  21.443  1.00  0.00    -0.352 N 
HETATM   48  C27 UNL     1      22.337  24.984  20.574  1.00  0.00     0.113 A 
ATOM     49  H11 UNL     1      24.193  24.906  21.428  1.00  0.00     0.166 HD
HETATM   50  N12 UNL     1      22.575  24.025  19.716  1.00  0.00    -0.380 N 
HETATM   51  C28 UNL     1      23.853  23.360  19.671  1.00  0.00     0.147 C 
ATOM     52  H12 UNL     1      21.842  23.744  19.065  1.00  0.00     0.160 HD
ENDBRANCH  14  43
TORSDOF 14
ENDMDL
MODEL 3
REMARK VINA RESULT: -8.044915181      1.296      1.983
REMARK  14 active torsions:
REMARK  status: ('A' for Active; 'I' for Inactive)
REMARK    1  A    between atoms: C2_2  and  C3_3 
REMARK    2  A    between atoms: C5_7  and  N2_8 
REMARK    3  A    between atoms: C9_12  and  C10_13 
REMARK       I    between atoms: C10_13  and  N3_15 
REMARK    4  A    between atoms: N3_15  and  C11_16 
REMARK    5  A    between atoms: N3_15  and  C13_18 
REMARK    6  A    between atoms: C13_18  and  C14_19 
REMARK    7  A    between atoms: C14_19  and  O2_20 
REMARK    8  A    between atoms: C18_26  and  N5_27 
REMARK    9  A    between atoms: N5_27  and  C19_29 
REMARK   10  A    between atoms: C19_29  and  C20_30 
REMARK   11  A    between atoms: C20_30  and  N6_31 
REMARK   12  A    between atoms: N6_31  and  N7_33 
REMARK   13  A    between atoms: N7_33  and  N8_34 
REMARK   14  A    between atoms: C22_42  and  C23_43 
ROOT
HETATM    1  C3  UNL     1      20.084  23.072  19.609  1.00  0.00     0.037 A 
HETATM    2  N1  UNL     1      18.970  22.922  18.827  1.00  0.00    -0.352 N 
ATOM      3  H1  UNL     1      18.318  22.172  19.056  1.00  0.00     0.166 HD
HETATM    4  C4  UNL     1      18.691  23.705  17.779  1.00  0.00     0.122 A 
HETATM    5  C5  UNL     1      17.578  23.567  16.986  1.00  0.00     0.150 A 
HETATM    6  N4  UNL     1      17.337  24.384  15.936  1.00  0.00    -0.174 N 
ATOM      7  H4  UNL     1      16.498  24.244  15.374  1.00  0.00     0.186 HD
HETATM    8  C18 UNL     1      18.179  25.368  15.623  1.00  0.00     0.681 A 
HETATM    9  N9  UNL     1      19.276  25.525  16.382  1.00  0.00    -0.174 N 
ATOM     10  H9  UNL     1      19.926  26.276  16.150  1.00  0.00     0.186 HD
HETATM   11  C21 UNL     1      19.556  24.738  17.434  1.00  0.00     0.152 A 
HETATM   12  N10 UNL     1      20.646  24.890  18.195  1.00  0.00    -0.338 N 
ATOM     13  H10 UNL     1      21.297  25.640  17.966  1.00  0.00     0.167 HD
HETATM   14  C22 UNL     1      20.928  24.090  19.266  1.00  0.00     0.070 A 
ENDROOT
BRANCH   5  15
HETATM   15  N2  UNL     1      16.648  22.514  17.321  1.00  0.00    -0.365 N 
HETATM   16  C6  UNL     1      16.695  21.452  16.356  1.00  0.00     0.124 C 
HETATM   17  C7  UNL     1      15.498  21.247  15.517  1.00  0.00     0.021 C 
HETATM   18  C8  UNL     1      14.179  21.374  16.172  1.00  0.00     0.015 C 
HETATM   19  C9  UNL     1      14.261  21.001  17.662  1.00  0.00     0.080 C 
HETATM   20  C16 UNL     1      14.407  22.321  18.381  1.00  0.00     0.034 C 
HETATM   21  C17 UNL     1      15.871  22.652  18.504  1.00  0.00     0.125 C 
BRANCH  19  22
HETATM   22  C10 UNL     1      13.052  20.239  18.062  1.00  0.00     0.224 C 
HETATM   23  O1  UNL     1      11.991  20.414  17.403  1.00  0.00    -0.273 OA
HETATM   24  N3  UNL     1      13.064  19.338  19.148  1.00  0.00    -0.350 N 
BRANCH  24  25
HETATM   25  C11 UNL     1      14.252  19.091  19.924  1.00  0.00     0.121 C 
HETATM   26  C12 UNL     1      14.072  19.633  21.338  1.00  0.00     0.026 C 
ENDBRANCH  24  25
BRANCH  24  27
HETATM   27  C13 UNL     1      11.859  18.623  19.505  1.00  0.00     0.152 C 
BRANCH  27  28
HETATM   28  C14 UNL     1      12.096  17.144  19.330  1.00  0.00     0.186 C 
BRANCH  28  29
HETATM   29  O2  UNL     1      12.099  16.728  18.019  1.00  0.00    -0.394 OA
HETATM   30  C15 UNL     1      10.942  16.978  17.315  1.00  0.00     0.201 C 
ENDBRANCH  28  29
ENDBRANCH  27  28
ENDBRANCH  24  27
ENDBRANCH  19  22
ENDBRANCH   5  15
BRANCH   8  31
HETATM   31  N5  UNL     1      17.974  26.161  14.652  1.00  0.00    -0.224 N 
ATOM     32  H5  UNL     1      17.016  26.435  14.436  1.00  0.00     0.177 HD
BRANCH  31  33
HETATM   33  C19 UNL     1      19.030  26.681  13.855  1.00  0.00     0.160 C 
BRANCH  33  34
HETATM   34  C20 UNL     1      19.703  27.889  14.470  1.00  0.00     0.175 C 
BRANCH  34  35
HETATM   35  N6  UNL     1      21.137  27.754  14.305  1.00  0.00    -0.251 N 
ATOM     36  H6  UNL     1      21.677  28.466  13.814  1.00  0.00     0.197 HD
BRANCH  35  37
HETATM   37  N7  UNL     1      21.693  26.742  14.781  1.00  0.00    -0.249 NA
BRANCH  37  38
HETATM   38  N8  UNL     1      22.401  25.799  15.152  1.00  0.00    -0.261 N 
ATOM     39  H82 UNL     1      22.392  26.218  16.082  1.00  0.00     0.193 HD
ATOM     40  H81 UNL     1      22.976  24.970  15.306  1.00  0.00     0.193 HD
ENDBRANCH  37  38
ENDBRANCH  35  37
ENDBRANCH  34  35
ENDBRANCH  33  34
ENDBRANCH  31  33
ENDBRANCH   8  31
BRANCH   1  41
HETATM   41  C2  UNL     1      20.315  22.125  20.741  1.00  0.00     0.055 C 
HETATM   42  C1  UNL     1      19.017  21.440  21.144  1.00  0.00     0.011 C 
ENDBRANCH   1  41
BRANCH  14  43
HETATM   43  C23 UNL     1      22.159  24.379  19.990  1.00  0.00     0.036 A 
HETATM   44  C24 UNL     1      23.243  23.567  20.071  1.00  0.00     0.019 A 
HETATM   45  C25 UNL     1      24.350  23.894  20.813  1.00  0.00     0.018 A 
HETATM   46  C26 UNL     1      24.368  25.089  21.507  1.00  0.00     0.089 A 
HETATM   47  N11 UNL     1      23.292  25.909  21.435  1.00  0.00    -0.352 N 
HETATM   48  C27 UNL     1      22.219  25.575  20.706  1.00  0.00     0.113 A 
ATOM     49  H11 UNL     1      23.298  26.793  21.944  1.00  0.00     0.166 HD
HETATM   50  N12 UNL     1      21.188  26.379  20.640  1.00  0.00    -0.380 N 
HETATM   51  C28 UNL     1      21.169  27.633  21.349  1.00  0.00     0.147 C 
ATOM     52  H12 UNL     1      20.383  26.112  20.076  1.00  0.00     0.160 HD
ENDBRANCH  14  43
TORSDOF 14
ENDMDL
MODEL 4
REMARK VINA RESULT: -7.893669858      1.438      2.346
REMARK  14 active torsions:
REMARK  status: ('A' for Active; 'I' for Inactive)
REMARK    1  A    between atoms: C2_2  and  C3_3 
REMARK    2  A    between atoms: C5_7  and  N2_8 
REMARK    3  A    between atoms: C9_12  and  C10_13 
REMARK       I    between atoms: C10_13  and  N3_15 
REMARK    4  A    between atoms: N3_15  and  C11_16 
REMARK    5  A    between atoms: N3_15  and  C13_18 
REMARK    6  A    between atoms: C13_18  and  C14_19 
REMARK    7  A    between atoms: C14_19  and  O2_20 
REMARK    8  A    between atoms: C18_26  and  N5_27 
REMARK    9  A    between atoms: N5_27  and  C19_29 
REMARK   10  A    between atoms: C19_29  and  C20_30 
REMARK   11  A    between atoms: C20_30  and  N6_31 
REMARK   12  A    between atoms: N6_31  and  N7_33 
REMARK   13  A    between atoms: N7_33  and  N8_34 
REMARK   14  A    between atoms: C22_42  and  C23_43 
ROOT
HETATM    1  C3  UNL     1      20.984  23.790  19.862  1.00  0.00     0.037 A 
HETATM    2  N1  UNL     1      19.950  23.701  18.969  1.00  0.00    -0.352 N 
ATOM      3  H1  UNL     1      19.265  22.957  19.099  1.00  0.00     0.166 HD
HETATM    4  C4  UNL     1      19.791  24.535  17.935  1.00  0.00     0.122 A 
HETATM    5  C5  UNL     1      18.759  24.459  17.032  1.00  0.00     0.150 A 
HETATM    6  N4  UNL     1      18.639  25.326  16.002  1.00  0.00    -0.174 N 
ATOM      7  H4  UNL     1      17.857  25.230  15.354  1.00  0.00     0.186 HD
HETATM    8  C18 UNL     1      19.527  26.302  15.818  1.00  0.00     0.681 A 
HETATM    9  N9  UNL     1      20.546  26.400  16.687  1.00  0.00    -0.174 N 
ATOM     10  H9  UNL     1      21.230  27.144  16.553  1.00  0.00     0.186 HD
HETATM   11  C21 UNL     1      20.706  25.562  17.723  1.00  0.00     0.152 A 
HETATM   12  N10 UNL     1      21.718  25.655  18.594  1.00  0.00    -0.338 N 
ATOM     13  H10 UNL     1      22.403  26.398  18.464  1.00  0.00     0.167 HD
HETATM   14  C22 UNL     1      21.878  24.802  19.649  1.00  0.00     0.070 A 
ENDROOT
BRANCH   5  15
HETATM   15  N2  UNL     1      17.781  23.414  17.226  1.00  0.00    -0.365 N 
HETATM   16  C6  UNL     1      17.947  22.360  16.266  1.00  0.00     0.124 C 
HETATM   17  C7  UNL     1      16.874  22.178  15.268  1.00  0.00     0.021 C 
HETATM   18  C8  UNL     1      15.479  22.315  15.740  1.00  0.00     0.015 C 
HETATM   19  C9  UNL     1      15.353  21.929  17.223  1.00  0.00     0.080 C 
HETATM   20  C16 UNL     1      15.414  23.240  17.968  1.00  0.00     0.034 C 
HETATM   21  C17 UNL     1      16.851  23.552  18.294  1.00  0.00     0.125 C 
BRANCH  19  22
HETATM   22  C10 UNL     1      14.092  21.178  17.446  1.00  0.00     0.224 C 
HETATM   23  O1  UNL     1      13.126  21.388  16.663  1.00  0.00    -0.273 OA
HETATM   24  N3  UNL     1      13.953  20.250  18.501  1.00  0.00    -0.350 N 
BRANCH  24  25
HETATM   25  C11 UNL     1      15.029  19.964  19.413  1.00  0.00     0.121 C 
HETATM   26  C12 UNL     1      14.877  20.801  20.679  1.00  0.00     0.026 C 
ENDBRANCH  24  25
BRANCH  24  27
HETATM   27  C13 UNL     1      12.703  19.548  18.683  1.00  0.00     0.152 C 
BRANCH  27  28
HETATM   28  C14 UNL     1      12.927  18.076  18.444  1.00  0.00     0.186 C 
BRANCH  28  29
HETATM   29  O2  UNL     1      12.835  17.304  19.579  1.00  0.00    -0.394 OA
HETATM   30  C15 UNL     1      12.127  17.863  20.619  1.00  0.00     0.201 C 
ENDBRANCH  28  29
ENDBRANCH  27  28
ENDBRANCH  24  27
ENDBRANCH  19  22
ENDBRANCH   5  15
BRANCH   8  31
HETATM   31  N5  UNL     1      19.434  27.141  14.868  1.00  0.00    -0.224 N 
ATOM     32  H5  UNL     1      18.684  27.029  14.186  1.00  0.00     0.177 HD
BRANCH  31  33
HETATM   33  C19 UNL     1      20.336  28.229  14.720  1.00  0.00     0.160 C 
BRANCH  33  34
HETATM   34  C20 UNL     1      21.592  27.863  13.957  1.00  0.00     0.175 C 
BRANCH  34  35
HETATM   35  N6  UNL     1      22.743  28.205  14.769  1.00  0.00    -0.251 N 
ATOM     36  H6  UNL     1      23.105  29.159  14.791  1.00  0.00     0.197 HD
BRANCH  35  37
HETATM   37  N7  UNL     1      23.280  27.301  15.442  1.00  0.00    -0.249 NA
BRANCH  37  38
HETATM   38  N8  UNL     1      23.891  26.348  15.939  1.00  0.00    -0.261 N 
ATOM     39  H82 UNL     1      23.258  25.734  15.428  1.00  0.00     0.193 HD
ATOM     40  H81 UNL     1      24.487  25.675  16.421  1.00  0.00     0.193 HD
ENDBRANCH  37  38
ENDBRANCH  35  37
ENDBRANCH  34  35
ENDBRANCH  33  34
ENDBRANCH  31  33
ENDBRANCH   8  31
BRANCH   1  41
HETATM   41  C2  UNL     1      21.084  22.790  20.967  1.00  0.00     0.055 C 
HETATM   42  C1  UNL     1      19.959  21.770  20.873  1.00  0.00     0.011 C 
ENDBRANCH   1  41
BRANCH  14  43
HETATM   43  C23 UNL     1      23.036  25.030  20.503  1.00  0.00     0.036 A 
HETATM   44  C24 UNL     1      23.144  25.990  21.456  1.00  0.00     0.019 A 
HETATM   45  C25 UNL     1      24.291  26.169  22.189  1.00  0.00     0.018 A 
HETATM   46  C26 UNL     1      25.377  25.348  21.954  1.00  0.00     0.089 A 
HETATM   47  N11 UNL     1      25.282  24.385  21.006  1.00  0.00    -0.352 N 
HETATM   48  C27 UNL     1      24.156  24.223  20.298  1.00  0.00     0.113 A 
ATOM     49  H11 UNL     1      26.080  23.774  20.827  1.00  0.00     0.166 HD
HETATM   50  N12 UNL     1      24.076  23.286  19.389  1.00  0.00    -0.380 N 
HETATM   51  C28 UNL     1      25.186  22.410  19.114  1.00  0.00     0.147 C 
ATOM     52  H12 UNL     1      23.209  23.173  18.864  1.00  0.00     0.160 HD
ENDBRANCH  14  43
TORSDOF 14
ENDMDL
MODEL 5
REMARK VINA RESULT: -7.857226223      1.330      2.176
REMARK  14 active torsions:
REMARK  status: ('A' for Active; 'I' for Inactive)
REMARK    1  A    between atoms: C2_2  and  C3_3 
REMARK    2  A    between atoms: C5_7  and  N2_8 
REMARK    3  A    between atoms: C9_12  and  C10_13 
REMARK       I    between atoms: C10_13  and  N3_15 
REMARK    4  A    between atoms: N3_15  and  C11_16 
REMARK    5  A    between atoms: N3_15  and  C13_18 
REMARK    6  A    between atoms: C13_18  and  C14_19 
REMARK    7  A    between atoms: C14_19  and  O2_20 
REMARK    8  A    between atoms: C18_26  and  N5_27 
REMARK    9  A    between atoms: N5_27  and  C19_29 
REMARK   10  A    between atoms: C19_29  and  C20_30 
REMARK   11  A    between atoms: C20_30  and  N6_31 
REMARK   12  A    between atoms: N6_31  and  N7_33 
REMARK   13  A    between atoms: N7_33  and  N8_34 
REMARK   14  A    between atoms: C22_42  and  C23_43 
ROOT
HETATM    1  C3  UNL     1      19.653  24.250  19.771  1.00  0.00     0.037 A 
HETATM    2  N1  UNL     1      18.866  23.992  18.682  1.00  0.00    -0.352 N 
ATOM      3  H1  UNL     1      18.234  23.193  18.723  1.00  0.00     0.166 HD
HETATM    4  C4  UNL     1      18.881  24.730  17.565  1.00  0.00     0.122 A 
HETATM    5  C5  UNL     1      18.097  24.484  16.465  1.00  0.00     0.150 A 
HETATM    6  N4  UNL     1      18.147  25.258  15.358  1.00  0.00    -0.174 N 
ATOM      7  H4  UNL     1      17.546  25.037  14.564  1.00  0.00     0.186 HD
HETATM    8  C18 UNL     1      18.967  26.305  15.288  1.00  0.00     0.681 A 
HETATM    9  N9  UNL     1      19.746  26.569  16.350  1.00  0.00    -0.174 N 
ATOM     10  H9  UNL     1      20.378  27.368  16.305  1.00  0.00     0.186 HD
HETATM   11  C21 UNL     1      19.731  25.827  17.469  1.00  0.00     0.152 A 
HETATM   12  N10 UNL     1      20.502  26.085  18.532  1.00  0.00    -0.338 N 
ATOM     13  H10 UNL     1      21.135  26.885  18.490  1.00  0.00     0.167 HD
HETATM   14  C22 UNL     1      20.484  25.331  19.671  1.00  0.00     0.070 A 
ENDROOT
BRANCH   5  15
HETATM   15  N2  UNL     1      17.191  23.360  16.531  1.00  0.00    -0.365 N 
HETATM   16  C6  UNL     1      17.382  22.472  15.420  1.00  0.00     0.124 C 
HETATM   17  C7  UNL     1      16.282  22.369  14.440  1.00  0.00     0.021 C 
HETATM   18  C8  UNL     1      14.901  22.345  14.969  1.00  0.00     0.015 C 
HETATM   19  C9  UNL     1      14.858  21.737  16.381  1.00  0.00     0.080 C 
HETATM   20  C16 UNL     1      14.871  22.925  17.312  1.00  0.00     0.034 C 
HETATM   21  C17 UNL     1      16.299  23.279  17.635  1.00  0.00     0.125 C 
BRANCH  19  22
HETATM   22  C10 UNL     1      13.654  20.881  16.529  1.00  0.00     0.224 C 
HETATM   23  O1  UNL     1      12.646  21.144  15.819  1.00  0.00    -0.273 OA
HETATM   24  N3  UNL     1      13.615  19.798  17.433  1.00  0.00    -0.350 N 
BRANCH  24  25
HETATM   25  C11 UNL     1      14.745  19.448  18.255  1.00  0.00     0.121 C 
HETATM   26  C12 UNL     1      14.866  17.931  18.356  1.00  0.00     0.026 C 
ENDBRANCH  24  25
BRANCH  24  27
HETATM   27  C13 UNL     1      12.417  18.997  17.546  1.00  0.00     0.152 C 
BRANCH  27  28
HETATM   28  C14 UNL     1      11.563  19.547  18.660  1.00  0.00     0.186 C 
BRANCH  28  29
HETATM   29  O2  UNL     1      11.138  18.599  19.562  1.00  0.00    -0.394 OA
HETATM   30  C15 UNL     1      12.005  18.339  20.600  1.00  0.00     0.201 C 
ENDBRANCH  28  29
ENDBRANCH  27  28
ENDBRANCH  24  27
ENDBRANCH  19  22
ENDBRANCH   5  15
BRANCH   8  31
HETATM   31  N5  UNL     1      19.028  27.061  14.268  1.00  0.00    -0.224 N 
ATOM     32  H5  UNL     1      18.415  26.866  13.477  1.00  0.00     0.177 HD
BRANCH  31  33
HETATM   33  C19 UNL     1      19.917  28.166  14.188  1.00  0.00     0.160 C 
BRANCH  33  34
HETATM   34  C20 UNL     1      21.293  27.789  13.682  1.00  0.00     0.175 C 
BRANCH  34  35
HETATM   35  N6  UNL     1      22.271  28.141  14.694  1.00  0.00    -0.251 N 
ATOM     36  H6  UNL     1      22.566  29.109  14.822  1.00  0.00     0.197 HD
BRANCH  35  37
HETATM   37  N7  UNL     1      22.741  27.228  15.403  1.00  0.00    -0.249 NA
BRANCH  37  38
HETATM   38  N8  UNL     1      23.270  26.247  15.937  1.00  0.00    -0.261 N 
ATOM     39  H82 UNL     1      22.333  25.937  16.194  1.00  0.00     0.193 HD
ATOM     40  H81 UNL     1      23.847  25.502  16.328  1.00  0.00     0.193 HD
ENDBRANCH  37  38
ENDBRANCH  35  37
ENDBRANCH  34  35
ENDBRANCH  33  34
ENDBRANCH  31  33
ENDBRANCH   8  31
BRANCH   1  41
HETATM   41  C2  UNL     1      19.579  23.347  20.958  1.00  0.00     0.055 C 
HETATM   42  C1  UNL     1      19.967  21.925  20.578  1.00  0.00     0.011 C 
ENDBRANCH   1  41
BRANCH  14  43
HETATM   43  C23 UNL     1      21.390  25.737  20.738  1.00  0.00     0.036 A 
HETATM   44  C24 UNL     1      21.117  26.643  21.710  1.00  0.00     0.019 A 
HETATM   45  C25 UNL     1      22.044  27.005  22.655  1.00  0.00     0.018 A 
HETATM   46  C26 UNL     1      23.301  26.433  22.622  1.00  0.00     0.089 A 
HETATM   47  N11 UNL     1      23.587  25.527  21.656  1.00  0.00    -0.352 N 
HETATM   48  C27 UNL     1      22.671  25.184  20.740  1.00  0.00     0.113 A 
ATOM     49  H11 UNL     1      24.513  25.099  21.625  1.00  0.00     0.166 HD
HETATM   50  N12 UNL     1      22.958  24.303  19.816  1.00  0.00    -0.380 N 
HETATM   51  C28 UNL     1      24.258  23.684  19.747  1.00  0.00     0.147 C 
ATOM     52  H12 UNL     1      22.247  24.049  19.131  1.00  0.00     0.160 HD
ENDBRANCH  14  43
TORSDOF 14
ENDMDL
