MODEL 1
REMARK VINA RESULT: -9.402141029      0.000      0.000
REMARK  12 active torsions:
REMARK  status: ('A' for Active; 'I' for Inactive)
REMARK    1  A    between atoms: O1_2  and  C2_3 
REMARK    2  A    between atoms: C5_8  and  N2_9 
REMARK    3  A    between atoms: N2_9  and  C6_11 
REMARK    4  A    between atoms: C6_11  and  C7_12 
REMARK    5  A    between atoms: N3_13  and  C9_15 
REMARK    6  A    between atoms: C9_15  and  C10_16 
REMARK    7  A    between atoms: C10_16  and  C11_17 
REMARK    8  A    between atoms: C11_17  and  N4_18 
REMARK    9  A    between atoms: C14_21  and  C15_22 
REMARK   10  A    between atoms: C21_34  and  N8_35 
REMARK   11  A    between atoms: N8_35  and  C22_36 
REMARK   12  A    between atoms: C30_45  and  O2_46 
ROOT
HETATM    1  C2  UNL     1      15.776  22.498  14.932  1.00  0.00     0.103 A 
HETATM    2  C3  UNL     1      16.405  23.175  15.939  1.00  0.00     0.070 A 
HETATM    3  C4  UNL     1      16.353  22.695  17.254  1.00  0.00     0.067 A 
HETATM    4  N1  UNL     1      16.995  23.327  18.277  1.00  0.00    -0.191 N 
ATOM      5  H1  UNL     1      17.519  24.183  18.094  1.00  0.00     0.184 HD
HETATM    6  C5  UNL     1      16.944  22.824  19.547  1.00  0.00     0.685 A 
HETATM    7  N7  UNL     1      16.269  21.715  19.805  1.00  0.00    -0.163 N 
ATOM      8  H7  UNL     1      16.254  21.367  20.764  1.00  0.00     0.187 HD
HETATM    9  C21 UNL     1      15.592  21.017  18.849  1.00  0.00     0.205 A 
HETATM   10  C28 UNL     1      15.665  21.545  17.543  1.00  0.00     0.053 A 
HETATM   11  C29 UNL     1      15.011  20.825  16.545  1.00  0.00     0.058 A 
HETATM   12  C30 UNL     1      15.079  21.304  15.286  1.00  0.00     0.102 A 
ENDROOT
BRANCH   6  13
HETATM   13  N2  UNL     1      17.534  23.485  20.515  1.00  0.00    -0.200 N 
ATOM     14  H2  UNL     1      16.897  24.008  21.117  1.00  0.00     0.183 HD
BRANCH  13  15
HETATM   15  C6  UNL     1      18.866  23.597  20.861  1.00  0.00     0.123 C 
BRANCH  15  16
HETATM   16  C7  UNL     1      19.552  24.888  20.433  1.00  0.00     0.102 C 
HETATM   17  N3  UNL     1      20.364  24.859  19.342  1.00  0.00    -0.393 N 
HETATM   18  C8  UNL     1      21.585  24.177  19.375  1.00  0.00     0.148 C 
BRANCH  17  19
HETATM   19  C9  UNL     1      20.234  25.726  18.236  1.00  0.00     0.123 C 
BRANCH  19  20
HETATM   20  C10 UNL     1      19.841  25.094  16.963  1.00  0.00     0.050 C 
BRANCH  20  21
HETATM   21  C11 UNL     1      19.304  25.886  15.853  1.00  0.00     0.274 C 
BRANCH  21  22
HETATM   22  N4  UNL     1      20.160  26.564  14.941  1.00  0.00     0.088 N 
HETATM   23  C12 UNL     1      21.371  25.774  14.714  1.00  0.00     0.273 C 
HETATM   24  C13 UNL     1      22.579  26.148  15.478  1.00  0.00     0.042 C 
HETATM   25  C14 UNL     1      22.842  27.646  15.176  1.00  0.00     0.057 C 
HETATM   26  C19 UNL     1      21.697  28.340  15.844  1.00  0.00     0.042 C 
HETATM   27  C20 UNL     1      20.415  27.932  15.131  1.00  0.00     0.273 C 
BRANCH  25  28
HETATM   28  C15 UNL     1      24.144  28.091  15.642  1.00  0.00     0.085 A 
HETATM   29  N5  UNL     1      24.295  29.323  16.248  1.00  0.00    -0.355 N 
HETATM   30  C16 UNL     1      25.518  29.650  16.711  1.00  0.00     0.090 A 
ATOM     31  H5  UNL     1      23.507  29.964  16.342  1.00  0.00     0.166 HD
HETATM   32  C17 UNL     1      26.607  28.872  16.633  1.00  0.00     0.034 A 
HETATM   33  C18 UNL     1      26.458  27.596  16.007  1.00  0.00     0.090 A 
HETATM   34  N6  UNL     1      25.223  27.323  15.565  1.00  0.00    -0.355 N 
ATOM     35  H6  UNL     1      25.098  26.415  15.116  1.00  0.00     0.166 HD
ENDBRANCH  25  28
ENDBRANCH  21  22
ENDBRANCH  20  21
ENDBRANCH  19  20
ENDBRANCH  17  19
ENDBRANCH  15  16
ENDBRANCH  13  15
ENDBRANCH   6  13
BRANCH   9  36
HETATM   36  N8  UNL     1      14.805  20.114  19.045  1.00  0.00    -0.394 NA
BRANCH  36  37
HETATM   37  C22 UNL     1      13.964  19.127  19.283  1.00  0.00     0.071 C 
HETATM   38  C23 UNL     1      14.248  17.705  18.787  1.00  0.00     0.088 C 
HETATM   39  C24 UNL     1      12.849  17.188  18.395  1.00  0.00     0.128 C 
HETATM   40  N9  UNL     1      12.015  17.210  19.538  1.00  0.00    -0.397 N 
HETATM   41  C25 UNL     1      10.640  17.562  19.222  1.00  0.00     0.148 C 
HETATM   42  C26 UNL     1      12.477  17.763  20.750  1.00  0.00     0.064 C 
HETATM   43  C27 UNL     1      13.308  19.002  20.677  1.00  0.00     0.112 C 
ENDBRANCH  36  37
ENDBRANCH   9  36
BRANCH   1  44
HETATM   44  O1  UNL     1      15.727  22.813  13.625  1.00  0.00    -0.353 OA
HETATM   45  C1  UNL     1      16.203  23.848  12.891  1.00  0.00     0.210 C 
ENDBRANCH   1  44
BRANCH  12  46
HETATM   46  O2  UNL     1      14.477  20.623  14.265  1.00  0.00    -0.353 OA
HETATM   47  C31 UNL     1      13.164  20.189  14.212  1.00  0.00     0.210 C 
ENDBRANCH  12  46
TORSDOF 12
ENDMDL
MODEL 2
REMARK VINA RESULT: -9.378832621      3.544     11.360
REMARK  12 active torsions:
REMARK  status: ('A' for Active; 'I' for Inactive)
REMARK    1  A    between atoms: O1_2  and  C2_3 
REMARK    2  A    between atoms: C5_8  and  N2_9 
REMARK    3  A    between atoms: N2_9  and  C6_11 
REMARK    4  A    between atoms: C6_11  and  C7_12 
REMARK    5  A    between atoms: N3_13  and  C9_15 
REMARK    6  A    between atoms: C9_15  and  C10_16 
REMARK    7  A    between atoms: C10_16  and  C11_17 
REMARK    8  A    between atoms: C11_17  and  N4_18 
REMARK    9  A    between atoms: C14_21  and  C15_22 
REMARK   10  A    between atoms: C21_34  and  N8_35 
REMARK   11  A    between atoms: N8_35  and  C22_36 
REMARK   12  A    between atoms: C30_45  and  O2_46 
ROOT
HETATM    1  C2  UNL     1      19.376  27.005  14.705  1.00  0.00     0.103 A 
HETATM    2  C3  UNL     1      18.491  26.342  13.902  1.00  0.00     0.070 A 
HETATM    3  C4  UNL     1      17.690  25.319  14.426  1.00  0.00     0.067 A 
HETATM    4  N1  UNL     1      16.774  24.659  13.661  1.00  0.00    -0.191 N 
ATOM      5  H1  UNL     1      16.673  24.898  12.674  1.00  0.00     0.184 HD
HETATM    6  C5  UNL     1      15.991  23.680  14.204  1.00  0.00     0.685 A 
HETATM    7  N7  UNL     1      16.108  23.355  15.482  1.00  0.00    -0.163 N 
ATOM      8  H7  UNL     1      15.506  22.622  15.855  1.00  0.00     0.187 HD
HETATM    9  C21 UNL     1      16.998  23.957  16.324  1.00  0.00     0.205 A 
HETATM   10  C28 UNL     1      17.791  24.971  15.748  1.00  0.00     0.053 A 
HETATM   11  C29 UNL     1      18.679  25.623  16.600  1.00  0.00     0.058 A 
HETATM   12  C30 UNL     1      19.438  26.608  16.074  1.00  0.00     0.102 A 
ENDROOT
BRANCH   6  13
HETATM   13  N2  UNL     1      15.155  23.033  13.427  1.00  0.00    -0.200 N 
ATOM     14  H2  UNL     1      15.600  22.508  12.674  1.00  0.00     0.183 HD
BRANCH  13  15
HETATM   15  C6  UNL     1      13.778  22.937  13.452  1.00  0.00     0.123 C 
BRANCH  15  16
HETATM   16  C7  UNL     1      13.202  21.979  14.487  1.00  0.00     0.102 C 
HETATM   17  N3  UNL     1      13.754  20.742  14.602  1.00  0.00    -0.393 N 
HETATM   18  C8  UNL     1      13.605  19.792  13.587  1.00  0.00     0.148 C 
BRANCH  17  19
HETATM   19  C9  UNL     1      14.229  20.198  15.816  1.00  0.00     0.123 C 
BRANCH  19  20
HETATM   20  C10 UNL     1      13.753  20.856  17.047  1.00  0.00     0.050 C 
BRANCH  20  21
HETATM   21  C11 UNL     1      13.462  20.084  18.259  1.00  0.00     0.274 C 
BRANCH  21  22
HETATM   22  N4  UNL     1      12.127  19.779  18.643  1.00  0.00     0.088 N 
HETATM   23  C12 UNL     1      12.128  18.704  19.637  1.00  0.00     0.273 C 
HETATM   24  C13 UNL     1      11.860  17.333  19.155  1.00  0.00     0.042 C 
HETATM   25  C14 UNL     1      10.500  17.387  18.414  1.00  0.00     0.057 C 
HETATM   26  C19 UNL     1      10.801  18.203  17.196  1.00  0.00     0.042 C 
HETATM   27  C20 UNL     1      11.150  19.615  17.648  1.00  0.00     0.273 C 
BRANCH  25  28
HETATM   28  C15 UNL     1       9.974  16.067  18.114  1.00  0.00     0.085 A 
HETATM   29  N5  UNL     1       8.708  15.699  18.528  1.00  0.00    -0.355 N 
HETATM   30  C16 UNL     1       8.257  14.481  18.166  1.00  0.00     0.090 A 
ATOM     31  H5  UNL     1       8.134  16.328  19.090  1.00  0.00     0.166 HD
HETATM   32  C17 UNL     1       8.939  13.592  17.430  1.00  0.00     0.034 A 
HETATM   33  C18 UNL     1      10.249  13.965  16.998  1.00  0.00     0.090 A 
HETATM   34  N6  UNL     1      10.647  15.185  17.386  1.00  0.00    -0.355 N 
ATOM     35  H6  UNL     1      11.580  15.469  17.085  1.00  0.00     0.166 HD
ENDBRANCH  25  28
ENDBRANCH  21  22
ENDBRANCH  20  21
ENDBRANCH  19  20
ENDBRANCH  17  19
ENDBRANCH  15  16
ENDBRANCH  13  15
ENDBRANCH   6  13
BRANCH   9  36
HETATM   36  N8  UNL     1      17.292  23.583  17.440  1.00  0.00    -0.394 NA
BRANCH  36  37
HETATM   37  C22 UNL     1      17.581  23.171  18.659  1.00  0.00     0.071 C 
HETATM   38  C23 UNL     1      17.730  24.162  19.818  1.00  0.00     0.088 C 
HETATM   39  C24 UNL     1      18.880  23.556  20.647  1.00  0.00     0.128 C 
HETATM   40  N9  UNL     1      18.502  22.263  21.080  1.00  0.00    -0.397 N 
HETATM   41  C25 UNL     1      19.618  21.331  21.102  1.00  0.00     0.148 C 
HETATM   42  C26 UNL     1      17.291  21.688  20.644  1.00  0.00     0.064 C 
HETATM   43  C27 UNL     1      16.890  21.909  19.223  1.00  0.00     0.112 C 
ENDBRANCH  36  37
ENDBRANCH   9  36
BRANCH   1  44
HETATM   44  O1  UNL     1      20.213  28.005  14.370  1.00  0.00    -0.353 OA
HETATM   45  C1  UNL     1      21.477  28.046  13.882  1.00  0.00     0.210 C 
ENDBRANCH   1  44
BRANCH  12  46
HETATM   46  O2  UNL     1      20.307  27.298  16.872  1.00  0.00    -0.353 OA
HETATM   47  C31 UNL     1      21.105  26.781  17.878  1.00  0.00     0.210 C 
ENDBRANCH  12  46
TORSDOF 12
ENDMDL
MODEL 3
REMARK VINA RESULT: -9.299995388      1.963      4.435
REMARK  12 active torsions:
REMARK  status: ('A' for Active; 'I' for Inactive)
REMARK    1  A    between atoms: O1_2  and  C2_3 
REMARK    2  A    between atoms: C5_8  and  N2_9 
REMARK    3  A    between atoms: N2_9  and  C6_11 
REMARK    4  A    between atoms: C6_11  and  C7_12 
REMARK    5  A    between atoms: N3_13  and  C9_15 
REMARK    6  A    between atoms: C9_15  and  C10_16 
REMARK    7  A    between atoms: C10_16  and  C11_17 
REMARK    8  A    between atoms: C11_17  and  N4_18 
REMARK    9  A    between atoms: C14_21  and  C15_22 
REMARK   10  A    between atoms: C21_34  and  N8_35 
REMARK   11  A    between atoms: N8_35  and  C22_36 
REMARK   12  A    between atoms: C30_45  and  O2_46 
ROOT
HETATM    1  C2  UNL     1      13.231  19.430  20.039  1.00  0.00     0.103 A 
HETATM    2  C3  UNL     1      14.345  19.914  20.667  1.00  0.00     0.070 A 
HETATM    3  C4  UNL     1      15.156  20.865  20.035  1.00  0.00     0.067 A 
HETATM    4  N1  UNL     1      16.256  21.392  20.645  1.00  0.00    -0.191 N 
ATOM      5  H1  UNL     1      16.513  21.080  21.581  1.00  0.00     0.184 HD
HETATM    6  C5  UNL     1      17.017  22.334  20.013  1.00  0.00     0.685 A 
HETATM    7  N7  UNL     1      16.701  22.751  18.797  1.00  0.00    -0.163 N 
ATOM      8  H7  UNL     1      17.289  23.457  18.355  1.00  0.00     0.187 HD
HETATM    9  C21 UNL     1      15.623  22.279  18.106  1.00  0.00     0.205 A 
HETATM   10  C28 UNL     1      14.843  21.314  18.779  1.00  0.00     0.053 A 
HETATM   11  C29 UNL     1      13.716  20.848  18.104  1.00  0.00     0.058 A 
HETATM   12  C30 UNL     1      12.948  19.935  18.735  1.00  0.00     0.102 A 
ENDROOT
BRANCH   6  13
HETATM   13  N2  UNL     1      18.095  22.783  20.610  1.00  0.00    -0.200 N 
ATOM     14  H2  UNL     1      18.781  22.064  20.839  1.00  0.00     0.183 HD
BRANCH  13  15
HETATM   15  C6  UNL     1      18.464  24.061  20.983  1.00  0.00     0.123 C 
BRANCH  15  16
HETATM   16  C7  UNL     1      19.108  24.906  19.891  1.00  0.00     0.102 C 
HETATM   17  N3  UNL     1      19.994  24.311  19.049  1.00  0.00    -0.393 N 
HETATM   18  C8  UNL     1      21.244  23.884  19.508  1.00  0.00     0.148 C 
BRANCH  17  19
HETATM   19  C9  UNL     1      19.893  24.348  17.641  1.00  0.00     0.123 C 
BRANCH  19  20
HETATM   20  C10 UNL     1      19.182  25.510  17.076  1.00  0.00     0.050 C 
BRANCH  20  21
HETATM   21  C11 UNL     1      18.976  25.648  15.631  1.00  0.00     0.274 C 
BRANCH  21  22
HETATM   22  N4  UNL     1      19.794  26.504  14.843  1.00  0.00     0.088 N 
HETATM   23  C12 UNL     1      20.989  25.783  14.400  1.00  0.00     0.273 C 
HETATM   24  C13 UNL     1      22.233  25.994  15.169  1.00  0.00     0.042 C 
HETATM   25  C14 UNL     1      22.491  27.523  15.174  1.00  0.00     0.057 C 
HETATM   26  C19 UNL     1      21.382  28.058  16.024  1.00  0.00     0.042 C 
HETATM   27  C20 UNL     1      20.066  27.803  15.302  1.00  0.00     0.273 C 
BRANCH  25  28
HETATM   28  C15 UNL     1      23.815  27.865  15.662  1.00  0.00     0.085 A 
HETATM   29  N5  UNL     1      24.095  29.140  16.114  1.00  0.00    -0.355 N 
HETATM   30  C16 UNL     1      25.326  29.376  16.610  1.00  0.00     0.090 A 
ATOM     31  H5  UNL     1      23.393  29.879  16.074  1.00  0.00     0.166 HD
HETATM   32  C17 UNL     1      26.308  28.468  16.702  1.00  0.00     0.034 A 
HETATM   33  C18 UNL     1      26.027  27.147  16.236  1.00  0.00     0.090 A 
HETATM   34  N6  UNL     1      24.789  26.968  15.754  1.00  0.00    -0.355 N 
ATOM     35  H6  UNL     1      24.569  26.030  15.418  1.00  0.00     0.166 HD
ENDBRANCH  25  28
ENDBRANCH  21  22
ENDBRANCH  20  21
ENDBRANCH  19  20
ENDBRANCH  17  19
ENDBRANCH  15  16
ENDBRANCH  13  15
ENDBRANCH   6  13
BRANCH   9  36
HETATM   36  N8  UNL     1      15.387  22.469  16.931  1.00  0.00    -0.394 NA
BRANCH  36  37
HETATM   37  C22 UNL     1      15.160  22.674  15.648  1.00  0.00     0.071 C 
HETATM   38  C23 UNL     1      13.917  23.434  15.173  1.00  0.00     0.088 C 
HETATM   39  C24 UNL     1      13.528  22.689  13.880  1.00  0.00     0.128 C 
HETATM   40  N9  UNL     1      14.602  22.771  12.962  1.00  0.00    -0.397 N 
HETATM   41  C25 UNL     1      14.756  21.562  12.169  1.00  0.00     0.148 C 
HETATM   42  C26 UNL     1      15.826  23.358  13.343  1.00  0.00     0.064 C 
HETATM   43  C27 UNL     1      16.328  23.084  14.723  1.00  0.00     0.112 C 
ENDBRANCH  36  37
ENDBRANCH   9  36
BRANCH   1  44
HETATM   44  O1  UNL     1      12.348  18.524  20.497  1.00  0.00    -0.353 OA
HETATM   45  C1  UNL     1      12.388  17.181  20.674  1.00  0.00     0.210 C 
ENDBRANCH   1  44
BRANCH  12  46
HETATM   46  O2  UNL     1      11.817  19.463  18.130  1.00  0.00    -0.353 OA
HETATM   47  C31 UNL     1      11.504  19.524  16.782  1.00  0.00     0.210 C 
ENDBRANCH  12  46
TORSDOF 12
ENDMDL
MODEL 4
REMARK VINA RESULT: -9.136884370      1.666      3.013
REMARK  12 active torsions:
REMARK  status: ('A' for Active; 'I' for Inactive)
REMARK    1  A    between atoms: O1_2  and  C2_3 
REMARK    2  A    between atoms: C5_8  and  N2_9 
REMARK    3  A    between atoms: N2_9  and  C6_11 
REMARK    4  A    between atoms: C6_11  and  C7_12 
REMARK    5  A    between atoms: N3_13  and  C9_15 
REMARK    6  A    between atoms: C9_15  and  C10_16 
REMARK    7  A    between atoms: C10_16  and  C11_17 
REMARK    8  A    between atoms: C11_17  and  N4_18 
REMARK    9  A    between atoms: C14_21  and  C15_22 
REMARK   10  A    between atoms: C21_34  and  N8_35 
REMARK   11  A    between atoms: N8_35  and  C22_36 
REMARK   12  A    between atoms: C30_45  and  O2_46 
ROOT
HETATM    1  C2  UNL     1      16.164  22.914  14.606  1.00  0.00     0.103 A 
HETATM    2  C3  UNL     1      16.636  23.738  15.589  1.00  0.00     0.070 A 
HETATM    3  C4  UNL     1      16.517  23.372  16.936  1.00  0.00     0.067 A 
HETATM    4  N1  UNL     1      17.005  24.155  17.941  1.00  0.00    -0.191 N 
ATOM      5  H1  UNL     1      17.456  25.041  17.717  1.00  0.00     0.184 HD
HETATM    6  C5  UNL     1      16.894  23.761  19.244  1.00  0.00     0.685 A 
HETATM    7  N7  UNL     1      16.311  22.615  19.555  1.00  0.00    -0.163 N 
ATOM      8  H7  UNL     1      16.248  22.351  20.539  1.00  0.00     0.187 HD
HETATM    9  C21 UNL     1      15.790  21.768  18.621  1.00  0.00     0.205 A 
HETATM   10  C28 UNL     1      15.923  22.186  17.280  1.00  0.00     0.053 A 
HETATM   11  C29 UNL     1      15.430  21.316  16.308  1.00  0.00     0.058 A 
HETATM   12  C30 UNL     1      15.559  21.689  15.018  1.00  0.00     0.102 A 
ENDROOT
BRANCH   6  13
HETATM   13  N2  UNL     1      17.331  24.563  20.187  1.00  0.00    -0.200 N 
ATOM     14  H2  UNL     1      16.685  25.312  20.437  1.00  0.00     0.183 HD
BRANCH  13  15
HETATM   15  C6  UNL     1      18.513  24.568  20.901  1.00  0.00     0.123 C 
BRANCH  15  16
HETATM   16  C7  UNL     1      19.418  23.361  20.687  1.00  0.00     0.102 C 
HETATM   17  N3  UNL     1      20.601  23.544  20.041  1.00  0.00    -0.393 N 
HETATM   18  C8  UNL     1      20.632  23.855  18.678  1.00  0.00     0.148 C 
BRANCH  17  19
HETATM   19  C9  UNL     1      21.853  23.146  20.557  1.00  0.00     0.123 C 
BRANCH  19  20
HETATM   20  C10 UNL     1      22.946  24.127  20.426  1.00  0.00     0.050 C 
BRANCH  20  21
HETATM   21  C11 UNL     1      22.885  25.430  21.094  1.00  0.00     0.274 C 
BRANCH  21  22
HETATM   22  N4  UNL     1      23.082  26.643  20.377  1.00  0.00     0.088 N 
HETATM   23  C12 UNL     1      21.794  27.298  20.141  1.00  0.00     0.273 C 
HETATM   24  C13 UNL     1      21.167  27.105  18.818  1.00  0.00     0.042 C 
HETATM   25  C14 UNL     1      22.211  27.564  17.767  1.00  0.00     0.057 C 
HETATM   26  C19 UNL     1      23.286  26.528  17.872  1.00  0.00     0.042 C 
HETATM   27  C20 UNL     1      23.921  26.643  19.251  1.00  0.00     0.273 C 
BRANCH  25  28
HETATM   28  C15 UNL     1      21.646  27.685  16.434  1.00  0.00     0.085 A 
HETATM   29  N5  UNL     1      22.439  28.043  15.361  1.00  0.00    -0.355 N 
HETATM   30  C16 UNL     1      21.867  28.079  14.141  1.00  0.00     0.090 A 
ATOM     31  H5  UNL     1      23.425  28.272  15.487  1.00  0.00     0.166 HD
HETATM   32  C17 UNL     1      20.583  27.793  13.881  1.00  0.00     0.034 A 
HETATM   33  C18 UNL     1      19.757  27.423  14.987  1.00  0.00     0.090 A 
HETATM   34  N6  UNL     1      20.376  27.403  16.175  1.00  0.00    -0.355 N 
ATOM     35  H6  UNL     1      19.802  27.139  16.976  1.00  0.00     0.166 HD
ENDBRANCH  25  28
ENDBRANCH  21  22
ENDBRANCH  20  21
ENDBRANCH  19  20
ENDBRANCH  17  19
ENDBRANCH  15  16
ENDBRANCH  13  15
ENDBRANCH   6  13
BRANCH   9  36
HETATM   36  N8  UNL     1      15.080  20.809  18.841  1.00  0.00    -0.394 NA
BRANCH  36  37
HETATM   37  C22 UNL     1      14.323  19.762  19.107  1.00  0.00     0.071 C 
HETATM   38  C23 UNL     1      14.565  18.413  18.422  1.00  0.00     0.088 C 
HETATM   39  C24 UNL     1      13.137  17.870  18.212  1.00  0.00     0.128 C 
HETATM   40  N9  UNL     1      12.506  17.737  19.471  1.00  0.00    -0.397 N 
HETATM   41  C25 UNL     1      11.087  18.051  19.424  1.00  0.00     0.148 C 
HETATM   42  C26 UNL     1      13.147  18.188  20.644  1.00  0.00     0.064 C 
HETATM   43  C27 UNL     1      13.914  19.467  20.568  1.00  0.00     0.112 C 
ENDBRANCH  36  37
ENDBRANCH   9  36
BRANCH   1  44
HETATM   44  O1  UNL     1      16.197  23.107  13.275  1.00  0.00    -0.353 OA
HETATM   45  C1  UNL     1      16.310  24.205  12.489  1.00  0.00     0.210 C 
ENDBRANCH   1  44
BRANCH  12  46
HETATM   46  O2  UNL     1      15.116  20.862  14.023  1.00  0.00    -0.353 OA
HETATM   47  C31 UNL     1      13.867  20.276  13.920  1.00  0.00     0.210 C 
ENDBRANCH  12  46
TORSDOF 12
ENDMDL
MODEL 5
REMARK VINA RESULT: -9.113426575      2.072      4.554
REMARK  12 active torsions:
REMARK  status: ('A' for Active; 'I' for Inactive)
REMARK    1  A    between atoms: O1_2  and  C2_3 
REMARK    2  A    between atoms: C5_8  and  N2_9 
REMARK    3  A    between atoms: N2_9  and  C6_11 
REMARK    4  A    between atoms: C6_11  and  C7_12 
REMARK    5  A    between atoms: N3_13  and  C9_15 
REMARK    6  A    between atoms: C9_15  and  C10_16 
REMARK    7  A    between atoms: C10_16  and  C11_17 
REMARK    8  A    between atoms: C11_17  and  N4_18 
REMARK    9  A    between atoms: C14_21  and  C15_22 
REMARK   10  A    between atoms: C21_34  and  N8_35 
REMARK   11  A    between atoms: N8_35  and  C22_36 
REMARK   12  A    between atoms: C30_45  and  O2_46 
ROOT
HETATM    1  C2  UNL     1      13.086  19.271  20.103  1.00  0.00     0.103 A 
HETATM    2  C3  UNL     1      14.183  19.777  20.743  1.00  0.00     0.070 A 
HETATM    3  C4  UNL     1      14.987  20.738  20.118  1.00  0.00     0.067 A 
HETATM    4  N1  UNL     1      16.069  21.286  20.740  1.00  0.00    -0.191 N 
ATOM      5  H1  UNL     1      16.319  20.983  21.681  1.00  0.00     0.184 HD
HETATM    6  C5  UNL     1      16.822  22.238  20.113  1.00  0.00     0.685 A 
HETATM    7  N7  UNL     1      16.515  22.644  18.891  1.00  0.00    -0.163 N 
ATOM      8  H7  UNL     1      17.098  23.358  18.454  1.00  0.00     0.187 HD
HETATM    9  C21 UNL     1      15.455  22.150  18.188  1.00  0.00     0.205 A 
HETATM   10  C28 UNL     1      14.683  21.176  18.855  1.00  0.00     0.053 A 
HETATM   11  C29 UNL     1      13.573  20.688  18.168  1.00  0.00     0.058 A 
HETATM   12  C30 UNL     1      12.812  19.765  18.793  1.00  0.00     0.102 A 
ENDROOT
BRANCH   6  13
HETATM   13  N2  UNL     1      17.885  22.708  20.723  1.00  0.00    -0.200 N 
ATOM     14  H2  UNL     1      18.434  22.005  21.216  1.00  0.00     0.183 HD
BRANCH  13  15
HETATM   15  C6  UNL     1      18.390  23.990  20.812  1.00  0.00     0.123 C 
BRANCH  15  16
HETATM   16  C7  UNL     1      18.709  24.667  19.484  1.00  0.00     0.102 C 
HETATM   17  N3  UNL     1      19.648  24.103  18.679  1.00  0.00    -0.393 N 
HETATM   18  C8  UNL     1      20.998  24.102  19.044  1.00  0.00     0.148 C 
BRANCH  17  19
HETATM   19  C9  UNL     1      19.431  23.771  17.324  1.00  0.00     0.123 C 
BRANCH  19  20
HETATM   20  C10 UNL     1      20.102  24.631  16.333  1.00  0.00     0.050 C 
BRANCH  20  21
HETATM   21  C11 UNL     1      19.461  25.844  15.817  1.00  0.00     0.274 C 
BRANCH  21  22
HETATM   22  N4  UNL     1      19.969  27.138  16.118  1.00  0.00     0.088 N 
HETATM   23  C12 UNL     1      20.604  27.713  14.930  1.00  0.00     0.273 C 
HETATM   24  C13 UNL     1      22.075  27.615  14.832  1.00  0.00     0.042 C 
HETATM   25  C14 UNL     1      22.644  28.264  16.120  1.00  0.00     0.057 C 
HETATM   26  C19 UNL     1      22.235  27.310  17.198  1.00  0.00     0.042 C 
HETATM   27  C20 UNL     1      20.715  27.325  17.292  1.00  0.00     0.273 C 
BRANCH  25  28
HETATM   28  C15 UNL     1      24.078  28.483  16.049  1.00  0.00     0.085 A 
HETATM   29  N5  UNL     1      24.920  27.502  15.562  1.00  0.00    -0.355 N 
HETATM   30  C16 UNL     1      26.233  27.791  15.466  1.00  0.00     0.090 A 
ATOM     31  H5  UNL     1      24.559  26.589  15.283  1.00  0.00     0.166 HD
HETATM   32  C17 UNL     1      26.793  28.961  15.807  1.00  0.00     0.034 A 
HETATM   33  C18 UNL     1      25.928  29.980  16.313  1.00  0.00     0.090 A 
HETATM   34  N6  UNL     1      24.635  29.640  16.386  1.00  0.00    -0.355 N 
ATOM     35  H6  UNL     1      24.002  30.356  16.743  1.00  0.00     0.166 HD
ENDBRANCH  25  28
ENDBRANCH  21  22
ENDBRANCH  20  21
ENDBRANCH  19  20
ENDBRANCH  17  19
ENDBRANCH  15  16
ENDBRANCH  13  15
ENDBRANCH   6  13
BRANCH   9  36
HETATM   36  N8  UNL     1      15.231  22.331  17.009  1.00  0.00    -0.394 NA
BRANCH  36  37
HETATM   37  C22 UNL     1      15.012  22.547  15.727  1.00  0.00     0.071 C 
HETATM   38  C23 UNL     1      13.804  23.363  15.255  1.00  0.00     0.088 C 
HETATM   39  C24 UNL     1      13.378  22.638  13.963  1.00  0.00     0.128 C 
HETATM   40  N9  UNL     1      14.452  22.671  13.043  1.00  0.00    -0.397 N 
HETATM   41  C25 UNL     1      14.549  21.456  12.249  1.00  0.00     0.148 C 
HETATM   42  C26 UNL     1      15.703  23.201  13.421  1.00  0.00     0.064 C 
HETATM   43  C27 UNL     1      16.195  22.904  14.799  1.00  0.00     0.112 C 
ENDBRANCH  36  37
ENDBRANCH   9  36
BRANCH   1  44
HETATM   44  O1  UNL     1      12.212  18.352  20.554  1.00  0.00    -0.353 OA
HETATM   45  C1  UNL     1      12.232  17.000  20.636  1.00  0.00     0.210 C 
ENDBRANCH   1  44
BRANCH  12  46
HETATM   46  O2  UNL     1      11.696  19.271  18.175  1.00  0.00    -0.353 OA
HETATM   47  C31 UNL     1      11.080  19.773  17.042  1.00  0.00     0.210 C 
ENDBRANCH  12  46
TORSDOF 12
ENDMDL
