MODEL 1
REMARK VINA RESULT: -9.695630735      0.000      0.000
REMARK  11 active torsions:
REMARK  status: ('A' for Active; 'I' for Inactive)
REMARK    1  A    between atoms: C2_2  and  C3_3 
REMARK    2  A    between atoms: C3_3  and  C4_4 
REMARK    3  A    between atoms: C3_3  and  N5_13 
REMARK    4  A    between atoms: C4_4  and  S1_5 
REMARK    5  A    between atoms: S1_5  and  C5_6 
REMARK       I    between atoms: N5_13  and  C7_15 
REMARK    6  A    between atoms: C7_15  and  C8_17 
REMARK    7  A    between atoms: C8_17  and  C9_18 
REMARK    8  A    between atoms: C8_17  and  N8_28 
REMARK    9  A    between atoms: C9_18  and  C10_19 
REMARK       I    between atoms: C10_19  and  N6_21 
REMARK       I    between atoms: N8_28  and  C16_30 
REMARK   10  A    between atoms: C16_30  and  C17_32 
REMARK   11  A    between atoms: C23_38  and  C24_39 
ROOT
HETATM    1  C10 UNL     1      16.099  22.256  15.870  1.00  0.00     0.223 C 
HETATM    2  O2  UNL     1      16.962  21.344  15.671  1.00  0.00    -0.273 OA
HETATM    3  N6  UNL     1      14.915  22.167  15.103  1.00  0.00    -0.335 N 
HETATM    4  C11 UNL     1      13.808  23.098  15.181  1.00  0.00     0.127 C 
HETATM    5  C12 UNL     1      13.069  22.987  13.865  1.00  0.00     0.023 C 
HETATM    6  C13 UNL     1      13.985  22.120  13.022  1.00  0.00     0.042 C 
HETATM    7  C14 UNL     1      14.536  21.174  14.098  1.00  0.00     0.194 C 
HETATM    8  C15 UNL     1      13.454  20.319  14.571  1.00  0.00     0.084 C 
HETATM    9  N7  UNL     1      12.586  19.636  14.928  1.00  0.00    -0.195 NA
ENDROOT
BRANCH   1  10
HETATM   10  C9  UNL     1      16.272  23.347  16.821  1.00  0.00     0.138 C 
BRANCH  10  11
HETATM   11  C8  UNL     1      16.480  22.922  18.254  1.00  0.00     0.185 C 
BRANCH  11  12
HETATM   12  C7  UNL     1      17.850  22.950  18.734  1.00  0.00     0.241 C 
HETATM   13  N5  UNL     1      18.630  24.120  18.914  1.00  0.00    -0.354 N 
ATOM     14  H5  UNL     1      18.207  25.021  18.693  1.00  0.00     0.162 HD
HETATM   15  O1  UNL     1      18.448  21.854  19.030  1.00  0.00    -0.271 OA
BRANCH  13  16
HETATM   16  C3  UNL     1      20.002  24.100  19.398  1.00  0.00     0.093 C 
BRANCH  16  17
HETATM   17  C2  UNL     1      20.023  24.620  20.784  1.00  0.00     0.021 C 
HETATM   18  C1  UNL     1      20.985  25.749  21.037  1.00  0.00     0.007 C 
ENDBRANCH  16  17
BRANCH  16  19
HETATM   19  C4  UNL     1      20.888  24.749  18.403  1.00  0.00     0.107 C 
BRANCH  19  20
HETATM   20  S1  UNL     1      20.166  25.060  16.807  1.00  0.00    -0.090 SA
BRANCH  20  21
HETATM   21  C5  UNL     1      20.483  26.707  16.206  1.00  0.00     0.172 A 
HETATM   22  N1  UNL     1      21.356  27.612  16.659  1.00  0.00    -0.265 N 
HETATM   23  N2  UNL     1      21.250  28.697  15.900  1.00  0.00    -0.007 NA
ATOM     24  H1  UNL     1      21.991  27.490  17.447  1.00  0.00     0.186 HD
HETATM   25  N3  UNL     1      20.321  28.497  14.963  1.00  0.00    -0.005 NA
HETATM   26  N4  UNL     1      19.860  27.271  15.166  1.00  0.00    -0.260 N 
HETATM   27  C6  UNL     1      18.820  26.712  14.315  1.00  0.00     0.177 C 
ENDBRANCH  20  21
ENDBRANCH  19  20
ENDBRANCH  16  19
ENDBRANCH  13  16
ENDBRANCH  11  12
BRANCH  11  28
HETATM   28  N8  UNL     1      15.907  21.612  18.504  1.00  0.00    -0.347 N 
HETATM   29  C16 UNL     1      14.537  21.400  18.733  1.00  0.00     0.227 C 
HETATM   30  O3  UNL     1      13.752  22.369  18.721  1.00  0.00    -0.273 OA
ATOM     31  H8  UNL     1      16.530  20.805  18.514  1.00  0.00     0.163 HD
BRANCH  29  32
HETATM   32  C17 UNL     1      14.004  20.042  18.993  1.00  0.00     0.042 C 
HETATM   33  C18 UNL     1      14.827  19.008  18.273  1.00  0.00     0.024 C 
HETATM   34  C19 UNL     1      14.328  17.645  18.638  1.00  0.00    -0.012 C 
HETATM   35  C20 UNL     1      14.362  17.489  20.126  1.00  0.00     0.009 C 
HETATM   36  C26 UNL     1      12.900  17.429  18.156  1.00  0.00     0.014 C 
HETATM   37  C21 UNL     1      13.403  18.433  20.768  1.00  0.00    -0.012 C 
HETATM   38  C22 UNL     1      11.995  18.347  20.213  1.00  0.00     0.014 C 
HETATM   39  C28 UNL     1      13.882  19.849  20.463  1.00  0.00     0.024 C 
HETATM   40  C23 UNL     1      12.072  18.551  18.702  1.00  0.00    -0.039 C 
HETATM   41  C27 UNL     1      12.601  19.924  18.403  1.00  0.00     0.028 C 
BRANCH  40  42
HETATM   42  C24 UNL     1      10.655  18.410  18.166  1.00  0.00     0.005 C 
HETATM   43  C25 UNL     1      10.581  17.348  17.092  1.00  0.00     0.006 C 
ENDBRANCH  40  42
ENDBRANCH  29  32
ENDBRANCH  11  28
ENDBRANCH  10  11
ENDBRANCH   1  10
TORSDOF 11
ENDMDL
MODEL 2
REMARK VINA RESULT: -9.579067161      2.604      8.422
REMARK  11 active torsions:
REMARK  status: ('A' for Active; 'I' for Inactive)
REMARK    1  A    between atoms: C2_2  and  C3_3 
REMARK    2  A    between atoms: C3_3  and  C4_4 
REMARK    3  A    between atoms: C3_3  and  N5_13 
REMARK    4  A    between atoms: C4_4  and  S1_5 
REMARK    5  A    between atoms: S1_5  and  C5_6 
REMARK       I    between atoms: N5_13  and  C7_15 
REMARK    6  A    between atoms: C7_15  and  C8_17 
REMARK    7  A    between atoms: C8_17  and  C9_18 
REMARK    8  A    between atoms: C8_17  and  N8_28 
REMARK    9  A    between atoms: C9_18  and  C10_19 
REMARK       I    between atoms: C10_19  and  N6_21 
REMARK       I    between atoms: N8_28  and  C16_30 
REMARK   10  A    between atoms: C16_30  and  C17_32 
REMARK   11  A    between atoms: C23_38  and  C24_39 
ROOT
HETATM    1  C10 UNL     1      17.830  21.981  19.193  1.00  0.00     0.223 C 
HETATM    2  O2  UNL     1      17.990  21.271  18.151  1.00  0.00    -0.273 OA
HETATM    3  N6  UNL     1      18.643  23.132  19.290  1.00  0.00    -0.335 N 
HETATM    4  C11 UNL     1      18.613  24.076  20.389  1.00  0.00     0.127 C 
HETATM    5  C12 UNL     1      19.957  24.771  20.386  1.00  0.00     0.023 C 
HETATM    6  C13 UNL     1      20.760  23.976  19.373  1.00  0.00     0.042 C 
HETATM    7  C14 UNL     1      19.658  23.629  18.361  1.00  0.00     0.194 C 
HETATM    8  C15 UNL     1      19.226  24.853  17.698  1.00  0.00     0.084 C 
HETATM    9  N7  UNL     1      18.901  25.835  17.169  1.00  0.00    -0.195 NA
ENDROOT
BRANCH   1  10
HETATM   10  C9  UNL     1      16.877  21.670  20.252  1.00  0.00     0.138 C 
BRANCH  10  11
HETATM   11  C8  UNL     1      15.446  21.511  19.799  1.00  0.00     0.185 C 
BRANCH  11  12
HETATM   12  C7  UNL     1      14.732  20.365  20.334  1.00  0.00     0.241 C 
HETATM   13  N5  UNL     1      13.941  19.467  19.575  1.00  0.00    -0.354 N 
ATOM     14  H5  UNL     1      13.858  19.626  18.571  1.00  0.00     0.162 HD
HETATM   15  O1  UNL     1      14.788  20.105  21.589  1.00  0.00    -0.271 OA
BRANCH  13  16
HETATM   16  C3  UNL     1      13.240  18.332  20.155  1.00  0.00     0.093 C 
BRANCH  16  17
HETATM   17  C2  UNL     1      13.591  17.116  19.386  1.00  0.00     0.021 C 
HETATM   18  C1  UNL     1      14.731  17.268  18.416  1.00  0.00     0.007 C 
ENDBRANCH  16  17
BRANCH  16  19
HETATM   19  C4  UNL     1      11.804  18.660  20.310  1.00  0.00     0.107 C 
BRANCH  19  20
HETATM   20  S1  UNL     1      10.703  17.895  19.141  1.00  0.00    -0.090 SA
BRANCH  20  21
HETATM   21  C5  UNL     1      10.759  18.651  17.529  1.00  0.00     0.172 A 
HETATM   22  N1  UNL     1      10.765  19.949  17.211  1.00  0.00    -0.265 N 
HETATM   23  N2  UNL     1      10.822  20.045  15.887  1.00  0.00    -0.007 NA
ATOM     24  H1  UNL     1      10.732  20.728  17.868  1.00  0.00     0.186 HD
HETATM   25  N3  UNL     1      10.856  18.823  15.352  1.00  0.00    -0.005 NA
HETATM   26  N4  UNL     1      10.816  17.979  16.374  1.00  0.00    -0.260 N 
HETATM   27  C6  UNL     1      10.838  16.540  16.158  1.00  0.00     0.177 C 
ENDBRANCH  20  21
ENDBRANCH  19  20
ENDBRANCH  16  19
ENDBRANCH  13  16
ENDBRANCH  11  12
BRANCH  11  28
HETATM   28  N8  UNL     1      15.348  21.508  18.351  1.00  0.00    -0.347 N 
HETATM   29  C16 UNL     1      14.751  22.546  17.615  1.00  0.00     0.227 C 
HETATM   30  O3  UNL     1      14.278  23.533  18.214  1.00  0.00    -0.273 OA
ATOM     31  H8  UNL     1      15.732  20.712  17.842  1.00  0.00     0.163 HD
BRANCH  29  32
HETATM   32  C17 UNL     1      14.669  22.489  16.138  1.00  0.00     0.042 C 
HETATM   33  C18 UNL     1      14.996  21.104  15.646  1.00  0.00     0.024 C 
HETATM   34  C19 UNL     1      14.804  21.055  14.162  1.00  0.00    -0.012 C 
HETATM   35  C20 UNL     1      13.408  21.480  13.831  1.00  0.00     0.009 C 
HETATM   36  C26 UNL     1      15.779  21.977  13.444  1.00  0.00     0.014 C 
HETATM   37  C21 UNL     1      13.201  22.911  14.196  1.00  0.00    -0.012 C 
HETATM   38  C22 UNL     1      14.241  23.847  13.614  1.00  0.00     0.014 C 
HETATM   39  C28 UNL     1      13.348  23.022  15.711  1.00  0.00     0.024 C 
HETATM   40  C23 UNL     1      15.618  23.342  14.037  1.00  0.00    -0.039 C 
HETATM   41  C27 UNL     1      15.739  23.395  15.533  1.00  0.00     0.028 C 
BRANCH  40  42
HETATM   42  C24 UNL     1      16.642  24.269  13.399  1.00  0.00     0.005 C 
HETATM   43  C25 UNL     1      17.086  25.342  14.368  1.00  0.00     0.006 C 
ENDBRANCH  40  42
ENDBRANCH  29  32
ENDBRANCH  11  28
ENDBRANCH  10  11
ENDBRANCH   1  10
TORSDOF 11
ENDMDL
MODEL 3
REMARK VINA RESULT: -9.471878997      1.602      2.075
REMARK  11 active torsions:
REMARK  status: ('A' for Active; 'I' for Inactive)
REMARK    1  A    between atoms: C2_2  and  C3_3 
REMARK    2  A    between atoms: C3_3  and  C4_4 
REMARK    3  A    between atoms: C3_3  and  N5_13 
REMARK    4  A    between atoms: C4_4  and  S1_5 
REMARK    5  A    between atoms: S1_5  and  C5_6 
REMARK       I    between atoms: N5_13  and  C7_15 
REMARK    6  A    between atoms: C7_15  and  C8_17 
REMARK    7  A    between atoms: C8_17  and  C9_18 
REMARK    8  A    between atoms: C8_17  and  N8_28 
REMARK    9  A    between atoms: C9_18  and  C10_19 
REMARK       I    between atoms: C10_19  and  N6_21 
REMARK       I    between atoms: N8_28  and  C16_30 
REMARK   10  A    between atoms: C16_30  and  C17_32 
REMARK   11  A    between atoms: C23_38  and  C24_39 
ROOT
HETATM    1  C10 UNL     1      16.956  22.853  15.492  1.00  0.00     0.223 C 
HETATM    2  O2  UNL     1      17.403  23.997  15.165  1.00  0.00    -0.273 OA
HETATM    3  N6  UNL     1      15.716  22.485  14.925  1.00  0.00    -0.335 N 
HETATM    4  C11 UNL     1      15.038  21.227  15.162  1.00  0.00     0.127 C 
HETATM    5  C12 UNL     1      13.575  21.473  14.866  1.00  0.00     0.023 C 
HETATM    6  C13 UNL     1      13.502  22.978  14.685  1.00  0.00     0.042 C 
HETATM    7  C14 UNL     1      14.857  23.239  14.011  1.00  0.00     0.194 C 
HETATM    8  C15 UNL     1      14.841  22.647  12.679  1.00  0.00     0.084 C 
HETATM    9  N7  UNL     1      14.808  22.182  11.616  1.00  0.00    -0.195 NA
ENDROOT
BRANCH   1  10
HETATM   10  C9  UNL     1      17.646  21.937  16.394  1.00  0.00     0.138 C 
BRANCH  10  11
HETATM   11  C8  UNL     1      17.194  21.994  17.832  1.00  0.00     0.185 C 
BRANCH  11  12
HETATM   12  C7  UNL     1      18.245  22.122  18.826  1.00  0.00     0.241 C 
HETATM   13  N5  UNL     1      19.017  23.288  19.054  1.00  0.00    -0.354 N 
ATOM     14  H5  UNL     1      18.829  24.112  18.482  1.00  0.00     0.162 HD
HETATM   15  O1  UNL     1      18.536  21.127  19.581  1.00  0.00    -0.271 OA
BRANCH  13  16
HETATM   16  C3  UNL     1      20.062  23.371  20.062  1.00  0.00     0.093 C 
BRANCH  16  17
HETATM   17  C2  UNL     1      19.642  24.337  21.103  1.00  0.00     0.021 C 
HETATM   18  C1  UNL     1      18.179  24.688  21.109  1.00  0.00     0.007 C 
ENDBRANCH  16  17
BRANCH  16  19
HETATM   19  C4  UNL     1      21.371  23.591  19.404  1.00  0.00     0.107 C 
BRANCH  19  20
HETATM   20  S1  UNL     1      22.103  25.194  19.650  1.00  0.00    -0.090 SA
BRANCH  20  21
HETATM   21  C5  UNL     1      21.582  26.393  18.440  1.00  0.00     0.172 A 
HETATM   22  N1  UNL     1      20.342  26.722  18.065  1.00  0.00    -0.265 N 
HETATM   23  N2  UNL     1      20.433  27.670  17.139  1.00  0.00    -0.007 NA
ATOM     24  H1  UNL     1      19.478  26.317  18.426  1.00  0.00     0.186 HD
HETATM   25  N3  UNL     1      21.718  27.955  16.918  1.00  0.00    -0.005 NA
HETATM   26  N4  UNL     1      22.410  27.162  17.724  1.00  0.00    -0.260 N 
HETATM   27  C6  UNL     1      23.864  27.204  17.750  1.00  0.00     0.177 C 
ENDBRANCH  20  21
ENDBRANCH  19  20
ENDBRANCH  16  19
ENDBRANCH  13  16
ENDBRANCH  11  12
BRANCH  11  28
HETATM   28  N8  UNL     1      16.349  20.862  18.165  1.00  0.00    -0.347 N 
HETATM   29  C16 UNL     1      14.997  20.987  18.526  1.00  0.00     0.227 C 
HETATM   30  O3  UNL     1      14.470  22.117  18.566  1.00  0.00    -0.273 OA
ATOM     31  H8  UNL     1      16.758  19.928  18.134  1.00  0.00     0.163 HD
BRANCH  29  32
HETATM   32  C17 UNL     1      14.180  19.798  18.865  1.00  0.00     0.042 C 
HETATM   33  C18 UNL     1      14.822  18.548  18.324  1.00  0.00     0.024 C 
HETATM   34  C19 UNL     1      14.030  17.359  18.771  1.00  0.00    -0.012 C 
HETATM   35  C20 UNL     1      13.928  17.367  20.264  1.00  0.00     0.009 C 
HETATM   36  C26 UNL     1      12.624  17.376  18.185  1.00  0.00     0.014 C 
HETATM   37  C21 UNL     1      13.141  18.547  20.725  1.00  0.00    -0.012 C 
HETATM   38  C22 UNL     1      11.787  18.678  20.056  1.00  0.00     0.014 C 
HETATM   39  C28 UNL     1      13.920  19.798  20.330  1.00  0.00     0.024 C 
HETATM   40  C23 UNL     1      12.009  18.693  18.545  1.00  0.00    -0.039 C 
HETATM   41  C27 UNL     1      12.827  19.893  18.165  1.00  0.00     0.028 C 
BRANCH  40  42
HETATM   42  C24 UNL     1      10.633  18.774  17.899  1.00  0.00     0.005 C 
HETATM   43  C25 UNL     1      10.575  19.889  16.879  1.00  0.00     0.006 C 
ENDBRANCH  40  42
ENDBRANCH  29  32
ENDBRANCH  11  28
ENDBRANCH  10  11
ENDBRANCH   1  10
TORSDOF 11
ENDMDL
MODEL 4
REMARK VINA RESULT: -9.455479174      2.742      8.546
REMARK  11 active torsions:
REMARK  status: ('A' for Active; 'I' for Inactive)
REMARK    1  A    between atoms: C2_2  and  C3_3 
REMARK    2  A    between atoms: C3_3  and  C4_4 
REMARK    3  A    between atoms: C3_3  and  N5_13 
REMARK    4  A    between atoms: C4_4  and  S1_5 
REMARK    5  A    between atoms: S1_5  and  C5_6 
REMARK       I    between atoms: N5_13  and  C7_15 
REMARK    6  A    between atoms: C7_15  and  C8_17 
REMARK    7  A    between atoms: C8_17  and  C9_18 
REMARK    8  A    between atoms: C8_17  and  N8_28 
REMARK    9  A    between atoms: C9_18  and  C10_19 
REMARK       I    between atoms: C10_19  and  N6_21 
REMARK       I    between atoms: N8_28  and  C16_30 
REMARK   10  A    between atoms: C16_30  and  C17_32 
REMARK   11  A    between atoms: C23_38  and  C24_39 
ROOT
HETATM    1  C10 UNL     1      17.490  25.331  14.774  1.00  0.00     0.223 C 
HETATM    2  O2  UNL     1      16.639  26.124  15.284  1.00  0.00    -0.273 OA
HETATM    3  N6  UNL     1      18.846  25.613  15.054  1.00  0.00    -0.335 N 
HETATM    4  C11 UNL     1      19.969  24.832  14.575  1.00  0.00     0.127 C 
HETATM    5  C12 UNL     1      21.168  25.755  14.602  1.00  0.00     0.023 C 
HETATM    6  C13 UNL     1      20.558  27.112  14.902  1.00  0.00     0.042 C 
HETATM    7  C14 UNL     1      19.421  26.699  15.848  1.00  0.00     0.194 C 
HETATM    8  C15 UNL     1      19.999  26.206  17.092  1.00  0.00     0.084 C 
HETATM    9  N7  UNL     1      20.474  25.829  18.081  1.00  0.00    -0.195 NA
ENDROOT
BRANCH   1  10
HETATM   10  C9  UNL     1      17.140  24.185  13.943  1.00  0.00     0.138 C 
BRANCH  10  11
HETATM   11  C8  UNL     1      16.999  22.877  14.683  1.00  0.00     0.185 C 
BRANCH  11  12
HETATM   12  C7  UNL     1      15.780  22.130  14.432  1.00  0.00     0.241 C 
HETATM   13  N5  UNL     1      14.795  21.821  15.404  1.00  0.00    -0.354 N 
ATOM     14  H5  UNL     1      14.942  22.144  16.360  1.00  0.00     0.162 HD
HETATM   15  O1  UNL     1      15.529  21.692  13.253  1.00  0.00    -0.271 OA
BRANCH  13  16
HETATM   16  C3  UNL     1      13.587  21.068  15.106  1.00  0.00     0.093 C 
BRANCH  16  17
HETATM   17  C2  UNL     1      12.464  22.018  14.939  1.00  0.00     0.021 C 
HETATM   18  C1  UNL     1      11.121  21.395  14.676  1.00  0.00     0.007 C 
ENDBRANCH  16  17
BRANCH  16  19
HETATM   19  C4  UNL     1      13.426  19.977  16.096  1.00  0.00     0.107 C 
BRANCH  19  20
HETATM   20  S1  UNL     1      13.551  20.455  17.805  1.00  0.00    -0.090 SA
BRANCH  20  21
HETATM   21  C5  UNL     1      12.481  19.513  18.873  1.00  0.00     0.172 A 
HETATM   22  N1  UNL     1      11.283  18.984  18.608  1.00  0.00    -0.265 N 
HETATM   23  N2  UNL     1      10.860  18.361  19.702  1.00  0.00    -0.007 NA
ATOM     24  H1  UNL     1      10.783  19.047  17.721  1.00  0.00     0.186 HD
HETATM   25  N3  UNL     1      11.774  18.482  20.666  1.00  0.00    -0.005 NA
HETATM   26  N4  UNL     1      12.763  19.193  20.141  1.00  0.00    -0.260 N 
HETATM   27  C6  UNL     1      13.946  19.521  20.923  1.00  0.00     0.177 C 
ENDBRANCH  20  21
ENDBRANCH  19  20
ENDBRANCH  16  19
ENDBRANCH  13  16
ENDBRANCH  11  12
BRANCH  11  28
HETATM   28  N8  UNL     1      17.169  23.059  16.113  1.00  0.00    -0.347 N 
HETATM   29  C16 UNL     1      17.936  22.198  16.916  1.00  0.00     0.227 C 
HETATM   30  O3  UNL     1      18.516  21.223  16.396  1.00  0.00    -0.273 OA
ATOM     31  H8  UNL     1      16.707  23.852  16.558  1.00  0.00     0.163 HD
BRANCH  29  32
HETATM   32  C17 UNL     1      18.069  22.424  18.374  1.00  0.00     0.042 C 
HETATM   33  C18 UNL     1      17.568  23.795  18.741  1.00  0.00     0.024 C 
HETATM   34  C19 UNL     1      17.619  23.952  20.229  1.00  0.00    -0.012 C 
HETATM   35  C20 UNL     1      16.836  22.850  20.868  1.00  0.00     0.009 C 
HETATM   36  C26 UNL     1      19.051  23.897  20.744  1.00  0.00     0.014 C 
HETATM   37  C21 UNL     1      17.479  21.532  20.600  1.00  0.00    -0.012 C 
HETATM   38  C22 UNL     1      18.948  21.482  20.969  1.00  0.00     0.014 C 
HETATM   39  C28 UNL     1      17.423  21.295  19.094  1.00  0.00     0.024 C 
HETATM   40  C23 UNL     1      19.655  22.622  20.241  1.00  0.00    -0.039 C 
HETATM   41  C27 UNL     1      19.547  22.419  18.757  1.00  0.00     0.028 C 
BRANCH  40  42
HETATM   42  C24 UNL     1      21.115  22.579  20.667  1.00  0.00     0.005 C 
HETATM   43  C25 UNL     1      21.740  23.955  20.612  1.00  0.00     0.006 C 
ENDBRANCH  40  42
ENDBRANCH  29  32
ENDBRANCH  11  28
ENDBRANCH  10  11
ENDBRANCH   1  10
TORSDOF 11
ENDMDL
MODEL 5
REMARK VINA RESULT: -9.422725960      2.477      6.683
REMARK  11 active torsions:
REMARK  status: ('A' for Active; 'I' for Inactive)
REMARK    1  A    between atoms: C2_2  and  C3_3 
REMARK    2  A    between atoms: C3_3  and  C4_4 
REMARK    3  A    between atoms: C3_3  and  N5_13 
REMARK    4  A    between atoms: C4_4  and  S1_5 
REMARK    5  A    between atoms: S1_5  and  C5_6 
REMARK       I    between atoms: N5_13  and  C7_15 
REMARK    6  A    between atoms: C7_15  and  C8_17 
REMARK    7  A    between atoms: C8_17  and  C9_18 
REMARK    8  A    between atoms: C8_17  and  N8_28 
REMARK    9  A    between atoms: C9_18  and  C10_19 
REMARK       I    between atoms: C10_19  and  N6_21 
REMARK       I    between atoms: N8_28  and  C16_30 
REMARK   10  A    between atoms: C16_30  and  C17_32 
REMARK   11  A    between atoms: C23_38  and  C24_39 
ROOT
HETATM    1  C10 UNL     1      18.349  24.064  18.888  1.00  0.00     0.223 C 
HETATM    2  O2  UNL     1      18.179  25.064  18.121  1.00  0.00    -0.273 OA
HETATM    3  N6  UNL     1      19.584  24.008  19.570  1.00  0.00    -0.335 N 
HETATM    4  C11 UNL     1      19.973  22.961  20.492  1.00  0.00     0.127 C 
HETATM    5  C12 UNL     1      21.486  22.968  20.527  1.00  0.00     0.023 C 
HETATM    6  C13 UNL     1      21.857  23.920  19.405  1.00  0.00     0.042 C 
HETATM    7  C14 UNL     1      20.713  24.938  19.519  1.00  0.00     0.194 C 
HETATM    8  C15 UNL     1      20.861  25.673  20.768  1.00  0.00     0.084 C 
HETATM    9  N7  UNL     1      20.998  26.259  21.761  1.00  0.00    -0.195 NA
ENDROOT
BRANCH   1  10
HETATM   10  C9  UNL     1      17.357  23.014  19.086  1.00  0.00     0.138 C 
BRANCH  10  11
HETATM   11  C8  UNL     1      17.415  21.883  18.090  1.00  0.00     0.185 C 
BRANCH  11  12
HETATM   12  C7  UNL     1      17.175  22.241  16.703  1.00  0.00     0.241 C 
HETATM   13  N5  UNL     1      16.379  23.330  16.267  1.00  0.00    -0.354 N 
ATOM     14  H5  UNL     1      15.935  23.918  16.972  1.00  0.00     0.162 HD
HETATM   15  O1  UNL     1      17.701  21.547  15.762  1.00  0.00    -0.271 OA
BRANCH  13  16
HETATM   16  C3  UNL     1      16.165  23.653  14.864  1.00  0.00     0.093 C 
BRANCH  16  17
HETATM   17  C2  UNL     1      16.566  25.059  14.634  1.00  0.00     0.021 C 
HETATM   18  C1  UNL     1      18.048  25.319  14.636  1.00  0.00     0.007 C 
ENDBRANCH  16  17
BRANCH  16  19
HETATM   19  C4  UNL     1      14.796  23.251  14.466  1.00  0.00     0.107 C 
BRANCH  19  20
HETATM   20  S1  UNL     1      14.524  21.503  14.277  1.00  0.00    -0.090 SA
BRANCH  20  21
HETATM   21  C5  UNL     1      12.812  21.040  14.454  1.00  0.00     0.172 A 
HETATM   22  N1  UNL     1      11.834  21.674  15.108  1.00  0.00    -0.265 N 
HETATM   23  N2  UNL     1      10.720  20.965  14.964  1.00  0.00    -0.007 NA
ATOM     24  H1  UNL     1      11.927  22.547  15.626  1.00  0.00     0.186 HD
HETATM   25  N3  UNL     1      10.971  19.885  14.221  1.00  0.00    -0.005 NA
HETATM   26  N4  UNL     1      12.261  19.946  13.918  1.00  0.00    -0.260 N 
HETATM   27  C6  UNL     1      12.888  18.914  13.105  1.00  0.00     0.177 C 
ENDBRANCH  20  21
ENDBRANCH  19  20
ENDBRANCH  16  19
ENDBRANCH  13  16
ENDBRANCH  11  12
BRANCH  11  28
HETATM   28  N8  UNL     1      16.528  20.799  18.469  1.00  0.00    -0.347 N 
HETATM   29  C16 UNL     1      15.128  20.881  18.385  1.00  0.00     0.227 C 
HETATM   30  O3  UNL     1      14.595  21.926  17.961  1.00  0.00    -0.273 OA
ATOM     31  H8  UNL     1      16.942  19.933  18.815  1.00  0.00     0.163 HD
BRANCH  29  32
HETATM   32  C17 UNL     1      14.267  19.747  18.795  1.00  0.00     0.042 C 
HETATM   33  C18 UNL     1      14.880  18.440  18.368  1.00  0.00     0.024 C 
HETATM   34  C19 UNL     1      14.041  17.314  18.886  1.00  0.00    -0.012 C 
HETATM   35  C20 UNL     1      13.906  17.442  20.370  1.00  0.00     0.009 C 
HETATM   36  C26 UNL     1      12.650  17.327  18.265  1.00  0.00     0.014 C 
HETATM   37  C21 UNL     1      13.147  18.677  20.719  1.00  0.00    -0.012 C 
HETATM   38  C22 UNL     1      11.813  18.795  20.008  1.00  0.00     0.014 C 
HETATM   39  C28 UNL     1      13.974  19.869  20.247  1.00  0.00     0.024 C 
HETATM   40  C23 UNL     1      12.069  18.685  18.506  1.00  0.00    -0.039 C 
HETATM   41  C27 UNL     1      12.933  19.827  18.055  1.00  0.00     0.028 C 
BRANCH  40  42
HETATM   42  C24 UNL     1      10.712  18.757  17.822  1.00  0.00     0.005 C 
HETATM   43  C25 UNL     1      10.518  17.596  16.872  1.00  0.00     0.006 C 
ENDBRANCH  40  42
ENDBRANCH  29  32
ENDBRANCH  11  28
ENDBRANCH  10  11
ENDBRANCH   1  10
TORSDOF 11
ENDMDL
