MODEL 1
REMARK VINA RESULT: -7.912314211      0.000      0.000
REMARK  16 active torsions:
REMARK  status: ('A' for Active; 'I' for Inactive)
REMARK    1  A    between atoms: C2_2  and  C3_3 
REMARK    2  A    between atoms: C4_4  and  O1_5 
REMARK    3  A    between atoms: N1_7  and  C6_8 
REMARK    4  A    between atoms: C6_8  and  C7_9 
REMARK    5  A    between atoms: C7_9  and  C8_10 
REMARK    6  A    between atoms: C8_10  and  C9_11 
REMARK    7  A    between atoms: C9_11  and  N2_12 
REMARK    8  A    between atoms: N3_18  and  C11_19 
REMARK    9  A    between atoms: N4_22  and  C14_23 
REMARK   10  A    between atoms: C14_23  and  C15_24 
REMARK   11  A    between atoms: C14_23  and  C17_28 
REMARK   12  A    between atoms: C15_24  and  O4_26 
REMARK   13  A    between atoms: C19_31  and  C20_32 
REMARK   14  A    between atoms: C20_32  and  N6_33 
REMARK       I    between atoms: N6_33  and  C21_35 
REMARK   15  A    between atoms: C21_35  and  O6_37 
REMARK   16  A    between atoms: O6_37  and  C22_38 
ROOT
HETATM    1  C17 UNL     1      21.495  26.861  17.145  1.00  0.00     0.052 C 
HETATM    2  C18 UNL     1      22.551  26.501  16.130  1.00  0.00     0.097 C 
HETATM    3  N5  UNL     1      23.345  26.217  15.341  1.00  0.00    -0.192 NA
HETATM    4  C19 UNL     1      21.983  27.065  18.301  1.00  0.00     0.013 C 
ENDROOT
BRANCH   1   5
HETATM    5  C14 UNL     1      20.115  26.911  16.585  1.00  0.00     0.227 C 
BRANCH   5   6
HETATM    6  N4  UNL     1      19.506  25.589  16.735  1.00  0.00    -0.375 N 
HETATM    7  C13 UNL     1      18.113  25.757  16.918  1.00  0.00     0.125 C 
HETATM    8  C12 UNL     1      17.537  24.384  17.317  1.00  0.00     0.045 C 
HETATM    9  C11 UNL     1      17.742  23.516  16.110  1.00  0.00     0.095 C 
HETATM   10  C27 UNL     1      19.228  23.280  15.993  1.00  0.00     0.069 C 
HETATM   11  C26 UNL     1      19.986  24.579  15.897  1.00  0.00     0.061 C 
BRANCH   9  12
HETATM   12  N3  UNL     1      16.916  22.384  15.981  1.00  0.00    -0.324 N 
HETATM   13  C10 UNL     1      16.919  21.365  17.010  1.00  0.00     0.323 C 
HETATM   14  N1  UNL     1      15.713  20.635  17.215  1.00  0.00    -0.307 N 
HETATM   15  O2  UNL     1      17.947  21.137  17.690  1.00  0.00    -0.247 OA
HETATM   16  C4  UNL     1      14.501  21.256  16.693  1.00  0.00     0.232 C 
HETATM   17  C3  UNL     1      14.615  21.757  15.288  1.00  0.00     0.057 C 
HETATM   18  C28 UNL     1      16.028  22.097  14.875  1.00  0.00     0.093 C 
HETATM   19  C29 UNL     1      16.075  23.143  13.791  1.00  0.00     0.033 C 
BRANCH  14  20
HETATM   20  C6  UNL     1      15.712  19.386  17.899  1.00  0.00     0.130 C 
BRANCH  20  21
HETATM   21  C7  UNL     1      14.452  18.663  18.103  1.00  0.00     0.022 C 
BRANCH  21  22
HETATM   22  C8  UNL     1      14.047  18.506  19.526  1.00  0.00     0.029 C 
BRANCH  22  23
HETATM   23  C9  UNL     1      12.623  19.034  19.753  1.00  0.00     0.229 C 
BRANCH  23  24
HETATM   24  N2  UNL     1      12.216  18.662  21.096  1.00  0.00    -0.079 N 
ATOM     25  H23 UNL     1      11.386  19.164  21.411  1.00  0.00     0.274 HD
ATOM     26  H22 UNL     1      11.831  17.718  21.145  1.00  0.00     0.274 HD
ATOM     27  H21 UNL     1      13.016  18.793  21.715  1.00  0.00     0.274 HD
ENDBRANCH  23  24
ENDBRANCH  22  23
ENDBRANCH  21  22
ENDBRANCH  20  21
ENDBRANCH  14  20
BRANCH  16  28
HETATM   28  O1  UNL     1      13.961  22.198  17.507  1.00  0.00    -0.371 OA
HETATM   29  C5  UNL     1      14.426  22.226  18.801  1.00  0.00     0.204 C 
ENDBRANCH  16  28
BRANCH  17  30
HETATM   30  C2  UNL     1      13.633  22.823  14.995  1.00  0.00     0.006 C 
HETATM   31  C1  UNL     1      12.408  22.542  14.257  1.00  0.00     0.006 C 
ENDBRANCH  17  30
ENDBRANCH   9  12
ENDBRANCH   5   6
BRANCH   5  32
HETATM   32  C15 UNL     1      19.958  27.434  15.239  1.00  0.00     0.286 C 
HETATM   33  O3  UNL     1      20.060  28.673  15.032  1.00  0.00    -0.263 OA
BRANCH  32  34
HETATM   34  O4  UNL     1      19.695  26.661  14.113  1.00  0.00    -0.325 OA
HETATM   35  C16 UNL     1      18.381  26.644  13.602  1.00  0.00     0.213 C 
ENDBRANCH  32  34
ENDBRANCH   5  32
ENDBRANCH   1   5
BRANCH   4  36
HETATM   36  C20 UNL     1      21.445  27.432  19.607  1.00  0.00     0.153 C 
BRANCH  36  37
HETATM   37  N6  UNL     1      20.484  26.439  20.016  1.00  0.00    -0.333 N 
HETATM   38  C21 UNL     1      20.797  25.377  20.852  1.00  0.00     0.361 C 
HETATM   39  O5  UNL     1      21.923  25.162  21.344  1.00  0.00    -0.238 OA
ATOM     40  H6  UNL     1      19.526  26.521  19.673  1.00  0.00     0.165 HD
BRANCH  38  41
HETATM   41  O6  UNL     1      19.785  24.454  21.188  1.00  0.00    -0.294 OA
BRANCH  41  42
HETATM   42  C22 UNL     1      19.750  23.191  20.557  1.00  0.00     0.061 C 
HETATM   43  C23 UNL     1      18.296  22.800  20.327  1.00  0.00     0.046 C 
HETATM   44  C24 UNL     1      20.429  23.213  19.208  1.00  0.00     0.046 C 
HETATM   45  C25 UNL     1      20.416  22.144  21.424  1.00  0.00     0.046 C 
ENDBRANCH  41  42
ENDBRANCH  38  41
ENDBRANCH  36  37
ENDBRANCH   4  36
TORSDOF 16
ENDMDL
MODEL 2
REMARK VINA RESULT: -7.859980236      2.540      9.484
REMARK  16 active torsions:
REMARK  status: ('A' for Active; 'I' for Inactive)
REMARK    1  A    between atoms: C2_2  and  C3_3 
REMARK    2  A    between atoms: C4_4  and  O1_5 
REMARK    3  A    between atoms: N1_7  and  C6_8 
REMARK    4  A    between atoms: C6_8  and  C7_9 
REMARK    5  A    between atoms: C7_9  and  C8_10 
REMARK    6  A    between atoms: C8_10  and  C9_11 
REMARK    7  A    between atoms: C9_11  and  N2_12 
REMARK    8  A    between atoms: N3_18  and  C11_19 
REMARK    9  A    between atoms: N4_22  and  C14_23 
REMARK   10  A    between atoms: C14_23  and  C15_24 
REMARK   11  A    between atoms: C14_23  and  C17_28 
REMARK   12  A    between atoms: C15_24  and  O4_26 
REMARK   13  A    between atoms: C19_31  and  C20_32 
REMARK   14  A    between atoms: C20_32  and  N6_33 
REMARK       I    between atoms: N6_33  and  C21_35 
REMARK   15  A    between atoms: C21_35  and  O6_37 
REMARK   16  A    between atoms: O6_37  and  C22_38 
ROOT
HETATM    1  C17 UNL     1      11.737  18.647  17.398  1.00  0.00     0.052 C 
HETATM    2  C18 UNL     1      11.701  17.180  17.745  1.00  0.00     0.097 C 
HETATM    3  N5  UNL     1      11.688  16.060  18.024  1.00  0.00    -0.192 NA
HETATM    4  C19 UNL     1      11.252  18.886  16.248  1.00  0.00     0.013 C 
ENDROOT
BRANCH   1   5
HETATM    5  C14 UNL     1      12.320  19.504  18.470  1.00  0.00     0.227 C 
BRANCH   5   6
HETATM    6  N4  UNL     1      13.593  20.043  17.992  1.00  0.00    -0.375 N 
HETATM    7  C13 UNL     1      13.732  21.362  18.483  1.00  0.00     0.125 C 
HETATM    8  C12 UNL     1      14.948  21.988  17.770  1.00  0.00     0.045 C 
HETATM    9  C11 UNL     1      16.125  21.191  18.249  1.00  0.00     0.095 C 
HETATM   10  C27 UNL     1      15.998  19.818  17.636  1.00  0.00     0.069 C 
HETATM   11  C26 UNL     1      14.686  19.173  18.002  1.00  0.00     0.061 C 
BRANCH   9  12
HETATM   12  N3  UNL     1      17.392  21.799  18.166  1.00  0.00    -0.324 N 
HETATM   13  C10 UNL     1      17.873  22.300  16.895  1.00  0.00     0.323 C 
HETATM   14  N1  UNL     1      18.758  23.416  16.921  1.00  0.00    -0.307 N 
HETATM   15  O2  UNL     1      17.522  21.766  15.817  1.00  0.00    -0.247 OA
HETATM   16  C4  UNL     1      18.750  24.200  18.151  1.00  0.00     0.232 C 
HETATM   17  C3  UNL     1      18.842  23.390  19.405  1.00  0.00     0.057 C 
HETATM   18  C28 UNL     1      18.326  21.978  19.258  1.00  0.00     0.093 C 
HETATM   19  C29 UNL     1      17.830  21.406  20.560  1.00  0.00     0.033 C 
BRANCH  14  20
HETATM   20  C6  UNL     1      19.578  23.735  15.803  1.00  0.00     0.130 C 
BRANCH  20  21
HETATM   21  C7  UNL     1      20.361  24.976  15.797  1.00  0.00     0.022 C 
BRANCH  21  22
HETATM   22  C8  UNL     1      20.325  25.729  14.514  1.00  0.00     0.029 C 
BRANCH  22  23
HETATM   23  C9  UNL     1      19.205  26.780  14.526  1.00  0.00     0.229 C 
BRANCH  23  24
HETATM   24  N2  UNL     1      19.822  28.093  14.481  1.00  0.00    -0.079 N 
ATOM     25  H23 UNL     1      19.525  28.695  15.249  1.00  0.00     0.274 HD
ATOM     26  H22 UNL     1      20.817  28.069  14.704  1.00  0.00     0.274 HD
ATOM     27  H21 UNL     1      19.633  28.499  13.565  1.00  0.00     0.274 HD
ENDBRANCH  23  24
ENDBRANCH  22  23
ENDBRANCH  21  22
ENDBRANCH  20  21
ENDBRANCH  14  20
BRANCH  16  28
HETATM   28  O1  UNL     1      17.747  25.111  18.227  1.00  0.00    -0.371 OA
HETATM   29  C5  UNL     1      17.002  25.296  17.086  1.00  0.00     0.204 C 
ENDBRANCH  16  28
BRANCH  17  30
HETATM   30  C2  UNL     1      18.292  24.108  20.575  1.00  0.00     0.006 C 
HETATM   31  C1  UNL     1      19.112  25.029  21.351  1.00  0.00     0.006 C 
ENDBRANCH  17  30
ENDBRANCH   9  12
ENDBRANCH   5   6
BRANCH   5  32
HETATM   32  C15 UNL     1      12.436  18.927  19.798  1.00  0.00     0.286 C 
HETATM   33  O3  UNL     1      11.399  18.699  20.476  1.00  0.00    -0.263 OA
BRANCH  32  34
HETATM   34  O4  UNL     1      13.637  18.590  20.414  1.00  0.00    -0.325 OA
HETATM   35  C16 UNL     1      14.093  19.391  21.480  1.00  0.00     0.213 C 
ENDBRANCH  32  34
ENDBRANCH   5  32
ENDBRANCH   1   5
BRANCH   4  36
HETATM   36  C20 UNL     1      11.040  20.080  15.436  1.00  0.00     0.153 C 
BRANCH  36  37
HETATM   37  N6  UNL     1      12.288  20.789  15.308  1.00  0.00    -0.333 N 
HETATM   38  C21 UNL     1      13.258  20.459  14.372  1.00  0.00     0.361 C 
HETATM   39  O5  UNL     1      13.164  19.530  13.544  1.00  0.00    -0.238 OA
ATOM     40  H6  UNL     1      12.467  21.573  15.935  1.00  0.00     0.165 HD
BRANCH  38  41
HETATM   41  O6  UNL     1      14.449  21.212  14.331  1.00  0.00    -0.294 OA
BRANCH  41  42
HETATM   42  C22 UNL     1      14.477  22.442  13.640  1.00  0.00     0.061 C 
HETATM   43  C23 UNL     1      13.097  23.080  13.720  1.00  0.00     0.046 C 
HETATM   44  C24 UNL     1      15.459  23.414  14.253  1.00  0.00     0.046 C 
HETATM   45  C25 UNL     1      14.843  22.229  12.187  1.00  0.00     0.046 C 
ENDBRANCH  41  42
ENDBRANCH  38  41
ENDBRANCH  36  37
ENDBRANCH   4  36
TORSDOF 16
ENDMDL
MODEL 3
REMARK VINA RESULT: -7.816901587      2.360      4.380
REMARK  16 active torsions:
REMARK  status: ('A' for Active; 'I' for Inactive)
REMARK    1  A    between atoms: C2_2  and  C3_3 
REMARK    2  A    between atoms: C4_4  and  O1_5 
REMARK    3  A    between atoms: N1_7  and  C6_8 
REMARK    4  A    between atoms: C6_8  and  C7_9 
REMARK    5  A    between atoms: C7_9  and  C8_10 
REMARK    6  A    between atoms: C8_10  and  C9_11 
REMARK    7  A    between atoms: C9_11  and  N2_12 
REMARK    8  A    between atoms: N3_18  and  C11_19 
REMARK    9  A    between atoms: N4_22  and  C14_23 
REMARK   10  A    between atoms: C14_23  and  C15_24 
REMARK   11  A    between atoms: C14_23  and  C17_28 
REMARK   12  A    between atoms: C15_24  and  O4_26 
REMARK   13  A    between atoms: C19_31  and  C20_32 
REMARK   14  A    between atoms: C20_32  and  N6_33 
REMARK       I    between atoms: N6_33  and  C21_35 
REMARK   15  A    between atoms: C21_35  and  O6_37 
REMARK   16  A    between atoms: O6_37  and  C22_38 
ROOT
HETATM    1  C17 UNL     1      21.541  26.816  17.550  1.00  0.00     0.052 C 
HETATM    2  C18 UNL     1      21.497  26.772  19.056  1.00  0.00     0.097 C 
HETATM    3  N5  UNL     1      21.443  26.745  20.210  1.00  0.00    -0.192 NA
HETATM    4  C19 UNL     1      22.730  26.801  17.098  1.00  0.00     0.013 C 
ENDROOT
BRANCH   1   5
HETATM    5  C14 UNL     1      20.196  26.861  16.909  1.00  0.00     0.227 C 
BRANCH   5   6
HETATM    6  N4  UNL     1      19.585  25.537  17.020  1.00  0.00    -0.375 N 
HETATM    7  C13 UNL     1      18.197  25.702  17.236  1.00  0.00     0.125 C 
HETATM    8  C12 UNL     1      17.623  24.315  17.593  1.00  0.00     0.045 C 
HETATM    9  C11 UNL     1      17.802  23.495  16.350  1.00  0.00     0.095 C 
HETATM   10  C27 UNL     1      19.284  23.258  16.196  1.00  0.00     0.069 C 
HETATM   11  C26 UNL     1      20.045  24.558  16.135  1.00  0.00     0.061 C 
BRANCH   9  12
HETATM   12  N3  UNL     1      16.969  22.371  16.194  1.00  0.00    -0.324 N 
HETATM   13  C10 UNL     1      16.890  21.377  17.244  1.00  0.00     0.323 C 
HETATM   14  N1  UNL     1      15.662  20.668  17.386  1.00  0.00    -0.307 N 
HETATM   15  O2  UNL     1      17.867  21.153  17.996  1.00  0.00    -0.247 OA
HETATM   16  C4  UNL     1      14.496  21.293  16.772  1.00  0.00     0.232 C 
HETATM   17  C3  UNL     1      14.710  21.757  15.366  1.00  0.00     0.057 C 
HETATM   18  C28 UNL     1      16.151  22.069  15.038  1.00  0.00     0.093 C 
HETATM   19  C29 UNL     1      16.285  23.087  13.936  1.00  0.00     0.033 C 
BRANCH  14  20
HETATM   20  C6  UNL     1      15.597  19.437  18.098  1.00  0.00     0.130 C 
BRANCH  20  21
HETATM   21  C7  UNL     1      14.351  18.663  18.113  1.00  0.00     0.022 C 
BRANCH  21  22
HETATM   22  C8  UNL     1      14.022  18.039  19.424  1.00  0.00     0.029 C 
BRANCH  22  23
HETATM   23  C9  UNL     1      13.629  19.107  20.455  1.00  0.00     0.229 C 
BRANCH  23  24
HETATM   24  N2  UNL     1      12.393  18.683  21.090  1.00  0.00    -0.079 N 
ATOM     25  H23 UNL     1      11.940  19.433  21.612  1.00  0.00     0.274 HD
ATOM     26  H22 UNL     1      11.644  18.513  20.419  1.00  0.00     0.274 HD
ATOM     27  H21 UNL     1      12.600  17.868  21.666  1.00  0.00     0.274 HD
ENDBRANCH  23  24
ENDBRANCH  22  23
ENDBRANCH  21  22
ENDBRANCH  20  21
ENDBRANCH  14  20
BRANCH  16  28
HETATM   28  O1  UNL     1      13.918  22.261  17.526  1.00  0.00    -0.371 OA
HETATM   29  C5  UNL     1      14.367  22.377  18.820  1.00  0.00     0.204 C 
ENDBRANCH  16  28
BRANCH  17  30
HETATM   30  C2  UNL     1      13.765  22.829  14.983  1.00  0.00     0.006 C 
HETATM   31  C1  UNL     1      12.545  22.533  14.243  1.00  0.00     0.006 C 
ENDBRANCH  17  30
ENDBRANCH   9  12
ENDBRANCH   5   6
BRANCH   5  32
HETATM   32  C15 UNL     1      20.115  27.388  15.558  1.00  0.00     0.286 C 
HETATM   33  O3  UNL     1      20.320  28.614  15.349  1.00  0.00    -0.263 OA
BRANCH  32  34
HETATM   34  O4  UNL     1      19.822  26.631  14.428  1.00  0.00    -0.325 OA
HETATM   35  C16 UNL     1      18.540  26.751  13.854  1.00  0.00     0.213 C 
ENDBRANCH  32  34
ENDBRANCH   5  32
ENDBRANCH   1   5
BRANCH   4  36
HETATM   36  C20 UNL     1      23.339  26.823  15.773  1.00  0.00     0.153 C 
BRANCH  36  37
HETATM   37  N6  UNL     1      24.044  28.068  15.600  1.00  0.00    -0.333 N 
HETATM   38  C21 UNL     1      25.421  28.148  15.449  1.00  0.00     0.361 C 
HETATM   39  O5  UNL     1      26.197  27.171  15.441  1.00  0.00    -0.238 OA
ATOM     40  H6  UNL     1      23.504  28.933  15.587  1.00  0.00     0.165 HD
BRANCH  38  41
HETATM   41  O6  UNL     1      26.015  29.417  15.292  1.00  0.00    -0.294 OA
BRANCH  41  42
HETATM   42  C22 UNL     1      26.406  30.154  16.431  1.00  0.00     0.061 C 
HETATM   43  C23 UNL     1      25.491  31.363  16.568  1.00  0.00     0.046 C 
HETATM   44  C24 UNL     1      26.277  29.345  17.701  1.00  0.00     0.046 C 
HETATM   45  C25 UNL     1      27.838  30.626  16.295  1.00  0.00     0.046 C 
ENDBRANCH  41  42
ENDBRANCH  38  41
ENDBRANCH  36  37
ENDBRANCH   4  36
TORSDOF 16
ENDMDL
MODEL 4
REMARK VINA RESULT: -7.719368724      3.567     10.439
REMARK  16 active torsions:
REMARK  status: ('A' for Active; 'I' for Inactive)
REMARK    1  A    between atoms: C2_2  and  C3_3 
REMARK    2  A    between atoms: C4_4  and  O1_5 
REMARK    3  A    between atoms: N1_7  and  C6_8 
REMARK    4  A    between atoms: C6_8  and  C7_9 
REMARK    5  A    between atoms: C7_9  and  C8_10 
REMARK    6  A    between atoms: C8_10  and  C9_11 
REMARK    7  A    between atoms: C9_11  and  N2_12 
REMARK    8  A    between atoms: N3_18  and  C11_19 
REMARK    9  A    between atoms: N4_22  and  C14_23 
REMARK   10  A    between atoms: C14_23  and  C15_24 
REMARK   11  A    between atoms: C14_23  and  C17_28 
REMARK   12  A    between atoms: C15_24  and  O4_26 
REMARK   13  A    between atoms: C19_31  and  C20_32 
REMARK   14  A    between atoms: C20_32  and  N6_33 
REMARK       I    between atoms: N6_33  and  C21_35 
REMARK   15  A    between atoms: C21_35  and  O6_37 
REMARK   16  A    between atoms: O6_37  and  C22_38 
ROOT
HETATM    1  C17 UNL     1      11.586  18.443  17.529  1.00  0.00     0.052 C 
HETATM    2  C18 UNL     1      11.178  17.107  18.099  1.00  0.00     0.097 C 
HETATM    3  N5  UNL     1      10.878  16.088  18.552  1.00  0.00    -0.192 NA
HETATM    4  C19 UNL     1      11.353  18.530  16.283  1.00  0.00     0.013 C 
ENDROOT
BRANCH   1   5
HETATM    5  C14 UNL     1      12.164  19.375  18.538  1.00  0.00     0.227 C 
BRANCH   5   6
HETATM    6  N4  UNL     1      13.429  19.894  18.019  1.00  0.00    -0.375 N 
HETATM    7  C13 UNL     1      13.556  21.246  18.418  1.00  0.00     0.125 C 
HETATM    8  C12 UNL     1      14.762  21.834  17.659  1.00  0.00     0.045 C 
HETATM    9  C11 UNL     1      15.950  21.085  18.186  1.00  0.00     0.095 C 
HETATM   10  C27 UNL     1      15.836  19.672  17.669  1.00  0.00     0.069 C 
HETATM   11  C26 UNL     1      14.532  19.039  18.084  1.00  0.00     0.061 C 
BRANCH   9  12
HETATM   12  N3  UNL     1      17.210  21.699  18.056  1.00  0.00    -0.324 N 
HETATM   13  C10 UNL     1      17.650  22.181  16.763  1.00  0.00     0.323 C 
HETATM   14  N1  UNL     1      18.527  23.303  16.745  1.00  0.00    -0.307 N 
HETATM   15  O2  UNL     1      17.272  21.627  15.705  1.00  0.00    -0.247 OA
HETATM   16  C4  UNL     1      18.550  24.109  17.961  1.00  0.00     0.232 C 
HETATM   17  C3  UNL     1      18.683  23.320  19.225  1.00  0.00     0.057 C 
HETATM   18  C28 UNL     1      18.173  21.903  19.117  1.00  0.00     0.093 C 
HETATM   19  C29 UNL     1      17.719  21.350  20.443  1.00  0.00     0.033 C 
BRANCH  14  20
HETATM   20  C6  UNL     1      19.313  23.609  15.598  1.00  0.00     0.130 C 
BRANCH  20  21
HETATM   21  C7  UNL     1      20.267  24.723  15.637  1.00  0.00     0.022 C 
BRANCH  21  22
HETATM   22  C8  UNL     1      19.958  25.840  14.703  1.00  0.00     0.029 C 
BRANCH  22  23
HETATM   23  C9  UNL     1      20.117  27.199  15.401  1.00  0.00     0.229 C 
BRANCH  23  24
HETATM   24  N2  UNL     1      19.722  28.233  14.462  1.00  0.00    -0.079 N 
ATOM     25  H23 UNL     1      19.979  28.012  13.499  1.00  0.00     0.274 HD
ATOM     26  H22 UNL     1      18.711  28.278  14.326  1.00  0.00     0.274 HD
ATOM     27  H21 UNL     1      20.116  29.117  14.783  1.00  0.00     0.274 HD
ENDBRANCH  23  24
ENDBRANCH  22  23
ENDBRANCH  21  22
ENDBRANCH  20  21
ENDBRANCH  14  20
BRANCH  16  28
HETATM   28  O1  UNL     1      17.543  25.014  18.051  1.00  0.00    -0.371 OA
HETATM   29  C5  UNL     1      16.962  25.401  16.866  1.00  0.00     0.204 C 
ENDBRANCH  16  28
BRANCH  17  30
HETATM   30  C2  UNL     1      18.162  24.055  20.398  1.00  0.00     0.006 C 
HETATM   31  C1  UNL     1      19.051  24.799  21.281  1.00  0.00     0.006 C 
ENDBRANCH  17  30
ENDBRANCH   9  12
ENDBRANCH   5   6
BRANCH   5  32
HETATM   32  C15 UNL     1      12.292  18.891  19.902  1.00  0.00     0.286 C 
HETATM   33  O3  UNL     1      11.267  18.778  20.626  1.00  0.00    -0.263 OA
BRANCH  32  34
HETATM   34  O4  UNL     1      13.491  18.524  20.504  1.00  0.00    -0.325 OA
HETATM   35  C16 UNL     1      14.037  19.375  21.486  1.00  0.00     0.213 C 
ENDBRANCH  32  34
ENDBRANCH   5  32
ENDBRANCH   1   5
BRANCH   4  36
HETATM   36  C20 UNL     1      11.537  19.554  15.259  1.00  0.00     0.153 C 
BRANCH  36  37
HETATM   37  N6  UNL     1      12.151  18.956  14.101  1.00  0.00    -0.333 N 
HETATM   38  C21 UNL     1      11.425  18.375  13.071  1.00  0.00     0.361 C 
HETATM   39  O5  UNL     1      10.180  18.306  13.024  1.00  0.00    -0.238 OA
ATOM     40  H6  UNL     1      13.169  18.961  14.034  1.00  0.00     0.165 HD
BRANCH  38  41
HETATM   41  O6  UNL     1      12.121  17.810  11.983  1.00  0.00    -0.294 OA
BRANCH  41  42
HETATM   42  C22 UNL     1      12.158  16.408  11.824  1.00  0.00     0.061 C 
HETATM   43  C23 UNL     1      13.606  15.975  11.638  1.00  0.00     0.046 C 
HETATM   44  C24 UNL     1      11.625  15.687  13.040  1.00  0.00     0.046 C 
HETATM   45  C25 UNL     1      11.352  15.987  10.614  1.00  0.00     0.046 C 
ENDBRANCH  41  42
ENDBRANCH  38  41
ENDBRANCH  36  37
ENDBRANCH   4  36
TORSDOF 16
ENDMDL
MODEL 5
REMARK VINA RESULT: -7.717320155      2.365      3.868
REMARK  16 active torsions:
REMARK  status: ('A' for Active; 'I' for Inactive)
REMARK    1  A    between atoms: C2_2  and  C3_3 
REMARK    2  A    between atoms: C4_4  and  O1_5 
REMARK    3  A    between atoms: N1_7  and  C6_8 
REMARK    4  A    between atoms: C6_8  and  C7_9 
REMARK    5  A    between atoms: C7_9  and  C8_10 
REMARK    6  A    between atoms: C8_10  and  C9_11 
REMARK    7  A    between atoms: C9_11  and  N2_12 
REMARK    8  A    between atoms: N3_18  and  C11_19 
REMARK    9  A    between atoms: N4_22  and  C14_23 
REMARK   10  A    between atoms: C14_23  and  C15_24 
REMARK   11  A    between atoms: C14_23  and  C17_28 
REMARK   12  A    between atoms: C15_24  and  O4_26 
REMARK   13  A    between atoms: C19_31  and  C20_32 
REMARK   14  A    between atoms: C20_32  and  N6_33 
REMARK       I    between atoms: N6_33  and  C21_35 
REMARK   15  A    between atoms: C21_35  and  O6_37 
REMARK   16  A    between atoms: O6_37  and  C22_38 
ROOT
HETATM    1  C17 UNL     1      21.348  26.881  17.786  1.00  0.00     0.052 C 
HETATM    2  C18 UNL     1      21.193  26.818  19.285  1.00  0.00     0.097 C 
HETATM    3  N5  UNL     1      21.055  26.776  20.431  1.00  0.00    -0.192 NA
HETATM    4  C19 UNL     1      22.567  26.905  17.425  1.00  0.00     0.013 C 
ENDROOT
BRANCH   1   5
HETATM    5  C14 UNL     1      20.054  26.894  17.048  1.00  0.00     0.227 C 
BRANCH   5   6
HETATM    6  N4  UNL     1      19.438  25.572  17.168  1.00  0.00    -0.375 N 
HETATM    7  C13 UNL     1      18.033  25.736  17.212  1.00  0.00     0.125 C 
HETATM    8  C12 UNL     1      17.426  24.369  17.585  1.00  0.00     0.045 C 
HETATM    9  C11 UNL     1      17.750  23.475  16.424  1.00  0.00     0.095 C 
HETATM   10  C27 UNL     1      19.241  23.245  16.457  1.00  0.00     0.069 C 
HETATM   11  C26 UNL     1      20.000  24.546  16.405  1.00  0.00     0.061 C 
BRANCH   9  12
HETATM   12  N3  UNL     1      16.945  22.336  16.242  1.00  0.00    -0.324 N 
HETATM   13  C10 UNL     1      16.883  21.320  17.273  1.00  0.00     0.323 C 
HETATM   14  N1  UNL     1      15.672  20.581  17.395  1.00  0.00    -0.307 N 
HETATM   15  O2  UNL     1      17.863  21.104  18.024  1.00  0.00    -0.247 OA
HETATM   16  C4  UNL     1      14.495  21.190  16.787  1.00  0.00     0.232 C 
HETATM   17  C3  UNL     1      14.704  21.687  15.391  1.00  0.00     0.057 C 
HETATM   18  C28 UNL     1      16.139  22.037  15.077  1.00  0.00     0.093 C 
HETATM   19  C29 UNL     1      16.254  23.080  13.995  1.00  0.00     0.033 C 
BRANCH  14  20
HETATM   20  C6  UNL     1      15.632  19.335  18.082  1.00  0.00     0.130 C 
BRANCH  20  21
HETATM   21  C7  UNL     1      14.360  18.621  18.236  1.00  0.00     0.022 C 
BRANCH  21  22
HETATM   22  C8  UNL     1      14.090  18.118  19.610  1.00  0.00     0.029 C 
BRANCH  22  23
HETATM   23  C9  UNL     1      12.584  17.919  19.836  1.00  0.00     0.229 C 
BRANCH  23  24
HETATM   24  N2  UNL     1      12.217  18.623  21.051  1.00  0.00    -0.079 N 
ATOM     25  H23 UNL     1      12.801  19.442  21.225  1.00  0.00     0.274 HD
ATOM     26  H22 UNL     1      11.323  19.108  20.971  1.00  0.00     0.274 HD
ATOM     27  H21 UNL     1      12.235  17.954  21.820  1.00  0.00     0.274 HD
ENDBRANCH  23  24
ENDBRANCH  22  23
ENDBRANCH  21  22
ENDBRANCH  20  21
ENDBRANCH  14  20
BRANCH  16  28
HETATM   28  O1  UNL     1      13.890  22.130  17.556  1.00  0.00    -0.371 OA
HETATM   29  C5  UNL     1      14.329  22.229  18.856  1.00  0.00     0.204 C 
ENDBRANCH  16  28
BRANCH  17  30
HETATM   30  C2  UNL     1      13.736  22.743  15.024  1.00  0.00     0.006 C 
HETATM   31  C1  UNL     1      12.520  22.432  14.284  1.00  0.00     0.006 C 
ENDBRANCH  17  30
ENDBRANCH   9  12
ENDBRANCH   5   6
BRANCH   5  32
HETATM   32  C15 UNL     1      20.073  27.363  15.673  1.00  0.00     0.286 C 
HETATM   33  O3  UNL     1      20.270  28.583  15.430  1.00  0.00    -0.263 OA
BRANCH  32  34
HETATM   34  O4  UNL     1      19.885  26.555  14.556  1.00  0.00    -0.325 OA
HETATM   35  C16 UNL     1      18.663  26.647  13.859  1.00  0.00     0.213 C 
ENDBRANCH  32  34
ENDBRANCH   5  32
ENDBRANCH   1   5
BRANCH   4  36
HETATM   36  C20 UNL     1      23.273  26.959  16.149  1.00  0.00     0.153 C 
BRANCH  36  37
HETATM   37  N6  UNL     1      24.501  26.214  16.259  1.00  0.00    -0.333 N 
HETATM   38  C21 UNL     1      25.726  26.697  15.821  1.00  0.00     0.361 C 
HETATM   39  O5  UNL     1      25.907  27.814  15.295  1.00  0.00    -0.238 OA
ATOM     40  H6  UNL     1      24.469  25.285  16.680  1.00  0.00     0.165 HD
BRANCH  38  41
HETATM   41  O6  UNL     1      26.869  25.886  15.968  1.00  0.00    -0.294 OA
BRANCH  41  42
HETATM   42  C22 UNL     1      27.444  25.709  17.245  1.00  0.00     0.061 C 
HETATM   43  C23 UNL     1      28.956  25.608  17.091  1.00  0.00     0.046 C 
HETATM   44  C24 UNL     1      27.162  26.879  18.160  1.00  0.00     0.046 C 
HETATM   45  C25 UNL     1      26.924  24.445  17.894  1.00  0.00     0.046 C 
ENDBRANCH  41  42
ENDBRANCH  38  41
ENDBRANCH  36  37
ENDBRANCH   4  36
TORSDOF 16
ENDMDL
