MODEL 1
REMARK VINA RESULT: -5.192890999      0.000      0.000
REMARK  6 active torsions:
REMARK  status: ('A' for Active; 'I' for Inactive)
REMARK    1  A    between atoms: N1_1  and  C1_5 
REMARK    2  A    between atoms: C1_5  and  C2_6 
REMARK    3  A    between atoms: C2_6  and  C3_7 
REMARK    4  A    between atoms: C3_7  and  C4_8 
REMARK    5  A    between atoms: C4_8  and  N2_9 
REMARK    6  A    between atoms: N2_9  and  C5_11 
ROOT
HETATM    1  N2  UNL     1      11.716  30.190  34.455  1.00  0.00    -0.375 N 
ATOM      2  H2  UNL     1      12.142  30.963  34.967  1.00  0.00     0.161 HD
ENDROOT
BRANCH   1   3
HETATM    3  C4  UNL     1      10.508  29.645  35.001  1.00  0.00     0.121 C 
BRANCH   3   4
HETATM    4  C3  UNL     1      10.282  30.289  36.375  1.00  0.00     0.021 C 
BRANCH   4   5
HETATM    5  C2  UNL     1      10.405  31.777  36.169  1.00  0.00     0.029 C 
BRANCH   5   6
HETATM    6  C1  UNL     1       9.657  32.555  37.230  1.00  0.00     0.229 C 
BRANCH   6   7
HETATM    7  N1  UNL     1       9.155  33.740  36.601  1.00  0.00    -0.079 N 
ATOM      8  H13 UNL     1       9.251  33.728  35.586  1.00  0.00     0.274 HD
ATOM      9  H12 UNL     1       8.137  33.812  36.634  1.00  0.00     0.274 HD
ATOM     10  H11 UNL     1       9.627  34.531  37.038  1.00  0.00     0.274 HD
ENDBRANCH   6   7
ENDBRANCH   5   6
ENDBRANCH   4   5
ENDBRANCH   3   4
ENDBRANCH   1   3
BRANCH   1  11
HETATM   11  C5  UNL     1      12.308  29.808  33.399  1.00  0.00     0.125 A 
HETATM   12  N3  UNL     1      12.614  28.537  33.093  1.00  0.00    -0.351 N 
HETATM   13  C6  UNL     1      13.248  28.226  31.940  1.00  0.00     0.090 A 
ATOM     14  H3  UNL     1      12.363  27.792  33.743  1.00  0.00     0.166 HD
HETATM   15  C7  UNL     1      13.613  29.184  31.024  1.00  0.00     0.019 A 
HETATM   16  C8  UNL     1      13.315  30.498  31.305  1.00  0.00     0.032 A 
HETATM   17  C9  UNL     1      12.670  30.793  32.483  1.00  0.00     0.090 A 
HETATM   18  N4  UNL     1      12.370  32.154  32.756  1.00  0.00    -0.098 NA
ENDBRANCH   1  11
TORSDOF 6
ENDMDL
MODEL 2
REMARK VINA RESULT: -5.154779869      1.522      2.031
REMARK  6 active torsions:
REMARK  status: ('A' for Active; 'I' for Inactive)
REMARK    1  A    between atoms: N1_1  and  C1_5 
REMARK    2  A    between atoms: C1_5  and  C2_6 
REMARK    3  A    between atoms: C2_6  and  C3_7 
REMARK    4  A    between atoms: C3_7  and  C4_8 
REMARK    5  A    between atoms: C4_8  and  N2_9 
REMARK    6  A    between atoms: N2_9  and  C5_11 
ROOT
HETATM    1  N2  UNL     1      11.832  28.960  33.010  1.00  0.00    -0.375 N 
ATOM      2  H2  UNL     1      12.213  29.412  33.841  1.00  0.00     0.161 HD
ENDROOT
BRANCH   1   3
HETATM    3  C4  UNL     1      10.601  28.245  33.174  1.00  0.00     0.121 C 
BRANCH   3   4
HETATM    4  C3  UNL     1       9.831  28.896  34.331  1.00  0.00     0.021 C 
BRANCH   4   5
HETATM    5  C2  UNL     1      10.872  29.437  35.278  1.00  0.00     0.029 C 
BRANCH   5   6
HETATM    6  C1  UNL     1      10.465  30.775  35.855  1.00  0.00     0.229 C 
BRANCH   6   7
HETATM    7  N1  UNL     1      11.402  31.743  35.364  1.00  0.00    -0.079 N 
ATOM      8  H13 UNL     1      12.332  31.357  35.207  1.00  0.00     0.274 HD
ATOM      9  H12 UNL     1      11.217  32.029  34.402  1.00  0.00     0.274 HD
ATOM     10  H11 UNL     1      11.397  32.521  36.022  1.00  0.00     0.274 HD
ENDBRANCH   6   7
ENDBRANCH   5   6
ENDBRANCH   4   5
ENDBRANCH   3   4
ENDBRANCH   1   3
BRANCH   1  11
HETATM   11  C5  UNL     1      12.495  29.086  31.935  1.00  0.00     0.125 A 
HETATM   12  N3  UNL     1      12.815  28.089  31.095  1.00  0.00    -0.351 N 
HETATM   13  C6  UNL     1      13.527  28.322  29.969  1.00  0.00     0.090 A 
ATOM     14  H3  UNL     1      12.515  27.138  31.310  1.00  0.00     0.166 HD
HETATM   15  C7  UNL     1      13.960  29.580  29.624  1.00  0.00     0.019 A 
HETATM   16  C8  UNL     1      13.650  30.627  30.462  1.00  0.00     0.032 A 
HETATM   17  C9  UNL     1      12.926  30.369  31.602  1.00  0.00     0.090 A 
HETATM   18  N4  UNL     1      12.614  31.460  32.456  1.00  0.00    -0.098 NA
ENDBRANCH   1  11
TORSDOF 6
ENDMDL
MODEL 3
REMARK VINA RESULT: -4.911020488      1.496      1.697
REMARK  6 active torsions:
REMARK  status: ('A' for Active; 'I' for Inactive)
REMARK    1  A    between atoms: N1_1  and  C1_5 
REMARK    2  A    between atoms: C1_5  and  C2_6 
REMARK    3  A    between atoms: C2_6  and  C3_7 
REMARK    4  A    between atoms: C3_7  and  C4_8 
REMARK    5  A    between atoms: C4_8  and  N2_9 
REMARK    6  A    between atoms: N2_9  and  C5_11 
ROOT
HETATM    1  N2  UNL     1      11.762  30.677  34.640  1.00  0.00    -0.375 N 
ATOM      2  H2  UNL     1      12.213  31.542  34.938  1.00  0.00     0.161 HD
ENDROOT
BRANCH   1   3
HETATM    3  C4  UNL     1      10.664  30.216  35.435  1.00  0.00     0.121 C 
BRANCH   3   4
HETATM    4  C3  UNL     1      10.252  31.358  36.374  1.00  0.00     0.021 C 
BRANCH   4   5
HETATM    5  C2  UNL     1       9.120  30.825  37.214  1.00  0.00     0.029 C 
BRANCH   5   6
HETATM    6  C1  UNL     1       8.353  29.735  36.496  1.00  0.00     0.229 C 
BRANCH   6   7
HETATM    7  N1  UNL     1       7.024  29.738  37.034  1.00  0.00    -0.079 N 
ATOM      8  H13 UNL     1       6.948  30.250  37.912  1.00  0.00     0.274 HD
ATOM      9  H12 UNL     1       6.373  30.310  36.494  1.00  0.00     0.274 HD
ATOM     10  H11 UNL     1       6.733  28.764  37.111  1.00  0.00     0.274 HD
ENDBRANCH   6   7
ENDBRANCH   5   6
ENDBRANCH   4   5
ENDBRANCH   3   4
ENDBRANCH   1   3
BRANCH   1  11
HETATM   11  C5  UNL     1      12.231  30.117  33.600  1.00  0.00     0.125 A 
HETATM   12  N3  UNL     1      12.390  28.795  33.432  1.00  0.00    -0.351 N 
HETATM   13  C6  UNL     1      12.899  28.290  32.285  1.00  0.00     0.090 A 
ATOM     14  H3  UNL     1      12.120  28.159  34.183  1.00  0.00     0.166 HD
HETATM   15  C7  UNL     1      13.280  29.094  31.237  1.00  0.00     0.019 A 
HETATM   16  C8  UNL     1      13.131  30.455  31.375  1.00  0.00     0.032 A 
HETATM   17  C9  UNL     1      12.612  30.948  32.549  1.00  0.00     0.090 A 
HETATM   18  N4  UNL     1      12.465  32.355  32.674  1.00  0.00    -0.098 NA
ENDBRANCH   1  11
TORSDOF 6
ENDMDL
MODEL 4
REMARK VINA RESULT: -4.879220304      1.744      5.544
REMARK  6 active torsions:
REMARK  status: ('A' for Active; 'I' for Inactive)
REMARK    1  A    between atoms: N1_1  and  C1_5 
REMARK    2  A    between atoms: C1_5  and  C2_6 
REMARK    3  A    between atoms: C2_6  and  C3_7 
REMARK    4  A    between atoms: C3_7  and  C4_8 
REMARK    5  A    between atoms: C4_8  and  N2_9 
REMARK    6  A    between atoms: N2_9  and  C5_11 
ROOT
HETATM    1  N2  UNL     1      11.681  30.375  34.751  1.00  0.00    -0.375 N 
ATOM      2  H2  UNL     1      12.019  31.262  35.125  1.00  0.00     0.161 HD
ENDROOT
BRANCH   1   3
HETATM    3  C4  UNL     1      12.553  29.682  33.850  1.00  0.00     0.121 C 
BRANCH   3   4
HETATM    4  C3  UNL     1      12.597  30.474  32.536  1.00  0.00     0.021 C 
BRANCH   4   5
HETATM    5  C2  UNL     1      13.875  30.074  31.845  1.00  0.00     0.029 C 
BRANCH   5   6
HETATM    6  C1  UNL     1      13.835  30.385  30.365  1.00  0.00     0.229 C 
BRANCH   6   7
HETATM    7  N1  UNL     1      12.688  29.713  29.829  1.00  0.00    -0.079 N 
ATOM      8  H13 UNL     1      12.764  28.697  29.866  1.00  0.00     0.274 HD
ATOM      9  H12 UNL     1      11.859  29.802  30.417  1.00  0.00     0.274 HD
ATOM     10  H11 UNL     1      12.549  30.071  28.884  1.00  0.00     0.274 HD
ENDBRANCH   6   7
ENDBRANCH   5   6
ENDBRANCH   4   5
ENDBRANCH   3   4
ENDBRANCH   1   3
BRANCH   1  11
HETATM   11  C5  UNL     1      10.530  29.997  35.131  1.00  0.00     0.125 A 
HETATM   12  N3  UNL     1       9.820  28.996  34.587  1.00  0.00    -0.351 N 
HETATM   13  C6  UNL     1       8.599  28.663  35.062  1.00  0.00     0.090 A 
ATOM     14  H3  UNL     1      10.210  28.475  33.800  1.00  0.00     0.166 HD
HETATM   15  C7  UNL     1       8.019  29.325  36.119  1.00  0.00     0.019 A 
HETATM   16  C8  UNL     1       8.719  30.357  36.701  1.00  0.00     0.032 A 
HETATM   17  C9  UNL     1       9.959  30.679  36.203  1.00  0.00     0.090 A 
HETATM   18  N4  UNL     1      10.668  31.747  36.816  1.00  0.00    -0.098 NA
ENDBRANCH   1  11
TORSDOF 6
ENDMDL
MODEL 5
REMARK VINA RESULT: -4.820985394      1.709      5.785
REMARK  6 active torsions:
REMARK  status: ('A' for Active; 'I' for Inactive)
REMARK    1  A    between atoms: N1_1  and  C1_5 
REMARK    2  A    between atoms: C1_5  and  C2_6 
REMARK    3  A    between atoms: C2_6  and  C3_7 
REMARK    4  A    between atoms: C3_7  and  C4_8 
REMARK    5  A    between atoms: C4_8  and  N2_9 
REMARK    6  A    between atoms: N2_9  and  C5_11 
ROOT
HETATM    1  N2  UNL     1      11.841  30.053  34.658  1.00  0.00    -0.375 N 
ATOM      2  H2  UNL     1      12.432  29.271  34.942  1.00  0.00     0.161 HD
ENDROOT
BRANCH   1   3
HETATM    3  C4  UNL     1      12.223  30.751  33.467  1.00  0.00     0.121 C 
BRANCH   3   4
HETATM    4  C3  UNL     1      12.540  29.704  32.391  1.00  0.00     0.021 C 
BRANCH   4   5
HETATM    5  C2  UNL     1      13.892  30.070  31.832  1.00  0.00     0.029 C 
BRANCH   5   6
HETATM    6  C1  UNL     1      13.809  30.453  30.370  1.00  0.00     0.229 C 
BRANCH   6   7
HETATM    7  N1  UNL     1      12.724  29.707  29.804  1.00  0.00    -0.079 N 
ATOM      8  H13 UNL     1      12.989  29.183  28.971  1.00  0.00     0.274 HD
ATOM      9  H12 UNL     1      12.445  28.909  30.376  1.00  0.00     0.274 HD
ATOM     10  H11 UNL     1      11.965  30.367  29.639  1.00  0.00     0.274 HD
ENDBRANCH   6   7
ENDBRANCH   5   6
ENDBRANCH   4   5
ENDBRANCH   3   4
ENDBRANCH   1   3
BRANCH   1  11
HETATM   11  C5  UNL     1      10.840  30.308  35.396  1.00  0.00     0.125 A 
HETATM   12  N3  UNL     1      10.713  31.381  36.193  1.00  0.00    -0.351 N 
HETATM   13  C6  UNL     1       9.604  31.570  36.945  1.00  0.00     0.090 A 
ATOM     14  H3  UNL     1      11.467  32.068  36.231  1.00  0.00     0.166 HD
HETATM   15  C7  UNL     1       8.555  30.681  36.937  1.00  0.00     0.019 A 
HETATM   16  C8  UNL     1       8.651  29.570  36.132  1.00  0.00     0.032 A 
HETATM   17  C9  UNL     1       9.786  29.397  35.375  1.00  0.00     0.090 A 
HETATM   18  N4  UNL     1       9.868  28.244  34.549  1.00  0.00    -0.098 NA
ENDBRANCH   1  11
TORSDOF 6
ENDMDL
