MODEL 1
REMARK VINA RESULT: -4.940644702      0.000      0.000
REMARK  6 active torsions:
REMARK  status: ('A' for Active; 'I' for Inactive)
REMARK    1  A    between atoms: C4_5  and  N2_6 
REMARK    2  A    between atoms: N2_6  and  C5_8 
REMARK    3  A    between atoms: C5_8  and  C6_9 
REMARK    4  A    between atoms: C6_9  and  C7_10 
REMARK    5  A    between atoms: C7_10  and  C8_11 
REMARK    6  A    between atoms: C8_11  and  N3_12 
ROOT
HETATM    1  N1  UNL     1      12.459  31.768  32.755  1.00  0.00    -0.190 NA
HETATM    2  C1  UNL     1      12.653  30.874  32.046  1.00  0.00     0.119 C 
HETATM    3  C2  UNL     1      12.898  29.746  31.178  1.00  0.00     0.132 A 
HETATM    4  C3  UNL     1      13.014  28.420  31.511  1.00  0.00     0.091 A 
HETATM    5  C4  UNL     1      13.245  27.721  30.359  1.00  0.00     0.118 A 
HETATM    6  N4  UNL     1      13.265  28.620  29.364  1.00  0.00    -0.285 N 
ATOM      7  H4  UNL     1      13.418  28.401  28.380  1.00  0.00     0.188 HD
HETATM    8  N5  UNL     1      13.060  29.820  29.843  1.00  0.00    -0.289 N 
ATOM      9  H5  UNL     1      13.028  30.678  29.291  1.00  0.00     0.188 HD
ENDROOT
BRANCH   5  10
HETATM   10  N2  UNL     1      13.414  26.471  30.199  1.00  0.00    -0.375 N 
ATOM     11  H2  UNL     1      14.083  26.015  30.820  1.00  0.00     0.161 HD
BRANCH  10  12
HETATM   12  C5  UNL     1      12.762  25.642  29.238  1.00  0.00     0.121 C 
BRANCH  12  13
HETATM   13  C6  UNL     1      11.276  25.629  29.565  1.00  0.00     0.021 C 
BRANCH  13  14
HETATM   14  C7  UNL     1      10.428  25.509  28.325  1.00  0.00     0.029 C 
BRANCH  14  15
HETATM   15  C8  UNL     1       9.185  24.679  28.566  1.00  0.00     0.229 C 
BRANCH  15  16
HETATM   16  N3  UNL     1       9.399  23.400  27.882  1.00  0.00    -0.079 N 
ATOM     17  H33 UNL     1       9.340  23.471  26.866  1.00  0.00     0.274 HD
ATOM     18  H32 UNL     1      10.364  23.073  27.931  1.00  0.00     0.274 HD
ATOM     19  H31 UNL     1       8.729  22.743  28.281  1.00  0.00     0.274 HD
ENDBRANCH  15  16
ENDBRANCH  14  15
ENDBRANCH  13  14
ENDBRANCH  12  13
ENDBRANCH  10  12
ENDBRANCH   5  10
TORSDOF 6
ENDMDL
MODEL 2
REMARK VINA RESULT: -4.892425172      4.546      7.624
REMARK  6 active torsions:
REMARK  status: ('A' for Active; 'I' for Inactive)
REMARK    1  A    between atoms: C4_5  and  N2_6 
REMARK    2  A    between atoms: N2_6  and  C5_8 
REMARK    3  A    between atoms: C5_8  and  C6_9 
REMARK    4  A    between atoms: C6_9  and  C7_10 
REMARK    5  A    between atoms: C7_10  and  C8_11 
REMARK    6  A    between atoms: C8_11  and  N3_12 
ROOT
HETATM    1  N1  UNL     1      14.060  30.863  30.542  1.00  0.00    -0.190 NA
HETATM    2  C1  UNL     1      13.499  30.452  31.467  1.00  0.00     0.119 C 
HETATM    3  C2  UNL     1      12.799  29.958  32.630  1.00  0.00     0.132 A 
HETATM    4  C3  UNL     1      12.226  30.673  33.651  1.00  0.00     0.091 A 
HETATM    5  C4  UNL     1      11.679  29.779  34.529  1.00  0.00     0.118 A 
HETATM    6  N4  UNL     1      11.926  28.558  34.033  1.00  0.00    -0.285 N 
ATOM      7  H4  UNL     1      11.640  27.681  34.468  1.00  0.00     0.188 HD
HETATM    8  N5  UNL     1      12.588  28.658  32.909  1.00  0.00    -0.289 N 
ATOM      9  H5  UNL     1      12.896  27.873  32.335  1.00  0.00     0.188 HD
ENDROOT
BRANCH   5  10
HETATM   10  N2  UNL     1      11.052  30.000  35.613  1.00  0.00    -0.375 N 
ATOM     11  H2  UNL     1      11.609  30.300  36.413  1.00  0.00     0.161 HD
BRANCH  10  12
HETATM   12  C5  UNL     1       9.646  29.870  35.822  1.00  0.00     0.121 C 
BRANCH  12  13
HETATM   13  C6  UNL     1       9.254  30.806  36.955  1.00  0.00     0.021 C 
BRANCH  13  14
HETATM   14  C7  UNL     1      10.020  32.104  36.902  1.00  0.00     0.029 C 
BRANCH  14  15
HETATM   15  C8  UNL     1      10.320  32.641  38.286  1.00  0.00     0.229 C 
BRANCH  15  16
HETATM   16  N3  UNL     1      10.150  31.521  39.214  1.00  0.00    -0.079 N 
ATOM     17  H33 UNL     1       9.766  31.800  40.117  1.00  0.00     0.274 HD
ATOM     18  H32 UNL     1       9.398  30.886  38.947  1.00  0.00     0.274 HD
ATOM     19  H31 UNL     1      11.058  31.063  39.286  1.00  0.00     0.274 HD
ENDBRANCH  15  16
ENDBRANCH  14  15
ENDBRANCH  13  14
ENDBRANCH  12  13
ENDBRANCH  10  12
ENDBRANCH   5  10
TORSDOF 6
ENDMDL
MODEL 3
REMARK VINA RESULT: -4.875827739      3.761      5.836
REMARK  6 active torsions:
REMARK  status: ('A' for Active; 'I' for Inactive)
REMARK    1  A    between atoms: C4_5  and  N2_6 
REMARK    2  A    between atoms: N2_6  and  C5_8 
REMARK    3  A    between atoms: C5_8  and  C6_9 
REMARK    4  A    between atoms: C6_9  and  C7_10 
REMARK    5  A    between atoms: C7_10  and  C8_11 
REMARK    6  A    between atoms: C8_11  and  N3_12 
ROOT
HETATM    1  N1  UNL     1       8.717  30.220  37.960  1.00  0.00    -0.190 NA
HETATM    2  C1  UNL     1       9.477  30.426  37.112  1.00  0.00     0.119 C 
HETATM    3  C2  UNL     1      10.427  30.664  36.050  1.00  0.00     0.132 A 
HETATM    4  C3  UNL     1      10.954  29.764  35.158  1.00  0.00     0.091 A 
HETATM    5  C4  UNL     1      11.811  30.446  34.339  1.00  0.00     0.118 A 
HETATM    6  N4  UNL     1      11.789  31.725  34.742  1.00  0.00    -0.285 N 
ATOM      7  H4  UNL     1      12.331  32.480  34.323  1.00  0.00     0.188 HD
HETATM    8  N5  UNL     1      10.972  31.859  35.754  1.00  0.00    -0.289 N 
ATOM      9  H5  UNL     1      10.777  32.733  36.243  1.00  0.00     0.188 HD
ENDROOT
BRANCH   5  10
HETATM   10  N2  UNL     1      12.515  30.010  33.373  1.00  0.00    -0.375 N 
ATOM     11  H2  UNL     1      13.500  30.272  33.369  1.00  0.00     0.161 HD
BRANCH  10  12
HETATM   12  C5  UNL     1      12.062  29.192  32.295  1.00  0.00     0.121 C 
BRANCH  12  13
HETATM   13  C6  UNL     1      13.263  28.432  31.750  1.00  0.00     0.021 C 
BRANCH  13  14
HETATM   14  C7  UNL     1      13.444  28.653  30.270  1.00  0.00     0.029 C 
BRANCH  14  15
HETATM   15  C8  UNL     1      13.776  30.095  29.948  1.00  0.00     0.229 C 
BRANCH  15  16
HETATM   16  N3  UNL     1      13.859  30.187  28.488  1.00  0.00    -0.079 N 
ATOM     17  H33 UNL     1      14.208  29.335  28.049  1.00  0.00     0.274 HD
ATOM     18  H32 UNL     1      12.946  30.200  28.032  1.00  0.00     0.274 HD
ATOM     19  H31 UNL     1      14.425  31.010  28.281  1.00  0.00     0.274 HD
ENDBRANCH  15  16
ENDBRANCH  14  15
ENDBRANCH  13  14
ENDBRANCH  12  13
ENDBRANCH  10  12
ENDBRANCH   5  10
TORSDOF 6
ENDMDL
MODEL 4
REMARK VINA RESULT: -4.845276420      1.138      1.441
REMARK  6 active torsions:
REMARK  status: ('A' for Active; 'I' for Inactive)
REMARK    1  A    between atoms: C4_5  and  N2_6 
REMARK    2  A    between atoms: N2_6  and  C5_8 
REMARK    3  A    between atoms: C5_8  and  C6_9 
REMARK    4  A    between atoms: C6_9  and  C7_10 
REMARK    5  A    between atoms: C7_10  and  C8_11 
REMARK    6  A    between atoms: C8_11  and  N3_12 
ROOT
HETATM    1  N1  UNL     1      12.992  31.308  31.908  1.00  0.00    -0.190 NA
HETATM    2  C1  UNL     1      12.853  30.278  31.398  1.00  0.00     0.119 C 
HETATM    3  C2  UNL     1      12.668  28.987  30.779  1.00  0.00     0.132 A 
HETATM    4  C3  UNL     1      11.799  27.986  31.132  1.00  0.00     0.091 A 
HETATM    5  C4  UNL     1      11.980  26.950  30.257  1.00  0.00     0.118 A 
HETATM    6  N4  UNL     1      12.940  27.335  29.404  1.00  0.00    -0.285 N 
ATOM      7  H4  UNL     1      13.298  26.772  28.632  1.00  0.00     0.188 HD
HETATM    8  N5  UNL     1      13.351  28.539  29.707  1.00  0.00    -0.289 N 
ATOM      9  H5  UNL     1      14.075  29.059  29.210  1.00  0.00     0.188 HD
ENDROOT
BRANCH   5  10
HETATM   10  N2  UNL     1      11.388  25.826  30.212  1.00  0.00    -0.375 N 
ATOM     11  H2  UNL     1      10.904  25.527  31.058  1.00  0.00     0.161 HD
BRANCH  10  12
HETATM   12  C5  UNL     1      11.334  24.940  29.094  1.00  0.00     0.121 C 
BRANCH  12  13
HETATM   13  C6  UNL     1      10.168  25.368  28.216  1.00  0.00     0.021 C 
BRANCH  13  14
HETATM   14  C7  UNL     1       8.883  24.692  28.619  1.00  0.00     0.029 C 
BRANCH  14  15
HETATM   15  C8  UNL     1       9.064  23.200  28.811  1.00  0.00     0.229 C 
BRANCH  15  16
HETATM   16  N3  UNL     1       8.887  22.586  27.493  1.00  0.00    -0.079 N 
ATOM     17  H33 UNL     1       7.981  22.132  27.378  1.00  0.00     0.274 HD
ATOM     18  H32 UNL     1       8.785  23.266  26.740  1.00  0.00     0.274 HD
ATOM     19  H31 UNL     1       9.675  21.953  27.360  1.00  0.00     0.274 HD
ENDBRANCH  15  16
ENDBRANCH  14  15
ENDBRANCH  13  14
ENDBRANCH  12  13
ENDBRANCH  10  12
ENDBRANCH   5  10
TORSDOF 6
ENDMDL
MODEL 5
REMARK VINA RESULT: -4.789148129      1.206      1.282
REMARK  6 active torsions:
REMARK  status: ('A' for Active; 'I' for Inactive)
REMARK    1  A    between atoms: C4_5  and  N2_6 
REMARK    2  A    between atoms: N2_6  and  C5_8 
REMARK    3  A    between atoms: C5_8  and  C6_9 
REMARK    4  A    between atoms: C6_9  and  C7_10 
REMARK    5  A    between atoms: C7_10  and  C8_11 
REMARK    6  A    between atoms: C8_11  and  N3_12 
ROOT
HETATM    1  N1  UNL     1      12.037  30.697  34.542  1.00  0.00    -0.190 NA
HETATM    2  C1  UNL     1      12.087  30.215  33.492  1.00  0.00     0.119 C 
HETATM    3  C2  UNL     1      12.148  29.595  32.189  1.00  0.00     0.132 A 
HETATM    4  C3  UNL     1      11.903  28.288  31.852  1.00  0.00     0.091 A 
HETATM    5  C4  UNL     1      12.085  28.165  30.503  1.00  0.00     0.118 A 
HETATM    6  N4  UNL     1      12.432  29.380  30.052  1.00  0.00    -0.285 N 
ATOM      7  H4  UNL     1      12.636  29.607  29.079  1.00  0.00     0.188 HD
HETATM    8  N5  UNL     1      12.470  30.229  31.046  1.00  0.00    -0.289 N 
ATOM      9  H5  UNL     1      12.707  31.219  30.967  1.00  0.00     0.188 HD
ENDROOT
BRANCH   5  10
HETATM   10  N2  UNL     1      11.964  27.134  29.767  1.00  0.00    -0.375 N 
ATOM     11  H2  UNL     1      12.041  27.278  28.760  1.00  0.00     0.161 HD
BRANCH  10  12
HETATM   12  C5  UNL     1      11.733  25.798  30.210  1.00  0.00     0.121 C 
BRANCH  12  13
HETATM   13  C6  UNL     1      11.457  24.941  28.983  1.00  0.00     0.021 C 
BRANCH  13  14
HETATM   14  C7  UNL     1      10.232  25.407  28.238  1.00  0.00     0.029 C 
BRANCH  14  15
HETATM   15  C8  UNL     1       9.015  24.568  28.568  1.00  0.00     0.229 C 
BRANCH  15  16
HETATM   16  N3  UNL     1       9.163  23.310  27.832  1.00  0.00    -0.079 N 
ATOM     17  H33 UNL     1       9.601  23.427  26.918  1.00  0.00     0.274 HD
ATOM     18  H32 UNL     1       9.866  22.689  28.231  1.00  0.00     0.274 HD
ATOM     19  H31 UNL     1       8.235  22.891  27.784  1.00  0.00     0.274 HD
ENDBRANCH  15  16
ENDBRANCH  14  15
ENDBRANCH  13  14
ENDBRANCH  12  13
ENDBRANCH  10  12
ENDBRANCH   5  10
TORSDOF 6
ENDMDL
