MODEL 1
REMARK VINA RESULT: -5.165906138      0.000      0.000
REMARK  6 active torsions:
REMARK  status: ('A' for Active; 'I' for Inactive)
REMARK    1  A    between atoms: N1_1  and  C1_5 
REMARK    2  A    between atoms: C1_5  and  C2_6 
REMARK    3  A    between atoms: C2_6  and  C3_7 
REMARK    4  A    between atoms: C3_7  and  C4_8 
REMARK    5  A    between atoms: C4_8  and  N2_9 
REMARK    6  A    between atoms: N2_9  and  C5_11 
ROOT
HETATM    1  N2  UNL     1      11.832  27.210  30.175  1.00  0.00    -0.376 N 
ATOM      2  H2  UNL     1      10.908  27.090  30.592  1.00  0.00     0.161 HD
ENDROOT
BRANCH   1   3
HETATM    3  C4  UNL     1      12.376  26.091  29.460  1.00  0.00     0.121 C 
BRANCH   3   4
HETATM    4  C3  UNL     1      11.292  25.038  29.371  1.00  0.00     0.021 C 
BRANCH   4   5
HETATM    5  C2  UNL     1      10.315  25.426  28.308  1.00  0.00     0.029 C 
BRANCH   5   6
HETATM    6  C1  UNL     1       9.038  24.652  28.459  1.00  0.00     0.229 C 
BRANCH   6   7
HETATM    7  N1  UNL     1       9.229  23.325  27.912  1.00  0.00    -0.079 N 
ATOM      8  H13 UNL     1       8.824  23.226  26.980  1.00  0.00     0.274 HD
ATOM      9  H12 UNL     1      10.201  23.142  27.664  1.00  0.00     0.274 HD
ATOM     10  H11 UNL     1       8.859  22.641  28.572  1.00  0.00     0.274 HD
ENDBRANCH   6   7
ENDBRANCH   5   6
ENDBRANCH   4   5
ENDBRANCH   3   4
ENDBRANCH   1   3
BRANCH   1  11
HETATM   11  C5  UNL     1      12.401  28.343  30.336  1.00  0.00     0.102 A 
HETATM   12  C6  UNL     1      12.160  29.231  31.333  1.00  0.00     0.074 A 
HETATM   13  C7  UNL     1      12.823  30.435  31.434  1.00  0.00     0.051 A 
HETATM   14  N3  UNL     1      12.569  31.368  32.481  1.00  0.00    -0.102 NA
HETATM   15  C8  UNL     1      13.765  30.714  30.461  1.00  0.00     0.043 A 
HETATM   16  C9  UNL     1      14.021  29.826  29.446  1.00  0.00     0.091 A 
HETATM   17  N4  UNL     1      13.341  28.682  29.413  1.00  0.00    -0.352 N 
ATOM     18  H4  UNL     1      13.536  28.026  28.657  1.00  0.00     0.166 HD
ENDBRANCH   1  11
TORSDOF 6
ENDMDL
MODEL 2
REMARK VINA RESULT: -5.034028846      4.048      7.193
REMARK  6 active torsions:
REMARK  status: ('A' for Active; 'I' for Inactive)
REMARK    1  A    between atoms: N1_1  and  C1_5 
REMARK    2  A    between atoms: C1_5  and  C2_6 
REMARK    3  A    between atoms: C2_6  and  C3_7 
REMARK    4  A    between atoms: C3_7  and  C4_8 
REMARK    5  A    between atoms: C4_8  and  N2_9 
REMARK    6  A    between atoms: N2_9  and  C5_11 
ROOT
HETATM    1  N2  UNL     1      11.487  30.099  34.979  1.00  0.00    -0.376 N 
ATOM      2  H2  UNL     1      11.993  30.725  35.605  1.00  0.00     0.161 HD
ENDROOT
BRANCH   1   3
HETATM    3  C4  UNL     1      10.187  29.664  35.401  1.00  0.00     0.121 C 
BRANCH   3   4
HETATM    4  C3  UNL     1       9.790  30.505  36.594  1.00  0.00     0.021 C 
BRANCH   4   5
HETATM    5  C2  UNL     1      10.299  31.898  36.405  1.00  0.00     0.029 C 
BRANCH   5   6
HETATM    6  C1  UNL     1       9.590  32.848  37.325  1.00  0.00     0.229 C 
BRANCH   6   7
HETATM    7  N1  UNL     1       9.044  33.936  36.542  1.00  0.00    -0.079 N 
ATOM      8  H13 UNL     1       9.254  34.850  36.944  1.00  0.00     0.274 HD
ATOM      9  H12 UNL     1       9.529  34.058  35.653  1.00  0.00     0.274 HD
ATOM     10  H11 UNL     1       8.042  33.784  36.422  1.00  0.00     0.274 HD
ENDBRANCH   6   7
ENDBRANCH   5   6
ENDBRANCH   4   5
ENDBRANCH   3   4
ENDBRANCH   1   3
BRANCH   1  11
HETATM   11  C5  UNL     1      12.067  29.773  33.888  1.00  0.00     0.102 A 
HETATM   12  C6  UNL     1      12.617  30.622  32.982  1.00  0.00     0.074 A 
HETATM   13  C7  UNL     1      13.227  30.185  31.827  1.00  0.00     0.051 A 
HETATM   14  N3  UNL     1      13.803  31.076  30.876  1.00  0.00    -0.102 NA
HETATM   15  C8  UNL     1      13.261  28.819  31.616  1.00  0.00     0.043 A 
HETATM   16  C9  UNL     1      12.710  27.946  32.521  1.00  0.00     0.091 A 
HETATM   17  N4  UNL     1      12.137  28.442  33.616  1.00  0.00    -0.352 N 
ATOM     18  H4  UNL     1      11.729  27.790  34.285  1.00  0.00     0.166 HD
ENDBRANCH   1  11
TORSDOF 6
ENDMDL
MODEL 3
REMARK VINA RESULT: -4.940663136      4.524      7.723
REMARK  6 active torsions:
REMARK  status: ('A' for Active; 'I' for Inactive)
REMARK    1  A    between atoms: N1_1  and  C1_5 
REMARK    2  A    between atoms: C1_5  and  C2_6 
REMARK    3  A    between atoms: C2_6  and  C3_7 
REMARK    4  A    between atoms: C3_7  and  C4_8 
REMARK    5  A    between atoms: C4_8  and  N2_9 
REMARK    6  A    between atoms: N2_9  and  C5_11 
ROOT
HETATM    1  N2  UNL     1      11.366  30.385  35.266  1.00  0.00    -0.376 N 
ATOM      2  H2  UNL     1      11.937  31.083  35.743  1.00  0.00     0.161 HD
ENDROOT
BRANCH   1   3
HETATM    3  C4  UNL     1      10.283  29.807  36.009  1.00  0.00     0.121 C 
BRANCH   3   4
HETATM    4  C3  UNL     1       9.457  30.946  36.568  1.00  0.00     0.021 C 
BRANCH   4   5
HETATM    5  C2  UNL     1       9.862  31.198  37.985  1.00  0.00     0.029 C 
BRANCH   5   6
HETATM    6  C1  UNL     1      10.338  32.611  38.154  1.00  0.00     0.229 C 
BRANCH   6   7
HETATM    7  N1  UNL     1      10.317  32.945  39.562  1.00  0.00    -0.079 N 
ATOM      8  H13 UNL     1       9.392  33.240  39.879  1.00  0.00     0.274 HD
ATOM      9  H12 UNL     1      10.415  32.124  40.159  1.00  0.00     0.274 HD
ATOM     10  H11 UNL     1      11.034  33.648  39.744  1.00  0.00     0.274 HD
ENDBRANCH   6   7
ENDBRANCH   5   6
ENDBRANCH   4   5
ENDBRANCH   3   4
ENDBRANCH   1   3
BRANCH   1  11
HETATM   11  C5  UNL     1      11.679  30.102  34.059  1.00  0.00     0.102 A 
HETATM   12  C6  UNL     1      12.610  30.733  33.300  1.00  0.00     0.074 A 
HETATM   13  C7  UNL     1      12.889  30.362  32.002  1.00  0.00     0.051 A 
HETATM   14  N3  UNL     1      13.866  31.025  31.205  1.00  0.00    -0.102 NA
HETATM   15  C8  UNL     1      12.169  29.300  31.487  1.00  0.00     0.043 A 
HETATM   16  C9  UNL     1      11.224  28.651  32.242  1.00  0.00     0.091 A 
HETATM   17  N4  UNL     1      11.010  29.065  33.489  1.00  0.00    -0.352 N 
ATOM     18  H4  UNL     1      10.307  28.579  34.045  1.00  0.00     0.166 HD
ENDBRANCH   1  11
TORSDOF 6
ENDMDL
MODEL 4
REMARK VINA RESULT: -4.909488546      4.284      6.819
REMARK  6 active torsions:
REMARK  status: ('A' for Active; 'I' for Inactive)
REMARK    1  A    between atoms: N1_1  and  C1_5 
REMARK    2  A    between atoms: C1_5  and  C2_6 
REMARK    3  A    between atoms: C2_6  and  C3_7 
REMARK    4  A    between atoms: C3_7  and  C4_8 
REMARK    5  A    between atoms: C4_8  and  N2_9 
REMARK    6  A    between atoms: N2_9  and  C5_11 
ROOT
HETATM    1  N2  UNL     1      11.902  30.600  34.612  1.00  0.00    -0.376 N 
ATOM      2  H2  UNL     1      12.398  31.490  34.629  1.00  0.00     0.161 HD
ENDROOT
BRANCH   1   3
HETATM    3  C4  UNL     1      12.459  29.556  33.800  1.00  0.00     0.121 C 
BRANCH   3   4
HETATM    4  C3  UNL     1      12.439  30.035  32.365  1.00  0.00     0.021 C 
BRANCH   4   5
HETATM    5  C2  UNL     1      13.836  30.055  31.833  1.00  0.00     0.029 C 
BRANCH   5   6
HETATM    6  C1  UNL     1      13.840  30.426  30.379  1.00  0.00     0.229 C 
BRANCH   6   7
HETATM    7  N1  UNL     1      12.772  29.712  29.711  1.00  0.00    -0.079 N 
ATOM      8  H13 UNL     1      11.851  30.087  29.939  1.00  0.00     0.274 HD
ATOM      9  H12 UNL     1      12.753  29.889  28.707  1.00  0.00     0.274 HD
ATOM     10  H11 UNL     1      12.853  28.718  29.931  1.00  0.00     0.274 HD
ENDBRANCH   6   7
ENDBRANCH   5   6
ENDBRANCH   4   5
ENDBRANCH   3   4
ENDBRANCH   1   3
BRANCH   1  11
HETATM   11  C5  UNL     1      10.838  30.512  35.315  1.00  0.00     0.102 A 
HETATM   12  C6  UNL     1       9.874  29.564  35.202  1.00  0.00     0.074 A 
HETATM   13  C7  UNL     1       8.754  29.541  36.005  1.00  0.00     0.051 A 
HETATM   14  N3  UNL     1       7.742  28.546  35.886  1.00  0.00    -0.102 NA
HETATM   15  C8  UNL     1       8.643  30.542  36.952  1.00  0.00     0.043 A 
HETATM   16  C9  UNL     1       9.610  31.509  37.079  1.00  0.00     0.091 A 
HETATM   17  N4  UNL     1      10.664  31.466  36.269  1.00  0.00    -0.352 N 
ATOM     18  H4  UNL     1      11.379  32.186  36.368  1.00  0.00     0.166 HD
ENDBRANCH   1  11
TORSDOF 6
ENDMDL
MODEL 5
REMARK VINA RESULT: -4.908429404      1.089      1.276
REMARK  6 active torsions:
REMARK  status: ('A' for Active; 'I' for Inactive)
REMARK    1  A    between atoms: N1_1  and  C1_5 
REMARK    2  A    between atoms: C1_5  and  C2_6 
REMARK    3  A    between atoms: C2_6  and  C3_7 
REMARK    4  A    between atoms: C3_7  and  C4_8 
REMARK    5  A    between atoms: C4_8  and  N2_9 
REMARK    6  A    between atoms: N2_9  and  C5_11 
ROOT
HETATM    1  N2  UNL     1      11.808  27.062  30.661  1.00  0.00    -0.376 N 
ATOM      2  H2  UNL     1      11.166  26.861  31.428  1.00  0.00     0.161 HD
ENDROOT
BRANCH   1   3
HETATM    3  C4  UNL     1      12.002  26.030  29.683  1.00  0.00     0.121 C 
BRANCH   3   4
HETATM    4  C3  UNL     1      10.643  25.446  29.362  1.00  0.00     0.021 C 
BRANCH   4   5
HETATM    5  C2  UNL     1      10.710  24.739  28.046  1.00  0.00     0.029 C 
BRANCH   5   6
HETATM    6  C1  UNL     1      11.994  23.972  27.925  1.00  0.00     0.229 C 
BRANCH   6   7
HETATM    7  N1  UNL     1      12.038  23.340  26.622  1.00  0.00    -0.079 N 
ATOM      8  H13 UNL     1      12.408  22.390  26.663  1.00  0.00     0.274 HD
ATOM      9  H12 UNL     1      11.109  23.116  26.267  1.00  0.00     0.274 HD
ATOM     10  H11 UNL     1      12.566  23.937  25.985  1.00  0.00     0.274 HD
ENDBRANCH   6   7
ENDBRANCH   5   6
ENDBRANCH   4   5
ENDBRANCH   3   4
ENDBRANCH   1   3
BRANCH   1  11
HETATM   11  C5  UNL     1      12.368  28.211  30.657  1.00  0.00     0.102 A 
HETATM   12  C6  UNL     1      12.155  29.214  31.546  1.00  0.00     0.074 A 
HETATM   13  C7  UNL     1      12.805  30.427  31.470  1.00  0.00     0.051 A 
HETATM   14  N3  UNL     1      12.581  31.480  32.402  1.00  0.00    -0.102 NA
HETATM   15  C8  UNL     1      13.704  30.591  30.432  1.00  0.00     0.043 A 
HETATM   16  C9  UNL     1      13.931  29.586  29.524  1.00  0.00     0.091 A 
HETATM   17  N4  UNL     1      13.266  28.441  29.662  1.00  0.00    -0.352 N 
ATOM     18  H4  UNL     1      13.439  27.698  28.985  1.00  0.00     0.166 HD
ENDBRANCH   1  11
TORSDOF 6
ENDMDL
