MODEL 1
REMARK VINA RESULT: -4.708400499      0.000      0.000
REMARK  5 active torsions:
REMARK  status: ('A' for Active; 'I' for Inactive)
REMARK    1  A    between atoms: N1_1  and  C1_5 
REMARK    2  A    between atoms: C1_5  and  C2_6 
REMARK    3  A    between atoms: C2_6  and  O1_7 
REMARK    4  A    between atoms: O1_7  and  C3_8 
REMARK    5  A    between atoms: C9_14  and  N2_15 
ROOT
HETATM    1  C3  UNL     1      12.815  29.680  32.534  1.00  0.00     0.128 C 
HETATM    2  C4  UNL     1      13.261  30.434  31.273  1.00  0.00     0.039 C 
HETATM    3  C5  UNL     1      13.175  29.398  30.153  1.00  0.00     0.019 C 
HETATM    4  C6  UNL     1      14.217  28.339  30.310  1.00  0.00     0.007 C 
HETATM    5  C7  UNL     1      13.811  27.669  31.631  1.00  0.00     0.010 C 
HETATM    6  C8  UNL     1      12.503  28.307  32.024  1.00  0.00     0.045 C 
HETATM    7  C9  UNL     1      11.926  28.637  30.635  1.00  0.00     0.194 C 
ENDROOT
BRANCH   1   8
HETATM    8  O1  UNL     1      11.785  30.304  33.180  1.00  0.00    -0.384 OA
BRANCH   8   9
HETATM    9  C2  UNL     1      11.310  29.507  34.213  1.00  0.00     0.195 C 
BRANCH   9  10
HETATM   10  C1  UNL     1      10.792  30.330  35.366  1.00  0.00     0.255 C 
BRANCH  10  11
HETATM   11  N1  UNL     1      11.423  31.631  35.318  1.00  0.00    -0.077 N 
ATOM     12  H13 UNL     1      11.117  32.185  34.518  1.00  0.00     0.274 HD
ATOM     13  H12 UNL     1      11.092  32.255  36.054  1.00  0.00     0.274 HD
ATOM     14  H11 UNL     1      12.434  31.500  35.341  1.00  0.00     0.274 HD
ENDBRANCH  10  11
ENDBRANCH   9  10
ENDBRANCH   8   9
ENDBRANCH   1   8
BRANCH   7  15
HETATM   15  N2  UNL     1      11.723  27.447  29.863  1.00  0.00    -0.074 N 
ATOM     16  H23 UNL     1      12.534  26.830  29.902  1.00  0.00     0.274 HD
ATOM     17  H22 UNL     1      11.038  26.828  30.298  1.00  0.00     0.274 HD
ATOM     18  H21 UNL     1      11.468  27.675  28.902  1.00  0.00     0.274 HD
ENDBRANCH   7  15
TORSDOF 5
ENDMDL
MODEL 2
REMARK VINA RESULT: -4.646114580      1.195      1.545
REMARK  5 active torsions:
REMARK  status: ('A' for Active; 'I' for Inactive)
REMARK    1  A    between atoms: N1_1  and  C1_5 
REMARK    2  A    between atoms: C1_5  and  C2_6 
REMARK    3  A    between atoms: C2_6  and  O1_7 
REMARK    4  A    between atoms: O1_7  and  C3_8 
REMARK    5  A    between atoms: C9_14  and  N2_15 
ROOT
HETATM    1  C3  UNL     1      11.788  28.717  32.407  1.00  0.00     0.128 C 
HETATM    2  C4  UNL     1      13.286  28.836  32.723  1.00  0.00     0.039 C 
HETATM    3  C5  UNL     1      13.961  28.960  31.358  1.00  0.00     0.019 C 
HETATM    4  C6  UNL     1      13.870  27.683  30.588  1.00  0.00     0.007 C 
HETATM    5  C7  UNL     1      12.357  27.530  30.376  1.00  0.00     0.010 C 
HETATM    6  C8  UNL     1      11.743  28.798  30.912  1.00  0.00     0.045 C 
HETATM    7  C9  UNL     1      12.883  29.796  30.641  1.00  0.00     0.194 C 
ENDROOT
BRANCH   1   8
HETATM    8  O1  UNL     1      11.038  29.654  33.060  1.00  0.00    -0.384 OA
BRANCH   8   9
HETATM    9  C2  UNL     1      11.661  30.031  34.241  1.00  0.00     0.195 C 
BRANCH   9  10
HETATM   10  C1  UNL     1      10.709  30.007  35.412  1.00  0.00     0.255 C 
BRANCH  10  11
HETATM   11  N1  UNL     1      10.743  31.303  36.055  1.00  0.00    -0.077 N 
ATOM     12  H13 UNL     1      10.947  31.241  37.052  1.00  0.00     0.274 HD
ATOM     13  H12 UNL     1      11.555  31.856  35.781  1.00  0.00     0.274 HD
ATOM     14  H11 UNL     1       9.862  31.780  35.863  1.00  0.00     0.274 HD
ENDBRANCH  10  11
ENDBRANCH   9  10
ENDBRANCH   8   9
ENDBRANCH   1   8
BRANCH   7  15
HETATM   15  N2  UNL     1      13.162  29.894  29.238  1.00  0.00    -0.074 N 
ATOM     16  H23 UNL     1      14.161  29.819  29.046  1.00  0.00     0.274 HD
ATOM     17  H22 UNL     1      12.845  29.067  28.732  1.00  0.00     0.274 HD
ATOM     18  H21 UNL     1      12.765  30.749  28.847  1.00  0.00     0.274 HD
ENDBRANCH   7  15
TORSDOF 5
ENDMDL
MODEL 3
REMARK VINA RESULT: -4.587891132      1.132      1.393
REMARK  5 active torsions:
REMARK  status: ('A' for Active; 'I' for Inactive)
REMARK    1  A    between atoms: N1_1  and  C1_5 
REMARK    2  A    between atoms: C1_5  and  C2_6 
REMARK    3  A    between atoms: C2_6  and  O1_7 
REMARK    4  A    between atoms: O1_7  and  C3_8 
REMARK    5  A    between atoms: C9_14  and  N2_15 
ROOT
HETATM    1  C3  UNL     1      11.779  28.991  33.579  1.00  0.00     0.128 C 
HETATM    2  C4  UNL     1      12.903  29.986  33.256  1.00  0.00     0.039 C 
HETATM    3  C5  UNL     1      13.237  29.728  31.787  1.00  0.00     0.019 C 
HETATM    4  C6  UNL     1      13.889  28.396  31.602  1.00  0.00     0.007 C 
HETATM    5  C7  UNL     1      12.782  27.423  32.033  1.00  0.00     0.010 C 
HETATM    6  C8  UNL     1      11.565  28.278  32.280  1.00  0.00     0.045 C 
HETATM    7  C9  UNL     1      11.817  29.418  31.277  1.00  0.00     0.194 C 
ENDROOT
BRANCH   1   8
HETATM    8  O1  UNL     1      10.670  29.603  34.092  1.00  0.00    -0.384 OA
BRANCH   8   9
HETATM    9  C2  UNL     1      10.620  29.433  35.469  1.00  0.00     0.195 C 
BRANCH   9  10
HETATM   10  C1  UNL     1      10.107  30.667  36.170  1.00  0.00     0.255 C 
BRANCH  10  11
HETATM   11  N1  UNL     1      11.001  31.766  35.872  1.00  0.00    -0.077 N 
ATOM     12  H13 UNL     1      10.759  32.244  35.005  1.00  0.00     0.274 HD
ATOM     13  H12 UNL     1      10.877  32.555  36.506  1.00  0.00     0.274 HD
ATOM     14  H11 UNL     1      11.957  31.410  35.871  1.00  0.00     0.274 HD
ENDBRANCH  10  11
ENDBRANCH   9  10
ENDBRANCH   8   9
ENDBRANCH   1   8
BRANCH   7  15
HETATM   15  N2  UNL     1      11.853  28.925  29.931  1.00  0.00    -0.074 N 
ATOM     16  H23 UNL     1      12.801  28.681  29.645  1.00  0.00     0.274 HD
ATOM     17  H22 UNL     1      11.427  28.001  29.857  1.00  0.00     0.274 HD
ATOM     18  H21 UNL     1      11.425  29.590  29.288  1.00  0.00     0.274 HD
ENDBRANCH   7  15
TORSDOF 5
ENDMDL
MODEL 4
REMARK VINA RESULT: -4.494696073      2.032      4.303
REMARK  5 active torsions:
REMARK  status: ('A' for Active; 'I' for Inactive)
REMARK    1  A    between atoms: N1_1  and  C1_5 
REMARK    2  A    between atoms: C1_5  and  C2_6 
REMARK    3  A    between atoms: C2_6  and  O1_7 
REMARK    4  A    between atoms: O1_7  and  C3_8 
REMARK    5  A    between atoms: C9_14  and  N2_15 
ROOT
HETATM    1  C3  UNL     1      12.338  29.507  33.059  1.00  0.00     0.128 C 
HETATM    2  C4  UNL     1      12.379  28.030  32.640  1.00  0.00     0.039 C 
HETATM    3  C5  UNL     1      11.272  27.365  33.457  1.00  0.00     0.019 C 
HETATM    4  C6  UNL     1      11.619  27.323  34.910  1.00  0.00     0.007 C 
HETATM    5  C7  UNL     1      11.676  28.812  35.280  1.00  0.00     0.010 C 
HETATM    6  C8  UNL     1      11.216  29.553  34.050  1.00  0.00     0.045 C 
HETATM    7  C9  UNL     1      10.251  28.518  33.447  1.00  0.00     0.194 C 
ENDROOT
BRANCH   1   8
HETATM    8  O1  UNL     1      12.201  30.350  31.993  1.00  0.00    -0.384 OA
BRANCH   8   9
HETATM    9  C2  UNL     1      12.626  29.727  30.828  1.00  0.00     0.195 C 
BRANCH   9  10
HETATM   10  C1  UNL     1      13.797  30.443  30.201  1.00  0.00     0.255 C 
BRANCH  10  11
HETATM   11  N1  UNL     1      13.807  30.147  28.784  1.00  0.00    -0.077 N 
ATOM     12  H13 UNL     1      13.390  30.892  28.225  1.00  0.00     0.274 HD
ATOM     13  H12 UNL     1      14.744  30.181  28.384  1.00  0.00     0.274 HD
ATOM     14  H11 UNL     1      13.352  29.246  28.641  1.00  0.00     0.274 HD
ENDBRANCH  10  11
ENDBRANCH   9  10
ENDBRANCH   8   9
ENDBRANCH   1   8
BRANCH   7  15
HETATM   15  N2  UNL     1       9.162  28.245  34.337  1.00  0.00    -0.074 N 
ATOM     16  H23 UNL     1       9.141  27.264  34.617  1.00  0.00     0.274 HD
ATOM     17  H22 UNL     1       9.311  28.664  35.255  1.00  0.00     0.274 HD
ATOM     18  H21 UNL     1       8.274  28.539  33.929  1.00  0.00     0.274 HD
ENDBRANCH   7  15
TORSDOF 5
ENDMDL
MODEL 5
REMARK VINA RESULT: -4.491065650      1.080      1.080
REMARK  5 active torsions:
REMARK  status: ('A' for Active; 'I' for Inactive)
REMARK    1  A    between atoms: N1_1  and  C1_5 
REMARK    2  A    between atoms: C1_5  and  C2_6 
REMARK    3  A    between atoms: C2_6  and  O1_7 
REMARK    4  A    between atoms: O1_7  and  C3_8 
REMARK    5  A    between atoms: C9_14  and  N2_15 
ROOT
HETATM    1  C3  UNL     1      12.806  29.643  32.475  1.00  0.00     0.128 C 
HETATM    2  C4  UNL     1      13.164  30.433  31.207  1.00  0.00     0.039 C 
HETATM    3  C5  UNL     1      13.097  29.405  30.078  1.00  0.00     0.019 C 
HETATM    4  C6  UNL     1      14.203  28.406  30.187  1.00  0.00     0.007 C 
HETATM    5  C7  UNL     1      13.884  27.701  31.513  1.00  0.00     0.010 C 
HETATM    6  C8  UNL     1      12.556  28.259  31.959  1.00  0.00     0.045 C 
HETATM    7  C9  UNL     1      11.912  28.568  30.596  1.00  0.00     0.194 C 
ENDROOT
BRANCH   1   8
HETATM    8  O1  UNL     1      11.767  30.200  33.164  1.00  0.00    -0.384 OA
BRANCH   8   9
HETATM    9  C2  UNL     1      11.791  29.788  34.489  1.00  0.00     0.195 C 
BRANCH   9  10
HETATM   10  C1  UNL     1      10.402  29.577  35.038  1.00  0.00     0.255 C 
BRANCH  10  11
HETATM   11  N1  UNL     1       9.640  28.813  34.073  1.00  0.00    -0.077 N 
ATOM     12  H13 UNL     1      10.200  28.528  33.270  1.00  0.00     0.274 HD
ATOM     13  H12 UNL     1       9.399  27.883  34.412  1.00  0.00     0.274 HD
ATOM     14  H11 UNL     1       8.821  29.359  33.807  1.00  0.00     0.274 HD
ENDBRANCH  10  11
ENDBRANCH   9  10
ENDBRANCH   8   9
ENDBRANCH   1   8
BRANCH   7  15
HETATM   15  N2  UNL     1      11.750  27.376  29.818  1.00  0.00    -0.074 N 
ATOM     16  H23 UNL     1      10.845  27.351  29.349  1.00  0.00     0.274 HD
ATOM     17  H22 UNL     1      12.350  27.380  28.993  1.00  0.00     0.274 HD
ATOM     18  H21 UNL     1      11.902  26.544  30.389  1.00  0.00     0.274 HD
ENDBRANCH   7  15
TORSDOF 5
ENDMDL
