MODEL 1
REMARK VINA RESULT: -7.417075716      0.000      0.000
REMARK  3 active torsions:
REMARK  status: ('A' for Active; 'I' for Inactive)
REMARK    1  A    between atoms: C5_6  and  C6_7 
REMARK       I    between atoms: C6_7  and  N1_9 
REMARK    2  A    between atoms: N1_9  and  C7_11 
REMARK    3  A    between atoms: C10_15  and  C11_16 
ROOT
HETATM    1  C7  UNL     1      -6.195   3.562  23.225  1.00  0.00     0.084 A 
HETATM    2  S2  UNL     1      -6.160   2.737  21.760  1.00  0.00    -0.074 SA
HETATM    3  C8  UNL     1      -7.334   1.576  22.044  1.00  0.00     0.017 A 
HETATM    4  C9  UNL     1      -7.773   1.856  23.359  1.00  0.00    -0.032 A 
HETATM    5  C10 UNL     1      -7.182   2.888  23.969  1.00  0.00    -0.013 A 
HETATM    6  C14 UNL     1      -8.833   0.816  23.689  1.00  0.00     0.068 C 
HETATM    7  C15 UNL     1      -9.880   0.988  22.596  1.00  0.00     0.237 C 
HETATM    8  N2  UNL     1      -9.396   0.493  21.328  1.00  0.00    -0.070 N 
ATOM      9  H21 UNL     1      -9.767   1.042  20.553  1.00  0.00     0.277 HD
ATOM     10  H22 UNL     1      -9.813  -0.410  21.103  1.00  0.00     0.277 HD
HETATM   11  C16 UNL     1      -7.955   0.428  21.276  1.00  0.00     0.279 C 
ENDROOT
BRANCH   1  12
HETATM   12  N1  UNL     1      -5.420   4.702  23.673  1.00  0.00    -0.316 N 
HETATM   13  C6  UNL     1      -6.047   5.952  23.696  1.00  0.00     0.264 C 
HETATM   14  O1  UNL     1      -7.280   5.937  23.305  1.00  0.00    -0.267 OA
ATOM     15  H1  UNL     1      -4.447   4.596  23.962  1.00  0.00     0.169 HD
BRANCH  13  16
HETATM   16  C5  UNL     1      -5.479   7.226  24.101  1.00  0.00     0.078 A 
HETATM   17  C2  UNL     1      -4.884   7.707  25.217  1.00  0.00    -0.039 A 
HETATM   18  C1  UNL     1      -4.677   6.837  26.443  1.00  0.00     0.050 C 
HETATM   19  C3  UNL     1      -4.466   8.997  25.215  1.00  0.00     0.015 A 
HETATM   20  C4  UNL     1      -4.680   9.725  24.076  1.00  0.00     0.051 A 
HETATM   21  S1  UNL     1      -5.445   8.609  23.051  1.00  0.00    -0.096 SA
ENDBRANCH  13  16
ENDBRANCH   1  12
BRANCH   5  22
HETATM   22  C11 UNL     1      -7.451   3.379  25.364  1.00  0.00     0.014 C 
HETATM   23  C12 UNL     1      -8.839   3.720  25.732  1.00  0.00     0.015 C 
HETATM   24  C13 UNL     1      -6.926   2.402  26.386  1.00  0.00     0.015 C 
ENDBRANCH   5  22
TORSDOF 3
ENDMDL
MODEL 2
REMARK VINA RESULT: -7.250224472      0.911      1.426
REMARK  3 active torsions:
REMARK  status: ('A' for Active; 'I' for Inactive)
REMARK    1  A    between atoms: C5_6  and  C6_7 
REMARK       I    between atoms: C6_7  and  N1_9 
REMARK    2  A    between atoms: N1_9  and  C7_11 
REMARK    3  A    between atoms: C10_15  and  C11_16 
ROOT
HETATM    1  C7  UNL     1      -6.189   3.506  23.127  1.00  0.00     0.084 A 
HETATM    2  S2  UNL     1      -6.143   2.610  21.704  1.00  0.00    -0.074 SA
HETATM    3  C8  UNL     1      -7.303   1.450  22.046  1.00  0.00     0.017 A 
HETATM    4  C9  UNL     1      -7.745   1.789  23.347  1.00  0.00    -0.032 A 
HETATM    5  C10 UNL     1      -7.166   2.857  23.905  1.00  0.00    -0.013 A 
HETATM    6  C14 UNL     1      -8.791   0.753  23.729  1.00  0.00     0.068 C 
HETATM    7  C15 UNL     1      -9.841   0.858  22.631  1.00  0.00     0.237 C 
HETATM    8  N2  UNL     1      -9.352   0.307  21.388  1.00  0.00    -0.070 N 
ATOM      9  H21 UNL     1      -9.730   0.813  20.587  1.00  0.00     0.277 HD
ATOM     10  H22 UNL     1      -9.757  -0.612  21.208  1.00  0.00     0.277 HD
HETATM   11  C16 UNL     1      -7.910   0.258  21.337  1.00  0.00     0.279 C 
ENDROOT
BRANCH   1  12
HETATM   12  N1  UNL     1      -5.427   4.676  23.517  1.00  0.00    -0.316 N 
HETATM   13  C6  UNL     1      -6.058   5.922  23.443  1.00  0.00     0.264 C 
HETATM   14  O1  UNL     1      -7.281   5.876  23.024  1.00  0.00    -0.267 OA
ATOM     15  H1  UNL     1      -4.461   4.594  23.836  1.00  0.00     0.169 HD
BRANCH  13  16
HETATM   16  C5  UNL     1      -5.503   7.223  23.775  1.00  0.00     0.078 A 
HETATM   17  C2  UNL     1      -5.425   8.426  23.160  1.00  0.00    -0.039 A 
HETATM   18  C1  UNL     1      -6.009   8.648  21.776  1.00  0.00     0.050 C 
HETATM   19  C3  UNL     1      -4.810   9.442  23.814  1.00  0.00     0.015 A 
HETATM   20  C4  UNL     1      -4.310   9.174  25.060  1.00  0.00     0.051 A 
HETATM   21  S1  UNL     1      -4.703   7.538  25.284  1.00  0.00    -0.096 SA
ENDBRANCH  13  16
ENDBRANCH   1  12
BRANCH   5  22
HETATM   22  C11 UNL     1      -7.441   3.413  25.274  1.00  0.00     0.014 C 
HETATM   23  C12 UNL     1      -8.830   3.769  25.621  1.00  0.00     0.015 C 
HETATM   24  C13 UNL     1      -6.918   2.486  26.343  1.00  0.00     0.015 C 
ENDBRANCH   5  22
TORSDOF 3
ENDMDL
MODEL 3
REMARK VINA RESULT: -7.087617093      1.968      6.858
REMARK  3 active torsions:
REMARK  status: ('A' for Active; 'I' for Inactive)
REMARK    1  A    between atoms: C5_6  and  C6_7 
REMARK       I    between atoms: C6_7  and  N1_9 
REMARK    2  A    between atoms: N1_9  and  C7_11 
REMARK    3  A    between atoms: C10_15  and  C11_16 
ROOT
HETATM    1  C7  UNL     1      -7.252   5.926  23.581  1.00  0.00     0.084 A 
HETATM    2  S2  UNL     1      -6.188   7.015  22.868  1.00  0.00    -0.074 SA
HETATM    3  C8  UNL     1      -5.832   7.989  24.184  1.00  0.00     0.017 A 
HETATM    4  C9  UNL     1      -6.592   7.423  25.236  1.00  0.00    -0.032 A 
HETATM    5  C10 UNL     1      -7.327   6.353  24.920  1.00  0.00    -0.013 A 
HETATM    6  C14 UNL     1      -6.328   8.280  26.465  1.00  0.00     0.068 C 
HETATM    7  C15 UNL     1      -4.816   8.224  26.644  1.00  0.00     0.237 C 
HETATM    8  N2  UNL     1      -4.142   8.994  25.624  1.00  0.00    -0.070 N 
ATOM      9  H21 UNL     1      -3.249   8.572  25.374  1.00  0.00     0.277 HD
ATOM     10  H22 UNL     1      -3.805   9.882  25.996  1.00  0.00     0.277 HD
HETATM   11  C16 UNL     1      -4.965   9.200  24.455  1.00  0.00     0.279 C 
ENDROOT
BRANCH   1  12
HETATM   12  N1  UNL     1      -7.957   4.798  23.005  1.00  0.00    -0.316 N 
HETATM   13  C6  UNL     1      -7.288   3.570  22.943  1.00  0.00     0.264 C 
HETATM   14  O1  UNL     1      -6.087   3.594  23.424  1.00  0.00    -0.267 OA
ATOM     15  H1  UNL     1      -8.911   4.895  22.656  1.00  0.00     0.169 HD
BRANCH  13  16
HETATM   16  C5  UNL     1      -7.783   2.312  22.414  1.00  0.00     0.078 A 
HETATM   17  C2  UNL     1      -8.948   1.626  22.485  1.00  0.00    -0.039 A 
HETATM   18  C1  UNL     1     -10.135   2.157  23.268  1.00  0.00     0.050 C 
HETATM   19  C3  UNL     1      -9.035   0.442  21.829  1.00  0.00     0.015 A 
HETATM   20  C4  UNL     1      -7.929   0.024  21.139  1.00  0.00     0.051 A 
HETATM   21  S1  UNL     1      -6.814   1.272  21.416  1.00  0.00    -0.096 SA
ENDBRANCH  13  16
ENDBRANCH   1  12
BRANCH   5  22
HETATM   22  C11 UNL     1      -8.229   5.582  25.842  1.00  0.00     0.014 C 
HETATM   23  C12 UNL     1      -7.624   4.867  26.982  1.00  0.00     0.015 C 
HETATM   24  C13 UNL     1      -9.328   6.465  26.378  1.00  0.00     0.015 C 
ENDBRANCH   5  22
TORSDOF 3
ENDMDL
MODEL 4
REMARK VINA RESULT: -6.436765939      4.028      6.379
REMARK  3 active torsions:
REMARK  status: ('A' for Active; 'I' for Inactive)
REMARK    1  A    between atoms: C5_6  and  C6_7 
REMARK       I    between atoms: C6_7  and  N1_9 
REMARK    2  A    between atoms: N1_9  and  C7_11 
REMARK    3  A    between atoms: C10_15  and  C11_16 
ROOT
HETATM    1  C7  UNL     1      -6.815   3.787  26.655  1.00  0.00     0.084 A 
HETATM    2  S2  UNL     1      -7.019   2.740  25.355  1.00  0.00    -0.074 SA
HETATM    3  C8  UNL     1      -6.935   3.827  24.082  1.00  0.00     0.017 A 
HETATM    4  C9  UNL     1      -6.735   5.075  24.718  1.00  0.00    -0.032 A 
HETATM    5  C10 UNL     1      -6.672   5.051  26.053  1.00  0.00    -0.013 A 
HETATM    6  C14 UNL     1      -6.670   6.116  23.611  1.00  0.00     0.068 C 
HETATM    7  C15 UNL     1      -5.530   5.644  22.718  1.00  0.00     0.237 C 
HETATM    8  N2  UNL     1      -5.908   4.469  21.968  1.00  0.00    -0.070 N 
ATOM      9  H21 UNL     1      -5.109   3.851  21.825  1.00  0.00     0.277 HD
ATOM     10  H22 UNL     1      -6.110   4.703  20.995  1.00  0.00     0.277 HD
HETATM   11  C16 UNL     1      -7.011   3.760  22.571  1.00  0.00     0.279 C 
ENDROOT
BRANCH   1  12
HETATM   12  N1  UNL     1      -6.784   3.512  28.078  1.00  0.00    -0.316 N 
HETATM   13  C6  UNL     1      -8.002   3.486  28.766  1.00  0.00     0.264 C 
HETATM   14  O1  UNL     1      -9.037   3.717  28.026  1.00  0.00    -0.267 OA
ATOM     15  H1  UNL     1      -5.903   3.342  28.563  1.00  0.00     0.169 HD
BRANCH  13  16
HETATM   16  C5  UNL     1      -8.221   3.237  30.180  1.00  0.00     0.078 A 
HETATM   17  C2  UNL     1      -8.183   2.150  30.986  1.00  0.00    -0.039 A 
HETATM   18  C1  UNL     1      -7.845   0.773  30.445  1.00  0.00     0.050 C 
HETATM   19  C3  UNL     1      -8.453   2.320  32.304  1.00  0.00     0.015 A 
HETATM   20  C4  UNL     1      -8.745   3.589  32.726  1.00  0.00     0.051 A 
HETATM   21  S1  UNL     1      -8.640   4.498  31.298  1.00  0.00    -0.096 SA
ENDBRANCH  13  16
ENDBRANCH   1  12
BRANCH   5  22
HETATM   22  C11 UNL     1      -6.486   6.233  26.963  1.00  0.00     0.014 C 
HETATM   23  C12 UNL     1      -5.304   7.094  26.762  1.00  0.00     0.015 C 
HETATM   24  C13 UNL     1      -7.709   7.114  26.953  1.00  0.00     0.015 C 
ENDBRANCH   5  22
TORSDOF 3
ENDMDL
MODEL 5
REMARK VINA RESULT: -6.302478218      1.901      6.784
REMARK  3 active torsions:
REMARK  status: ('A' for Active; 'I' for Inactive)
REMARK    1  A    between atoms: C5_6  and  C6_7 
REMARK       I    between atoms: C6_7  and  N1_9 
REMARK    2  A    between atoms: N1_9  and  C7_11 
REMARK    3  A    between atoms: C10_15  and  C11_16 
ROOT
HETATM    1  C7  UNL     1      -6.195   4.893  24.318  1.00  0.00     0.084 A 
HETATM    2  S2  UNL     1      -5.320   6.161  23.643  1.00  0.00    -0.074 SA
HETATM    3  C8  UNL     1      -5.593   7.354  24.787  1.00  0.00     0.017 A 
HETATM    4  C9  UNL     1      -6.416   6.718  25.747  1.00  0.00    -0.032 A 
HETATM    5  C10 UNL     1      -6.726   5.441  25.502  1.00  0.00    -0.013 A 
HETATM    6  C14 UNL     1      -6.720   7.762  26.811  1.00  0.00     0.068 C 
HETATM    7  C15 UNL     1      -5.350   8.201  27.309  1.00  0.00     0.237 C 
HETATM    8  N2  UNL     1      -4.671   9.008  26.321  1.00  0.00    -0.070 N 
ATOM      9  H21 UNL     1      -3.663   8.855  26.352  1.00  0.00     0.277 HD
ATOM     10  H22 UNL     1      -4.695   9.996  26.573  1.00  0.00     0.277 HD
HETATM   11  C16 UNL     1      -5.187   8.799  24.989  1.00  0.00     0.279 C 
ENDROOT
BRANCH   1  12
HETATM   12  N1  UNL     1      -6.394   3.539  23.842  1.00  0.00    -0.316 N 
HETATM   13  C6  UNL     1      -7.489   3.293  23.006  1.00  0.00     0.264 C 
HETATM   14  O1  UNL     1      -8.211   4.337  22.753  1.00  0.00    -0.267 OA
ATOM     15  H1  UNL     1      -5.756   2.789  24.107  1.00  0.00     0.169 HD
BRANCH  13  16
HETATM   16  C5  UNL     1      -7.890   2.030  22.412  1.00  0.00     0.078 A 
HETATM   17  C2  UNL     1      -8.964   1.213  22.513  1.00  0.00    -0.039 A 
HETATM   18  C1  UNL     1     -10.130   1.545  23.427  1.00  0.00     0.050 C 
HETATM   19  C3  UNL     1      -8.979   0.079  21.769  1.00  0.00     0.015 A 
HETATM   20  C4  UNL     1      -7.898  -0.157  20.963  1.00  0.00     0.051 A 
HETATM   21  S1  UNL     1      -6.903   1.186  21.259  1.00  0.00    -0.096 SA
ENDBRANCH  13  16
ENDBRANCH   1  12
BRANCH   5  22
HETATM   22  C11 UNL     1      -7.591   4.551  26.348  1.00  0.00     0.014 C 
HETATM   23  C12 UNL     1      -7.206   4.326  27.754  1.00  0.00     0.015 C 
HETATM   24  C13 UNL     1      -9.024   5.022  26.329  1.00  0.00     0.015 C 
ENDBRANCH   5  22
TORSDOF 3
ENDMDL
