MODEL 1
REMARK VINA RESULT: -6.443091624      0.000      0.000
REMARK  4 active torsions:
REMARK  status: ('A' for Active; 'I' for Inactive)
REMARK    1  A    between atoms: C2_2  and  C4_4 
REMARK    2  A    between atoms: C8_8  and  C9_9 
REMARK    3  A    between atoms: C10_12  and  C11_13 
REMARK       I    between atoms: C11_13  and  N2_15 
REMARK    4  A    between atoms: N2_15  and  C12_17 
ROOT
HETATM    1  C9  UNL     1      -7.865   4.065  28.207  1.00  0.00     0.086 A 
HETATM    2  N1  UNL     1      -6.924   4.838  27.711  1.00  0.00    -0.343 N 
ATOM      3  H1  UNL     1      -6.120   5.094  28.284  1.00  0.00     0.167 HD
HETATM    4  C10 UNL     1      -7.018   5.275  26.489  1.00  0.00     0.133 A 
HETATM    5  C16 UNL     1      -8.128   4.893  25.773  1.00  0.00     0.121 A 
HETATM    6  N3  UNL     1      -8.475   5.233  24.415  1.00  0.00    -0.092 NA
HETATM    7  S1  UNL     1      -8.960   3.927  26.911  1.00  0.00    -0.054 SA
ENDROOT
BRANCH   1   8
HETATM    8  C8  UNL     1      -7.994   3.448  29.538  1.00  0.00    -0.002 A 
HETATM    9  C7  UNL     1      -7.840   2.112  29.715  1.00  0.00     0.014 A 
HETATM   10  C6  UNL     1      -7.965   1.539  30.974  1.00  0.00     0.002 A 
HETATM   11  C5  UNL     1      -8.250   2.368  32.038  1.00  0.00     0.007 A 
HETATM   12  C4  UNL     1      -8.415   3.738  31.904  1.00  0.00    -0.054 A 
HETATM   13  C17 UNL     1      -8.279   4.247  30.632  1.00  0.00     0.021 A 
BRANCH  12  14
HETATM   14  C2  UNL     1      -8.721   4.622  33.062  1.00  0.00     0.010 C 
HETATM   15  C1  UNL     1      -7.477   5.137  33.737  1.00  0.00     0.015 C 
HETATM   16  C3  UNL     1      -9.494   5.845  32.568  1.00  0.00     0.015 C 
ENDBRANCH  12  14
ENDBRANCH   1   8
BRANCH   4  17
HETATM   17  C11 UNL     1      -5.981   6.151  25.879  1.00  0.00     0.271 C 
HETATM   18  O1  UNL     1      -4.839   6.202  26.376  1.00  0.00    -0.266 OA
HETATM   19  N2  UNL     1      -6.243   6.943  24.734  1.00  0.00    -0.348 N 
ATOM     20  H2  UNL     1      -7.176   6.902  24.325  1.00  0.00     0.163 HD
BRANCH  19  21
HETATM   21  C12 UNL     1      -5.269   7.800  24.117  1.00  0.00     0.022 C 
HETATM   22  C13 UNL     1      -3.930   7.140  23.989  1.00  0.00     0.037 C 
HETATM   23  C14 UNL     1      -5.070   9.090  24.892  1.00  0.00     0.037 C 
HETATM   24  C15 UNL     1      -5.793   8.195  22.737  1.00  0.00     0.037 C 
ENDBRANCH  19  21
ENDBRANCH   4  17
TORSDOF 4
ENDMDL
MODEL 2
REMARK VINA RESULT: -6.324550132      3.463      7.998
REMARK  4 active torsions:
REMARK  status: ('A' for Active; 'I' for Inactive)
REMARK    1  A    between atoms: C2_2  and  C4_4 
REMARK    2  A    between atoms: C8_8  and  C9_9 
REMARK    3  A    between atoms: C10_12  and  C11_13 
REMARK       I    between atoms: C11_13  and  N2_15 
REMARK    4  A    between atoms: N2_15  and  C12_17 
ROOT
HETATM    1  C9  UNL     1      -7.224   4.314  25.246  1.00  0.00     0.086 A 
HETATM    2  N1  UNL     1      -7.373   3.692  26.395  1.00  0.00    -0.343 N 
ATOM      3  H1  UNL     1      -7.186   2.692  26.461  1.00  0.00     0.167 HD
HETATM    4  C10 UNL     1      -7.759   4.354  27.448  1.00  0.00     0.133 A 
HETATM    5  C16 UNL     1      -7.995   5.699  27.288  1.00  0.00     0.121 A 
HETATM    6  N3  UNL     1      -8.427   6.653  28.279  1.00  0.00    -0.092 NA
HETATM    7  S1  UNL     1      -7.643   5.919  25.630  1.00  0.00    -0.054 SA
ENDROOT
BRANCH   1   8
HETATM    8  C8  UNL     1      -6.806   3.804  23.929  1.00  0.00    -0.002 A 
HETATM    9  C7  UNL     1      -5.971   4.515  23.130  1.00  0.00     0.014 A 
HETATM   10  C6  UNL     1      -5.584   4.026  21.889  1.00  0.00     0.002 A 
HETATM   11  C5  UNL     1      -6.071   2.799  21.493  1.00  0.00     0.007 A 
HETATM   12  C4  UNL     1      -6.926   2.039  22.278  1.00  0.00    -0.054 A 
HETATM   13  C17 UNL     1      -7.275   2.576  23.497  1.00  0.00     0.021 A 
BRANCH  12  14
HETATM   14  C2  UNL     1      -7.445   0.715  21.838  1.00  0.00     0.010 C 
HETATM   15  C1  UNL     1      -8.363   0.091  22.856  1.00  0.00     0.015 C 
HETATM   16  C3  UNL     1      -8.263   0.897  20.560  1.00  0.00     0.015 C 
ENDBRANCH  12  14
ENDBRANCH   1   8
BRANCH   4  17
HETATM   17  C11 UNL     1      -7.942   3.699  28.771  1.00  0.00     0.271 C 
HETATM   18  O1  UNL     1      -7.723   2.478  28.897  1.00  0.00    -0.266 OA
HETATM   19  N2  UNL     1      -8.361   4.420  29.916  1.00  0.00    -0.348 N 
ATOM     20  H2  UNL     1      -8.539   5.419  29.817  1.00  0.00     0.163 HD
BRANCH  19  21
HETATM   21  C12 UNL     1      -8.548   3.824  31.210  1.00  0.00     0.022 C 
HETATM   22  C13 UNL     1      -7.330   3.090  31.681  1.00  0.00     0.037 C 
HETATM   23  C14 UNL     1      -9.707   2.843  31.224  1.00  0.00     0.037 C 
HETATM   24  C15 UNL     1      -8.904   4.936  32.196  1.00  0.00     0.037 C 
ENDBRANCH  19  21
ENDBRANCH   4  17
TORSDOF 4
ENDMDL
MODEL 3
REMARK VINA RESULT: -6.266191020      3.328      8.277
REMARK  4 active torsions:
REMARK  status: ('A' for Active; 'I' for Inactive)
REMARK    1  A    between atoms: C2_2  and  C4_4 
REMARK    2  A    between atoms: C8_8  and  C9_9 
REMARK    3  A    between atoms: C10_12  and  C11_13 
REMARK       I    between atoms: C11_13  and  N2_15 
REMARK    4  A    between atoms: N2_15  and  C12_17 
ROOT
HETATM    1  C9  UNL     1      -7.519   3.611  27.254  1.00  0.00     0.086 A 
HETATM    2  N1  UNL     1      -7.384   2.699  28.192  1.00  0.00    -0.343 N 
ATOM      3  H1  UNL     1      -6.976   1.792  27.966  1.00  0.00     0.167 HD
HETATM    4  C10 UNL     1      -7.770   2.955  29.408  1.00  0.00     0.133 A 
HETATM    5  C16 UNL     1      -8.312   4.197  29.643  1.00  0.00     0.121 A 
HETATM    6  N3  UNL     1      -8.814   4.730  30.885  1.00  0.00    -0.092 NA
HETATM    7  S1  UNL     1      -8.227   4.912  28.093  1.00  0.00    -0.054 SA
ENDROOT
BRANCH   1   8
HETATM    8  C8  UNL     1      -7.169   3.573  25.824  1.00  0.00    -0.002 A 
HETATM    9  C7  UNL     1      -6.441   4.563  25.249  1.00  0.00     0.014 A 
HETATM   10  C6  UNL     1      -6.117   4.519  23.899  1.00  0.00     0.002 A 
HETATM   11  C5  UNL     1      -6.554   3.440  23.161  1.00  0.00     0.007 A 
HETATM   12  C4  UNL     1      -7.299   2.406  23.708  1.00  0.00    -0.054 A 
HETATM   13  C17 UNL     1      -7.590   2.506  25.050  1.00  0.00     0.021 A 
BRANCH  12  14
HETATM   14  C2  UNL     1      -7.765   1.245  22.899  1.00  0.00     0.010 C 
HETATM   15  C1  UNL     1      -9.249   1.281  22.644  1.00  0.00     0.015 C 
HETATM   16  C3  UNL     1      -7.081   1.282  21.532  1.00  0.00     0.015 C 
ENDBRANCH  12  14
ENDBRANCH   1   8
BRANCH   4  17
HETATM   17  C11 UNL     1      -7.637   1.960  30.506  1.00  0.00     0.271 C 
HETATM   18  O1  UNL     1      -8.027   0.787  30.334  1.00  0.00    -0.266 OA
HETATM   19  N2  UNL     1      -7.075   2.295  31.762  1.00  0.00    -0.348 N 
ATOM     20  H2  UNL     1      -6.755   3.253  31.905  1.00  0.00     0.163 HD
BRANCH  19  21
HETATM   21  C12 UNL     1      -6.931   1.363  32.846  1.00  0.00     0.022 C 
HETATM   22  C13 UNL     1      -6.157   0.143  32.449  1.00  0.00     0.037 C 
HETATM   23  C14 UNL     1      -8.273   0.898  33.382  1.00  0.00     0.037 C 
HETATM   24  C15 UNL     1      -6.225   2.080  33.996  1.00  0.00     0.037 C 
ENDBRANCH  19  21
ENDBRANCH   4  17
TORSDOF 4
ENDMDL
MODEL 4
REMARK VINA RESULT: -6.218362001      2.882      4.116
REMARK  4 active torsions:
REMARK  status: ('A' for Active; 'I' for Inactive)
REMARK    1  A    between atoms: C2_2  and  C4_4 
REMARK    2  A    between atoms: C8_8  and  C9_9 
REMARK    3  A    between atoms: C10_12  and  C11_13 
REMARK       I    between atoms: C11_13  and  N2_15 
REMARK    4  A    between atoms: N2_15  and  C12_17 
ROOT
HETATM    1  C9  UNL     1      -7.476   3.560  27.931  1.00  0.00     0.086 A 
HETATM    2  N1  UNL     1      -7.957   3.126  26.787  1.00  0.00    -0.343 N 
ATOM      3  H1  UNL     1      -8.717   2.446  26.779  1.00  0.00     0.167 HD
HETATM    4  C10 UNL     1      -7.464   3.565  25.666  1.00  0.00     0.133 A 
HETATM    5  C16 UNL     1      -6.440   4.479  25.749  1.00  0.00     0.121 A 
HETATM    6  N3  UNL     1      -5.723   5.117  24.672  1.00  0.00    -0.092 NA
HETATM    7  S1  UNL     1      -6.259   4.645  27.440  1.00  0.00    -0.054 SA
ENDROOT
BRANCH   1   8
HETATM    8  C8  UNL     1      -7.851   3.227  29.316  1.00  0.00    -0.002 A 
HETATM    9  C7  UNL     1      -7.776   1.954  29.782  1.00  0.00     0.014 A 
HETATM   10  C6  UNL     1      -8.134   1.650  31.088  1.00  0.00     0.002 A 
HETATM   11  C5  UNL     1      -8.565   2.678  31.899  1.00  0.00     0.007 A 
HETATM   12  C4  UNL     1      -8.656   3.993  31.466  1.00  0.00    -0.054 A 
HETATM   13  C17 UNL     1      -8.289   4.231  30.161  1.00  0.00     0.021 A 
BRANCH  12  14
HETATM   14  C2  UNL     1      -9.123   5.093  32.353  1.00  0.00     0.010 C 
HETATM   15  C1  UNL     1     -10.436   4.777  33.019  1.00  0.00     0.015 C 
HETATM   16  C3  UNL     1      -8.101   5.303  33.470  1.00  0.00     0.015 C 
ENDBRANCH  12  14
ENDBRANCH   1   8
BRANCH   4  17
HETATM   17  C11 UNL     1      -7.973   3.108  24.345  1.00  0.00     0.271 C 
HETATM   18  O1  UNL     1      -8.707   3.855  23.668  1.00  0.00    -0.266 OA
HETATM   19  N2  UNL     1      -7.651   1.834  23.813  1.00  0.00    -0.348 N 
ATOM     20  H2  UNL     1      -7.050   1.221  24.364  1.00  0.00     0.163 HD
BRANCH  19  21
HETATM   21  C12 UNL     1      -8.122   1.358  22.543  1.00  0.00     0.022 C 
HETATM   22  C13 UNL     1      -9.594   1.571  22.365  1.00  0.00     0.037 C 
HETATM   23  C14 UNL     1      -7.849  -0.124  22.352  1.00  0.00     0.037 C 
HETATM   24  C15 UNL     1      -7.350   2.090  21.446  1.00  0.00     0.037 C 
ENDBRANCH  19  21
ENDBRANCH   4  17
TORSDOF 4
ENDMDL
MODEL 5
REMARK VINA RESULT: -6.198094688      2.479      3.095
REMARK  4 active torsions:
REMARK  status: ('A' for Active; 'I' for Inactive)
REMARK    1  A    between atoms: C2_2  and  C4_4 
REMARK    2  A    between atoms: C8_8  and  C9_9 
REMARK    3  A    between atoms: C10_12  and  C11_13 
REMARK       I    between atoms: C11_13  and  N2_15 
REMARK    4  A    between atoms: N2_15  and  C12_17 
ROOT
HETATM    1  C9  UNL     1      -7.979   3.747  28.360  1.00  0.00     0.086 A 
HETATM    2  N1  UNL     1      -7.761   3.105  27.234  1.00  0.00    -0.343 N 
ATOM      3  H1  UNL     1      -7.604   2.097  27.244  1.00  0.00     0.167 HD
HETATM    4  C10 UNL     1      -7.746   3.754  26.106  1.00  0.00     0.133 A 
HETATM    5  C16 UNL     1      -7.963   5.111  26.164  1.00  0.00     0.121 A 
HETATM    6  N3  UNL     1      -7.997   6.057  25.076  1.00  0.00    -0.092 NA
HETATM    7  S1  UNL     1      -8.176   5.357  27.842  1.00  0.00    -0.054 SA
ENDROOT
BRANCH   1   8
HETATM    8  C8  UNL     1      -8.046   3.255  29.746  1.00  0.00    -0.002 A 
HETATM    9  C7  UNL     1      -7.846   1.945  30.041  1.00  0.00     0.014 A 
HETATM   10  C6  UNL     1      -7.912   1.490  31.351  1.00  0.00     0.002 A 
HETATM   11  C5  UNL     1      -8.185   2.407  32.343  1.00  0.00     0.007 A 
HETATM   12  C4  UNL     1      -8.395   3.754  32.088  1.00  0.00    -0.054 A 
HETATM   13  C17 UNL     1      -8.318   4.145  30.770  1.00  0.00     0.021 A 
BRANCH  12  14
HETATM   14  C2  UNL     1      -8.689   4.734  33.170  1.00  0.00     0.010 C 
HETATM   15  C1  UNL     1      -7.438   5.328  33.762  1.00  0.00     0.015 C 
HETATM   16  C3  UNL     1      -9.496   5.895  32.588  1.00  0.00     0.015 C 
ENDBRANCH  12  14
ENDBRANCH   1   8
BRANCH   4  17
HETATM   17  C11 UNL     1      -7.505   3.075  24.804  1.00  0.00     0.271 C 
HETATM   18  O1  UNL     1      -8.002   1.953  24.586  1.00  0.00    -0.266 OA
HETATM   19  N2  UNL     1      -6.720   3.664  23.782  1.00  0.00    -0.348 N 
ATOM     20  H2  UNL     1      -6.313   4.583  23.957  1.00  0.00     0.163 HD
BRANCH  19  21
HETATM   21  C12 UNL     1      -6.465   3.040  22.513  1.00  0.00     0.022 C 
HETATM   22  C13 UNL     1      -7.703   2.452  21.909  1.00  0.00     0.037 C 
HETATM   23  C14 UNL     1      -5.436   1.929  22.619  1.00  0.00     0.037 C 
HETATM   24  C15 UNL     1      -5.875   4.095  21.577  1.00  0.00     0.037 C 
ENDBRANCH  19  21
ENDBRANCH   4  17
TORSDOF 4
ENDMDL
