MODEL 1
REMARK VINA RESULT: -6.187619541      0.000      0.000
REMARK  2 active torsions:
REMARK  status: ('A' for Active; 'I' for Inactive)
REMARK    1  A    between atoms: C2_2  and  N1_3 
REMARK       I    between atoms: N1_3  and  C3_5 
REMARK       I    between atoms: C3_5  and  N3_9 
REMARK    2  A    between atoms: N3_9  and  C4_11 
ROOT
HETATM    1  N1  UNL     1      22.275 -13.332  -7.574  1.00  0.00    -0.227 N 
ATOM      2  H1  UNL     1      21.546 -13.374  -8.286  1.00  0.00     0.177 HD
HETATM    3  C3  UNL     1      21.985 -12.698  -6.346  1.00  0.00     0.667 C 
HETATM    4  N2  UNL     1      22.881 -11.976  -5.783  1.00  0.00    -0.235 N 
ATOM      5  H21 UNL     1      22.672 -11.518  -4.896  1.00  0.00     0.174 HD
ATOM      6  H22 UNL     1      23.798 -11.870  -6.217  1.00  0.00     0.174 HD
HETATM    7  N3  UNL     1      20.728 -12.844  -5.750  1.00  0.00    -0.222 N 
ATOM      8  H3  UNL     1      20.576 -13.649  -5.144  1.00  0.00     0.178 HD
ENDROOT
BRANCH   1   9
HETATM    9  C2  UNL     1      23.567 -13.925  -7.866  1.00  0.00     0.133 C 
HETATM   10  C1  UNL     1      24.324 -12.977  -8.790  1.00  0.00     0.027 C 
ENDBRANCH   1   9
BRANCH   7  11
HETATM   11  C4  UNL     1      19.628 -11.921  -5.942  1.00  0.00     0.099 C 
HETATM   12  C5  UNL     1      19.989 -10.627  -5.317  1.00  0.00     0.026 C 
HETATM   13  C6  UNL     1      18.902  -9.943  -4.561  1.00  0.00     0.002 C 
HETATM   14  C7  UNL     1      18.123 -10.842  -3.645  1.00  0.00     0.000 C 
HETATM   15  C8  UNL     1      18.370 -12.304  -3.924  1.00  0.00     0.002 C 
HETATM   16  C9  UNL     1      18.320 -12.477  -5.426  1.00  0.00     0.026 C 
ENDBRANCH   7  11
TORSDOF 2
ENDMDL
MODEL 2
REMARK VINA RESULT: -5.784240414      2.707      7.311
REMARK  2 active torsions:
REMARK  status: ('A' for Active; 'I' for Inactive)
REMARK    1  A    between atoms: C2_2  and  N1_3 
REMARK       I    between atoms: N1_3  and  C3_5 
REMARK       I    between atoms: C3_5  and  N3_9 
REMARK    2  A    between atoms: N3_9  and  C4_11 
ROOT
HETATM    1  N1  UNL     1      23.322 -12.094  -7.438  1.00  0.00    -0.227 N 
ATOM      2  H1  UNL     1      23.498 -11.112  -7.651  1.00  0.00     0.177 HD
HETATM    3  C3  UNL     1      23.813 -13.078  -8.323  1.00  0.00     0.667 C 
HETATM    4  N2  UNL     1      23.099 -14.110  -8.578  1.00  0.00    -0.235 N 
ATOM      5  H21 UNL     1      23.454 -14.821  -9.218  1.00  0.00     0.174 HD
ATOM      6  H22 UNL     1      22.187 -14.221  -8.136  1.00  0.00     0.174 HD
HETATM    7  N3  UNL     1      25.065 -12.926  -8.929  1.00  0.00    -0.222 N 
ATOM      8  H3  UNL     1      25.886 -13.256  -8.422  1.00  0.00     0.178 HD
ENDROOT
BRANCH   1   9
HETATM    9  C2  UNL     1      22.575 -12.421  -6.236  1.00  0.00     0.133 C 
HETATM   10  C1  UNL     1      21.418 -11.435  -6.116  1.00  0.00     0.027 C 
ENDBRANCH   1   9
BRANCH   7  11
HETATM   11  C4  UNL     1      25.266 -12.330 -10.234  1.00  0.00     0.099 C 
HETATM   12  C5  UNL     1      26.552 -12.824 -10.780  1.00  0.00     0.026 C 
HETATM   13  C6  UNL     1      27.397 -11.812 -11.477  1.00  0.00     0.002 C 
HETATM   14  C7  UNL     1      27.531 -10.508 -10.745  1.00  0.00     0.000 C 
HETATM   15  C8  UNL     1      26.522 -10.363  -9.633  1.00  0.00     0.002 C 
HETATM   16  C9  UNL     1      25.191 -10.820 -10.188  1.00  0.00     0.026 C 
ENDBRANCH   7  11
TORSDOF 2
ENDMDL
MODEL 3
REMARK VINA RESULT: -5.355348070      2.590      7.381
REMARK  2 active torsions:
REMARK  status: ('A' for Active; 'I' for Inactive)
REMARK    1  A    between atoms: C2_2  and  N1_3 
REMARK       I    between atoms: N1_3  and  C3_5 
REMARK       I    between atoms: C3_5  and  N3_9 
REMARK    2  A    between atoms: N3_9  and  C4_11 
ROOT
HETATM    1  N1  UNL     1      23.483 -12.167  -7.260  1.00  0.00    -0.227 N 
ATOM      2  H1  UNL     1      23.829 -11.208  -7.229  1.00  0.00     0.177 HD
HETATM    3  C3  UNL     1      23.869 -12.991  -8.340  1.00  0.00     0.667 C 
HETATM    4  N2  UNL     1      23.017 -13.798  -8.853  1.00  0.00    -0.235 N 
ATOM      5  H21 UNL     1      23.296 -14.393  -9.633  1.00  0.00     0.174 HD
ATOM      6  H22 UNL     1      22.071 -13.848  -8.475  1.00  0.00     0.174 HD
HETATM    7  N3  UNL     1      25.167 -12.922  -8.858  1.00  0.00    -0.222 N 
ATOM      8  H3  UNL     1      25.888 -13.495  -8.421  1.00  0.00     0.178 HD
ENDROOT
BRANCH   1   9
HETATM    9  C2  UNL     1      22.614 -12.627  -6.192  1.00  0.00     0.133 C 
HETATM   10  C1  UNL     1      21.455 -11.644  -6.070  1.00  0.00     0.027 C 
ENDBRANCH   1   9
BRANCH   7  11
HETATM   11  C4  UNL     1      25.549 -12.086  -9.977  1.00  0.00     0.099 C 
HETATM   12  C5  UNL     1      24.435 -12.073 -10.953  1.00  0.00     0.026 C 
HETATM   13  C6  UNL     1      24.825 -12.162 -12.390  1.00  0.00     0.002 C 
HETATM   14  C7  UNL     1      25.857 -13.212 -12.688  1.00  0.00     0.000 C 
HETATM   15  C8  UNL     1      26.532 -13.727 -11.441  1.00  0.00     0.002 C 
HETATM   16  C9  UNL     1      26.861 -12.520 -10.591  1.00  0.00     0.026 C 
ENDBRANCH   7  11
TORSDOF 2
ENDMDL
MODEL 4
REMARK VINA RESULT: -5.169395665      4.119      8.160
REMARK  2 active torsions:
REMARK  status: ('A' for Active; 'I' for Inactive)
REMARK    1  A    between atoms: C2_2  and  N1_3 
REMARK       I    between atoms: N1_3  and  C3_5 
REMARK       I    between atoms: C3_5  and  N3_9 
REMARK    2  A    between atoms: N3_9  and  C4_11 
ROOT
HETATM    1  N1  UNL     1      24.266 -12.352  -8.302  1.00  0.00    -0.227 N 
ATOM      2  H1  UNL     1      24.279 -11.543  -7.681  1.00  0.00     0.177 HD
HETATM    3  C3  UNL     1      24.922 -12.258  -9.550  1.00  0.00     0.667 C 
HETATM    4  N2  UNL     1      24.390 -12.796 -10.583  1.00  0.00    -0.235 N 
ATOM      5  H21 UNL     1      24.864 -12.729 -11.484  1.00  0.00     0.174 HD
ATOM      6  H22 UNL     1      23.505 -13.297 -10.499  1.00  0.00     0.174 HD
HETATM    7  N3  UNL     1      26.135 -11.571  -9.664  1.00  0.00    -0.222 N 
ATOM      8  H3  UNL     1      26.995 -12.085  -9.474  1.00  0.00     0.178 HD
ENDROOT
BRANCH   1   9
HETATM    9  C2  UNL     1      23.575 -13.552  -7.867  1.00  0.00     0.133 C 
HETATM   10  C1  UNL     1      22.554 -13.151  -6.807  1.00  0.00     0.027 C 
ENDBRANCH   1   9
BRANCH   7  11
HETATM   11  C4  UNL     1      26.245 -10.176 -10.036  1.00  0.00     0.099 C 
HETATM   12  C5  UNL     1      26.508 -10.099 -11.492  1.00  0.00     0.026 C 
HETATM   13  C6  UNL     1      27.515  -9.087 -11.920  1.00  0.00     0.002 C 
HETATM   14  C7  UNL     1      28.770  -9.073 -11.094  1.00  0.00     0.000 C 
HETATM   15  C8  UNL     1      28.620  -9.841  -9.804  1.00  0.00     0.002 C 
HETATM   16  C9  UNL     1      27.284  -9.447  -9.214  1.00  0.00     0.026 C 
ENDBRANCH   7  11
TORSDOF 2
ENDMDL
MODEL 5
REMARK VINA RESULT: -4.975822573      1.324      2.379
REMARK  2 active torsions:
REMARK  status: ('A' for Active; 'I' for Inactive)
REMARK    1  A    between atoms: C2_2  and  N1_3 
REMARK       I    between atoms: N1_3  and  C3_5 
REMARK       I    between atoms: C3_5  and  N3_9 
REMARK    2  A    between atoms: N3_9  and  C4_11 
ROOT
HETATM    1  N1  UNL     1      23.805 -12.341  -8.017  1.00  0.00    -0.227 N 
ATOM      2  H1  UNL     1      23.733 -11.365  -7.732  1.00  0.00     0.177 HD
HETATM    3  C3  UNL     1      23.012 -13.301  -7.351  1.00  0.00     0.667 C 
HETATM    4  N2  UNL     1      23.506 -14.452  -7.085  1.00  0.00    -0.235 N 
ATOM      5  H21 UNL     1      22.933 -15.146  -6.604  1.00  0.00     0.174 HD
ATOM      6  H22 UNL     1      24.462 -14.674  -7.363  1.00  0.00     0.174 HD
HETATM    7  N3  UNL     1      21.700 -12.998  -6.971  1.00  0.00    -0.222 N 
ATOM      8  H3  UNL     1      20.957 -13.148  -7.653  1.00  0.00     0.178 HD
ENDROOT
BRANCH   1   9
HETATM    9  C2  UNL     1      24.720 -12.687  -9.090  1.00  0.00     0.133 C 
HETATM   10  C1  UNL     1      25.335 -11.396  -9.621  1.00  0.00     0.027 C 
ENDBRANCH   1   9
BRANCH   7  11
HETATM   11  C4  UNL     1      21.332 -12.484  -5.667  1.00  0.00     0.099 C 
HETATM   12  C5  UNL     1      19.921 -12.849  -5.402  1.00  0.00     0.026 C 
HETATM   13  C6  UNL     1      19.083 -11.793  -4.764  1.00  0.00     0.002 C 
HETATM   14  C7  UNL     1      19.235 -10.429  -5.374  1.00  0.00     0.000 C 
HETATM   15  C8  UNL     1      20.440 -10.331  -6.275  1.00  0.00     0.002 C 
HETATM   16  C9  UNL     1      21.586 -10.998  -5.548  1.00  0.00     0.026 C 
ENDBRANCH   7  11
TORSDOF 2
ENDMDL
