MODEL 1
REMARK VINA RESULT: -5.185977087      0.000      0.000
REMARK  3 active torsions:
REMARK  status: ('A' for Active; 'I' for Inactive)
REMARK    1  A    between atoms: C2_2  and  C4_5 
REMARK    2  A    between atoms: C4_5  and  N3_9 
REMARK    3  A    between atoms: N3_9  and  C5_11 
ROOT
HETATM    1  C1  UNL     1      29.831  -7.239  -8.894  1.00  0.00     0.039 C 
HETATM    2  C2  UNL     1      28.861  -8.022  -9.330  1.00  0.00     0.078 C 
HETATM    3  C3  UNL     1      27.951  -7.482 -10.304  1.00  0.00     0.102 C 
HETATM    4  N1  UNL     1      27.228  -7.037 -11.107  1.00  0.00    -0.191 NA
ENDROOT
BRANCH   2   5
HETATM    5  C4  UNL     1      28.730  -9.368  -8.839  1.00  0.00     0.116 C 
HETATM    6  N2  UNL     1      29.192  -9.688  -7.695  1.00  0.00    -0.384 N 
ATOM      7  H22 UNL     1      29.657  -8.973  -7.134  1.00  0.00     0.157 HD
ATOM      8  H21 UNL     1      29.100 -10.642  -7.346  1.00  0.00     0.157 HD
BRANCH   5   9
HETATM    9  N3  UNL     1      28.087 -10.360  -9.617  1.00  0.00    -0.348 N 
ATOM     10  H3  UNL     1      27.095 -10.547  -9.468  1.00  0.00     0.163 HD
BRANCH   9  11
HETATM   11  C5  UNL     1      28.810 -11.115 -10.620  1.00  0.00     0.285 C 
HETATM   12  C6  UNL     1      27.862 -11.309 -11.792  1.00  0.00     0.054 C 
HETATM   13  C7  UNL     1      27.039 -12.547 -11.456  1.00  0.00     0.005 C 
HETATM   14  C8  UNL     1      27.968 -13.725 -11.592  1.00  0.00     0.028 C 
HETATM   15  C9  UNL     1      29.298 -13.450 -10.960  1.00  0.00     0.235 C 
HETATM   16  N4  UNL     1      29.274 -12.325 -10.050  1.00  0.00    -0.054 N 
ATOM     17  H42 UNL     1      30.193 -12.190  -9.629  1.00  0.00     0.279 HD
ATOM     18  H41 UNL     1      28.731 -12.555  -9.216  1.00  0.00     0.279 HD
ENDBRANCH   9  11
ENDBRANCH   5   9
ENDBRANCH   2   5
TORSDOF 3
ENDMDL
MODEL 2
REMARK VINA RESULT: -5.181645074      1.013      1.348
REMARK  3 active torsions:
REMARK  status: ('A' for Active; 'I' for Inactive)
REMARK    1  A    between atoms: C2_2  and  C4_5 
REMARK    2  A    between atoms: C4_5  and  N3_9 
REMARK    3  A    between atoms: N3_9  and  C5_11 
ROOT
HETATM    1  C1  UNL     1      27.015  -8.004 -10.328  1.00  0.00     0.039 C 
HETATM    2  C2  UNL     1      28.153  -8.177  -9.681  1.00  0.00     0.078 C 
HETATM    3  C3  UNL     1      29.059  -7.062  -9.611  1.00  0.00     0.102 C 
HETATM    4  N1  UNL     1      29.781  -6.145  -9.548  1.00  0.00    -0.191 NA
ENDROOT
BRANCH   2   5
HETATM    5  C4  UNL     1      28.463  -9.442  -9.072  1.00  0.00     0.116 C 
HETATM    6  N2  UNL     1      29.164  -9.496  -8.009  1.00  0.00    -0.384 N 
ATOM      7  H22 UNL     1      29.502  -8.625  -7.598  1.00  0.00     0.157 HD
ATOM      8  H21 UNL     1      29.384 -10.393  -7.577  1.00  0.00     0.157 HD
BRANCH   5   9
HETATM    9  N3  UNL     1      27.995 -10.651  -9.642  1.00  0.00    -0.348 N 
ATOM     10  H3  UNL     1      27.098 -11.031  -9.341  1.00  0.00     0.163 HD
BRANCH   9  11
HETATM   11  C5  UNL     1      28.767 -11.358 -10.644  1.00  0.00     0.285 C 
HETATM   12  C6  UNL     1      27.850 -11.566 -11.838  1.00  0.00     0.054 C 
HETATM   13  C7  UNL     1      27.069 -12.842 -11.542  1.00  0.00     0.005 C 
HETATM   14  C8  UNL     1      28.047 -13.980 -11.681  1.00  0.00     0.028 C 
HETATM   15  C9  UNL     1      29.352 -13.665 -11.017  1.00  0.00     0.235 C 
HETATM   16  N4  UNL     1      29.266 -12.560 -10.087  1.00  0.00    -0.054 N 
ATOM     17  H42 UNL     1      30.171 -12.397  -9.645  1.00  0.00     0.279 HD
ATOM     18  H41 UNL     1      28.718 -12.827  -9.269  1.00  0.00     0.279 HD
ENDBRANCH   9  11
ENDBRANCH   5   9
ENDBRANCH   2   5
TORSDOF 3
ENDMDL
MODEL 3
REMARK VINA RESULT: -5.120352397      1.399      1.627
REMARK  3 active torsions:
REMARK  status: ('A' for Active; 'I' for Inactive)
REMARK    1  A    between atoms: C2_2  and  C4_5 
REMARK    2  A    between atoms: C4_5  and  N3_9 
REMARK    3  A    between atoms: N3_9  and  C5_11 
ROOT
HETATM    1  C1  UNL     1      30.498  -7.537  -8.800  1.00  0.00     0.039 C 
HETATM    2  C2  UNL     1      29.305  -7.966  -9.167  1.00  0.00     0.078 C 
HETATM    3  C3  UNL     1      28.618  -7.234 -10.197  1.00  0.00     0.102 C 
HETATM    4  N1  UNL     1      28.076  -6.640 -11.046  1.00  0.00    -0.191 NA
ENDROOT
BRANCH   2   5
HETATM    5  C4  UNL     1      28.723  -9.128  -8.550  1.00  0.00     0.116 C 
HETATM    6  N2  UNL     1      29.344  -9.750  -7.627  1.00  0.00    -0.384 N 
ATOM      7  H22 UNL     1      30.260  -9.411  -7.335  1.00  0.00     0.157 HD
ATOM      8  H21 UNL     1      28.931 -10.574  -7.189  1.00  0.00     0.157 HD
BRANCH   5   9
HETATM    9  N3  UNL     1      27.452  -9.600  -8.957  1.00  0.00    -0.348 N 
ATOM     10  H3  UNL     1      26.642  -9.432  -8.361  1.00  0.00     0.163 HD
BRANCH   9  11
HETATM   11  C5  UNL     1      27.281 -10.318 -10.204  1.00  0.00     0.285 C 
HETATM   12  C6  UNL     1      25.785 -10.419 -10.450  1.00  0.00     0.054 C 
HETATM   13  C7  UNL     1      25.321 -11.651  -9.680  1.00  0.00     0.005 C 
HETATM   14  C8  UNL     1      25.855 -12.845 -10.427  1.00  0.00     0.028 C 
HETATM   15  C9  UNL     1      27.282 -12.643 -10.835  1.00  0.00     0.235 C 
HETATM   16  N4  UNL     1      27.934 -11.571 -10.115  1.00  0.00    -0.054 N 
ATOM     17  H42 UNL     1      28.907 -11.486 -10.410  1.00  0.00     0.279 HD
ATOM     18  H41 UNL     1      28.070 -11.832  -9.138  1.00  0.00     0.279 HD
ENDBRANCH   9  11
ENDBRANCH   5   9
ENDBRANCH   2   5
TORSDOF 3
ENDMDL
MODEL 4
REMARK VINA RESULT: -4.922721535      1.492      5.054
REMARK  3 active torsions:
REMARK  status: ('A' for Active; 'I' for Inactive)
REMARK    1  A    between atoms: C2_2  and  C4_5 
REMARK    2  A    between atoms: C4_5  and  N3_9 
REMARK    3  A    between atoms: N3_9  and  C5_11 
ROOT
HETATM    1  C1  UNL     1      27.351 -13.663 -11.895  1.00  0.00     0.039 C 
HETATM    2  C2  UNL     1      27.786 -12.893 -10.915  1.00  0.00     0.078 C 
HETATM    3  C3  UNL     1      29.125 -13.110 -10.437  1.00  0.00     0.102 C 
HETATM    4  N1  UNL     1      30.220 -13.285 -10.068  1.00  0.00    -0.191 NA
ENDROOT
BRANCH   2   5
HETATM    5  C4  UNL     1      26.938 -11.876 -10.352  1.00  0.00     0.116 C 
HETATM    6  N2  UNL     1      25.882 -12.193  -9.713  1.00  0.00    -0.384 N 
ATOM      7  H22 UNL     1      25.649 -13.181  -9.607  1.00  0.00     0.157 HD
ATOM      8  H21 UNL     1      25.281 -11.472  -9.314  1.00  0.00     0.157 HD
BRANCH   5   9
HETATM    9  N3  UNL     1      27.262 -10.506 -10.499  1.00  0.00    -0.348 N 
ATOM     10  H3  UNL     1      27.347 -10.110 -11.435  1.00  0.00     0.163 HD
BRANCH   9  11
HETATM   11  C5  UNL     1      27.474  -9.656  -9.345  1.00  0.00     0.285 C 
HETATM   12  C6  UNL     1      27.104  -8.244  -9.765  1.00  0.00     0.054 C 
HETATM   13  C7  UNL     1      28.354  -7.666 -10.419  1.00  0.00     0.005 C 
HETATM   14  C8  UNL     1      29.342  -7.425  -9.307  1.00  0.00     0.028 C 
HETATM   15  C9  UNL     1      29.394  -8.584  -8.360  1.00  0.00     0.235 C 
HETATM   16  N4  UNL     1      28.814  -9.792  -8.905  1.00  0.00    -0.054 N 
ATOM     17  H42 UNL     1      28.891 -10.557  -8.235  1.00  0.00     0.279 HD
ATOM     18  H41 UNL     1      29.399 -10.158  -9.657  1.00  0.00     0.279 HD
ENDBRANCH   9  11
ENDBRANCH   5   9
ENDBRANCH   2   5
TORSDOF 3
ENDMDL
MODEL 5
REMARK VINA RESULT: -4.873932559      2.547      4.798
REMARK  3 active torsions:
REMARK  status: ('A' for Active; 'I' for Inactive)
REMARK    1  A    between atoms: C2_2  and  C4_5 
REMARK    2  A    between atoms: C4_5  and  N3_9 
REMARK    3  A    between atoms: N3_9  and  C5_11 
ROOT
HETATM    1  C1  UNL     1      24.839  -9.273 -11.407  1.00  0.00     0.039 C 
HETATM    2  C2  UNL     1      24.997 -10.545 -11.089  1.00  0.00     0.078 C 
HETATM    3  C3  UNL     1      24.248 -11.519 -11.835  1.00  0.00     0.102 C 
HETATM    4  N1  UNL     1      23.645 -12.303 -12.459  1.00  0.00    -0.191 NA
ENDROOT
BRANCH   2   5
HETATM    5  C4  UNL     1      25.893 -10.929 -10.031  1.00  0.00     0.116 C 
HETATM    6  N2  UNL     1      25.511 -11.732  -9.118  1.00  0.00    -0.384 N 
ATOM      7  H22 UNL     1      24.559 -12.097  -9.151  1.00  0.00     0.157 HD
ATOM      8  H21 UNL     1      26.146 -12.004  -8.368  1.00  0.00     0.157 HD
BRANCH   5   9
HETATM    9  N3  UNL     1      27.213 -10.421  -9.985  1.00  0.00    -0.348 N 
ATOM     10  H3  UNL     1      27.913 -10.786 -10.631  1.00  0.00     0.163 HD
BRANCH   9  11
HETATM   11  C5  UNL     1      27.590  -9.392  -9.037  1.00  0.00     0.285 C 
HETATM   12  C6  UNL     1      27.697  -8.093  -9.818  1.00  0.00     0.054 C 
HETATM   13  C7  UNL     1      29.108  -8.074 -10.396  1.00  0.00     0.005 C 
HETATM   14  C8  UNL     1      30.040  -7.833  -9.237  1.00  0.00     0.028 C 
HETATM   15  C9  UNL     1      29.669  -8.672  -8.053  1.00  0.00     0.235 C 
HETATM   16  N4  UNL     1      28.790  -9.772  -8.387  1.00  0.00    -0.054 N 
ATOM     17  H42 UNL     1      28.583 -10.326  -7.556  1.00  0.00     0.279 HD
ATOM     18  H41 UNL     1      29.288 -10.468  -8.942  1.00  0.00     0.279 HD
ENDBRANCH   9  11
ENDBRANCH   5   9
ENDBRANCH   2   5
TORSDOF 3
ENDMDL
