MODEL 1
REMARK VINA RESULT: -4.554846353      0.000      0.000
REMARK  3 active torsions:
REMARK  status: ('A' for Active; 'I' for Inactive)
REMARK    1  A    between atoms: N1_1  and  C1_5 
REMARK    2  A    between atoms: C4_8  and  N2_9 
REMARK    3  A    between atoms: N2_9  and  C5_12 
ROOT
HETATM    1  C1  UNL     1      25.342 -12.524 -10.720  1.00  0.00     0.185 C 
HETATM    2  C2  UNL     1      26.412 -12.116 -11.703  1.00  0.00     0.034 C 
HETATM    3  C3  UNL     1      27.415 -11.412 -10.802  1.00  0.00     0.035 C 
HETATM    4  C4  UNL     1      26.493 -10.549  -9.966  1.00  0.00     0.188 C 
HETATM    5  C10 UNL     1      25.445 -11.555  -9.551  1.00  0.00     0.065 C 
ENDROOT
BRANCH   4   6
HETATM    6  N2  UNL     1      27.143  -9.923  -8.855  1.00  0.00    -0.067 N 
ATOM      7  H22 UNL     1      26.522  -9.295  -8.344  1.00  0.00     0.278 HD
ATOM      8  H21 UNL     1      27.337 -10.578  -8.098  1.00  0.00     0.278 HD
BRANCH   6   9
HETATM    9  C5  UNL     1      28.326  -9.261  -9.323  1.00  0.00     0.186 C 
HETATM   10  C6  UNL     1      29.317  -9.008  -8.198  1.00  0.00     0.033 C 
HETATM   11  C7  UNL     1      29.969  -7.678  -8.480  1.00  0.00     0.002 C 
HETATM   12  C8  UNL     1      29.549  -7.399  -9.917  1.00  0.00     0.002 C 
HETATM   13  C9  UNL     1      28.097  -7.867  -9.838  1.00  0.00     0.033 C 
ENDBRANCH   6   9
ENDBRANCH   4   6
BRANCH   1  14
HETATM   14  N1  UNL     1      24.038 -12.385 -11.354  1.00  0.00    -0.075 N 
ATOM     15  H13 UNL     1      24.013 -11.618 -12.025  1.00  0.00     0.274 HD
ATOM     16  H12 UNL     1      23.838 -13.148 -12.001  1.00  0.00     0.274 HD
ATOM     17  H11 UNL     1      23.325 -12.293 -10.630  1.00  0.00     0.274 HD
ENDBRANCH   1  14
TORSDOF 3
ENDMDL
MODEL 2
REMARK VINA RESULT: -4.361576713      2.421      3.540
REMARK  3 active torsions:
REMARK  status: ('A' for Active; 'I' for Inactive)
REMARK    1  A    between atoms: N1_1  and  C1_5 
REMARK    2  A    between atoms: C4_8  and  N2_9 
REMARK    3  A    between atoms: N2_9  and  C5_12 
ROOT
HETATM    1  C1  UNL     1      28.244 -13.304 -11.883  1.00  0.00     0.185 C 
HETATM    2  C2  UNL     1      26.926 -14.028 -12.013  1.00  0.00     0.034 C 
HETATM    3  C3  UNL     1      25.942 -12.985 -11.506  1.00  0.00     0.035 C 
HETATM    4  C4  UNL     1      26.656 -12.497 -10.263  1.00  0.00     0.188 C 
HETATM    5  C10 UNL     1      28.048 -12.252 -10.801  1.00  0.00     0.065 C 
ENDROOT
BRANCH   4   6
HETATM    6  N2  UNL     1      26.065 -11.330  -9.681  1.00  0.00    -0.067 N 
ATOM      7  H22 UNL     1      25.146 -11.518  -9.280  1.00  0.00     0.278 HD
ATOM      8  H21 UNL     1      26.538 -11.040  -8.825  1.00  0.00     0.278 HD
BRANCH   6   9
HETATM    9  C5  UNL     1      26.030 -10.289 -10.666  1.00  0.00     0.186 C 
HETATM   10  C6  UNL     1      26.663  -9.004 -10.157  1.00  0.00     0.033 C 
HETATM   11  C7  UNL     1      25.863  -7.863 -10.731  1.00  0.00     0.002 C 
HETATM   12  C8  UNL     1      25.017  -8.552 -11.794  1.00  0.00     0.002 C 
HETATM   13  C9  UNL     1      24.647  -9.818 -11.024  1.00  0.00     0.033 C 
ENDBRANCH   6   9
ENDBRANCH   4   6
BRANCH   1  14
HETATM   14  N1  UNL     1      29.267 -14.251 -11.462  1.00  0.00    -0.075 N 
ATOM     15  H13 UNL     1      29.874 -13.870 -10.737  1.00  0.00     0.274 HD
ATOM     16  H12 UNL     1      28.879 -15.029 -10.928  1.00  0.00     0.274 HD
ATOM     17  H11 UNL     1      29.788 -14.564 -12.282  1.00  0.00     0.274 HD
ENDBRANCH   1  14
TORSDOF 3
ENDMDL
MODEL 3
REMARK VINA RESULT: -4.282555289      0.959      1.600
REMARK  3 active torsions:
REMARK  status: ('A' for Active; 'I' for Inactive)
REMARK    1  A    between atoms: N1_1  and  C1_5 
REMARK    2  A    between atoms: C4_8  and  N2_9 
REMARK    3  A    between atoms: N2_9  and  C5_12 
ROOT
HETATM    1  C1  UNL     1      25.173 -12.615 -10.728  1.00  0.00     0.185 C 
HETATM    2  C2  UNL     1      26.305 -12.403 -11.703  1.00  0.00     0.034 C 
HETATM    3  C3  UNL     1      27.369 -11.773 -10.818  1.00  0.00     0.035 C 
HETATM    4  C4  UNL     1      26.545 -10.753 -10.060  1.00  0.00     0.188 C 
HETATM    5  C10 UNL     1      25.371 -11.595  -9.615  1.00  0.00     0.065 C 
ENDROOT
BRANCH   4   6
HETATM    6  N2  UNL     1      27.245 -10.143  -8.971  1.00  0.00    -0.067 N 
ATOM      7  H22 UNL     1      26.744 -10.234  -8.086  1.00  0.00     0.278 HD
ATOM      8  H21 UNL     1      28.086 -10.659  -8.711  1.00  0.00     0.278 HD
BRANCH   6   9
HETATM    9  C5  UNL     1      27.523  -8.777  -9.305  1.00  0.00     0.186 C 
HETATM   10  C6  UNL     1      26.590  -8.256 -10.386  1.00  0.00     0.033 C 
HETATM   11  C7  UNL     1      27.401  -7.329 -11.255  1.00  0.00     0.002 C 
HETATM   12  C8  UNL     1      28.666  -7.122 -10.432  1.00  0.00     0.002 C 
HETATM   13  C9  UNL     1      28.868  -8.553  -9.939  1.00  0.00     0.033 C 
ENDBRANCH   6   9
ENDBRANCH   4   6
BRANCH   1  14
HETATM   14  N1  UNL     1      23.909 -12.357 -11.404  1.00  0.00    -0.075 N 
ATOM     15  H13 UNL     1      23.311 -13.182 -11.438  1.00  0.00     0.274 HD
ATOM     16  H12 UNL     1      23.292 -11.756 -10.858  1.00  0.00     0.274 HD
ATOM     17  H11 UNL     1      24.100 -11.977 -12.331  1.00  0.00     0.274 HD
ENDBRANCH   1  14
TORSDOF 3
ENDMDL
MODEL 4
REMARK VINA RESULT: -4.214063381      2.200      5.246
REMARK  3 active torsions:
REMARK  status: ('A' for Active; 'I' for Inactive)
REMARK    1  A    between atoms: N1_1  and  C1_5 
REMARK    2  A    between atoms: C4_8  and  N2_9 
REMARK    3  A    between atoms: N2_9  and  C5_12 
ROOT
HETATM    1  C1  UNL     1      28.702  -7.314  -9.948  1.00  0.00     0.185 C 
HETATM    2  C2  UNL     1      27.284  -7.677 -10.316  1.00  0.00     0.034 C 
HETATM    3  C3  UNL     1      27.177  -9.100  -9.790  1.00  0.00     0.035 C 
HETATM    4  C4  UNL     1      28.482  -9.688 -10.284  1.00  0.00     0.188 C 
HETATM    5  C10 UNL     1      29.467  -8.627  -9.848  1.00  0.00     0.065 C 
ENDROOT
BRANCH   4   6
HETATM    6  N2  UNL     1      28.772 -10.981  -9.742  1.00  0.00    -0.067 N 
ATOM      7  H22 UNL     1      29.606 -10.979  -9.154  1.00  0.00     0.278 HD
ATOM      8  H21 UNL     1      28.099 -11.265  -9.031  1.00  0.00     0.278 HD
BRANCH   6   9
HETATM    9  C5  UNL     1      28.863 -11.925 -10.817  1.00  0.00     0.186 C 
HETATM   10  C6  UNL     1      27.491 -12.344 -11.321  1.00  0.00     0.033 C 
HETATM   11  C7  UNL     1      27.588 -13.803 -11.690  1.00  0.00     0.002 C 
HETATM   12  C8  UNL     1      29.091 -14.050 -11.681  1.00  0.00     0.002 C 
HETATM   13  C9  UNL     1      29.458 -13.251 -10.433  1.00  0.00     0.033 C 
ENDBRANCH   6   9
ENDBRANCH   4   6
BRANCH   1  14
HETATM   14  N1  UNL     1      29.274  -6.499 -11.011  1.00  0.00    -0.075 N 
ATOM     15  H13 UNL     1      29.137  -5.501 -10.851  1.00  0.00     0.274 HD
ATOM     16  H12 UNL     1      30.294  -6.507 -11.001  1.00  0.00     0.274 HD
ATOM     17  H11 UNL     1      28.892  -6.805 -11.906  1.00  0.00     0.274 HD
ENDBRANCH   1  14
TORSDOF 3
ENDMDL
MODEL 5
REMARK VINA RESULT: -4.200417015      1.864      2.279
REMARK  3 active torsions:
REMARK  status: ('A' for Active; 'I' for Inactive)
REMARK    1  A    between atoms: N1_1  and  C1_5 
REMARK    2  A    between atoms: C4_8  and  N2_9 
REMARK    3  A    between atoms: N2_9  and  C5_12 
ROOT
HETATM    1  C1  UNL     1      26.988 -14.016 -11.417  1.00  0.00     0.185 C 
HETATM    2  C2  UNL     1      28.418 -14.221 -11.854  1.00  0.00     0.034 C 
HETATM    3  C3  UNL     1      29.175 -13.326 -10.885  1.00  0.00     0.035 C 
HETATM    4  C4  UNL     1      28.324 -12.074 -10.926  1.00  0.00     0.188 C 
HETATM    5  C10 UNL     1      26.940 -12.653 -10.740  1.00  0.00     0.065 C 
ENDROOT
BRANCH   4   6
HETATM    6  N2  UNL     1      28.669 -11.111  -9.924  1.00  0.00    -0.067 N 
ATOM      7  H22 UNL     1      28.269 -11.336  -9.013  1.00  0.00     0.278 HD
ATOM      8  H21 UNL     1      29.654 -11.157  -9.662  1.00  0.00     0.278 HD
BRANCH   6   9
HETATM    9  C5  UNL     1      28.287  -9.808 -10.383  1.00  0.00     0.186 C 
HETATM   10  C6  UNL     1      29.395  -8.787 -10.181  1.00  0.00     0.033 C 
HETATM   11  C7  UNL     1      28.729  -7.485  -9.813  1.00  0.00     0.002 C 
HETATM   12  C8  UNL     1      27.266  -7.754 -10.143  1.00  0.00     0.002 C 
HETATM   13  C9  UNL     1      27.159  -9.182  -9.610  1.00  0.00     0.033 C 
ENDBRANCH   6   9
ENDBRANCH   4   6
BRANCH   1  14
HETATM   14  N1  UNL     1      26.129 -14.005 -12.593  1.00  0.00    -0.075 N 
ATOM     15  H13 UNL     1      26.439 -13.332 -13.293  1.00  0.00     0.274 HD
ATOM     16  H12 UNL     1      26.229 -14.851 -13.154  1.00  0.00     0.274 HD
ATOM     17  H11 UNL     1      25.166 -13.846 -12.299  1.00  0.00     0.274 HD
ENDBRANCH   1  14
TORSDOF 3
ENDMDL
