MODEL 1
REMARK VINA RESULT: -7.266672671      0.000      0.000
REMARK  12 active torsions:
REMARK  status: ('A' for Active; 'I' for Inactive)
REMARK    1  A    between atoms: C2_2  and  C3_3 
REMARK    2  A    between atoms: C3_3  and  C4_4 
REMARK    3  A    between atoms: C4_4  and  C5_5 
REMARK    4  A    between atoms: C5_5  and  C6_6 
REMARK    5  A    between atoms: C6_6  and  C7_7 
REMARK    6  A    between atoms: C9_9  and  N1_10 
REMARK    7  A    between atoms: C12_15  and  N3_16 
REMARK    8  A    between atoms: N3_16  and  C13_18 
REMARK    9  A    between atoms: C13_18  and  O1_19 
REMARK   10  A    between atoms: C13_18  and  O2_21 
REMARK   11  A    between atoms: C18_29  and  O3_30 
REMARK   12  A    between atoms: C19_32  and  O4_33 
ROOT
HETATM    1  N1  UNL     1      20.712  24.417  15.124  1.00  0.00    -0.320 N 
HETATM    2  C10 UNL     1      21.241  23.191  15.324  1.00  0.00     0.185 A 
HETATM    3  N2  UNL     1      21.653  22.655  14.162  1.00  0.00    -0.346 N 
ATOM      4  H2  UNL     1      22.087  21.739  14.040  1.00  0.00     0.167 HD
HETATM    5  C11 UNL     1      21.391  23.540  13.192  1.00  0.00     0.122 A 
HETATM    6  C12 UNL     1      21.612  23.505  11.798  1.00  0.00     0.137 A 
HETATM    7  N4  UNL     1      21.241  24.555  11.067  1.00  0.00    -0.337 N 
ATOM      8  H4  UNL     1      21.395  24.540  10.059  1.00  0.00     0.168 HD
HETATM    9  C16 UNL     1      20.665  25.638  11.629  1.00  0.00     0.183 A 
HETATM   10  N5  UNL     1      20.466  25.649  12.956  1.00  0.00    -0.336 N 
ATOM     11  H5  UNL     1      20.031  26.473  13.371  1.00  0.00     0.168 HD
HETATM   12  C17 UNL     1      20.814  24.622  13.779  1.00  0.00     0.141 A 
ENDROOT
BRANCH   1  13
HETATM   13  C9  UNL     1      20.178  25.335  16.052  1.00  0.00     0.124 C 
HETATM   14  C8  UNL     1      18.688  25.499  16.089  1.00  0.00     0.039 C 
HETATM   15  C7  UNL     1      18.505  26.421  17.281  1.00  0.00     0.042 C 
HETATM   16  C19 UNL     1      19.646  26.046  18.192  1.00  0.00     0.156 C 
HETATM   17  C18 UNL     1      20.442  24.962  17.499  1.00  0.00     0.170 C 
BRANCH  15  18
HETATM   18  C6  UNL     1      17.201  26.232  17.923  1.00  0.00    -0.011 C 
BRANCH  18  19
HETATM   19  C5  UNL     1      16.114  26.835  17.396  1.00  0.00     0.047 C 
BRANCH  19  20
HETATM   20  C4  UNL     1      16.167  27.561  16.194  1.00  0.00    -0.156 C 
BRANCH  20  21
HETATM   21  C3  UNL     1      16.214  28.206  15.128  1.00  0.00     0.084 C 
BRANCH  21  22
HETATM   22  C2  UNL     1      17.275  28.387  14.097  1.00  0.00     0.007 C 
HETATM   23  C1  UNL     1      18.202  29.465  14.557  1.00  0.00     0.006 C 
ENDBRANCH  21  22
ENDBRANCH  20  21
ENDBRANCH  19  20
ENDBRANCH  18  19
ENDBRANCH  15  18
BRANCH  16  24
HETATM   24  O4  UNL     1      19.229  25.679  19.457  1.00  0.00    -0.392 OA
ATOM     25  H4  UNL     1      19.098  24.742  19.548  1.00  0.00     0.210 HD
ENDBRANCH  16  24
BRANCH  17  26
HETATM   26  O3  UNL     1      19.843  23.761  17.876  1.00  0.00    -0.391 OA
ATOM     27  H3  UNL     1      19.954  23.560  18.798  1.00  0.00     0.210 HD
ENDBRANCH  17  26
ENDBRANCH   1  13
BRANCH   6  28
HETATM   28  N3  UNL     1      22.145  22.490  11.340  1.00  0.00    -0.326 N 
ATOM     29  H3  UNL     1      21.923  21.708  11.956  1.00  0.00     0.166 HD
BRANCH  28  30
HETATM   30  C13 UNL     1      22.930  22.015  10.305  1.00  0.00     0.370 C 
BRANCH  30  31
HETATM   31  O1  UNL     1      22.299  21.699   9.124  1.00  0.00    -0.349 OA
HETATM   32  C14 UNL     1      21.384  20.679   9.311  1.00  0.00     0.206 C 
ENDBRANCH  30  31
BRANCH  30  33
HETATM   33  O2  UNL     1      23.749  23.157   9.928  1.00  0.00    -0.349 OA
HETATM   34  C15 UNL     1      23.508  23.427   8.608  1.00  0.00     0.206 C 
ENDBRANCH  30  33
ENDBRANCH  28  30
ENDBRANCH   6  28
TORSDOF 12
ENDMDL
MODEL 2
REMARK VINA RESULT: -7.170301648      2.994      7.888
REMARK  12 active torsions:
REMARK  status: ('A' for Active; 'I' for Inactive)
REMARK    1  A    between atoms: C2_2  and  C3_3 
REMARK    2  A    between atoms: C3_3  and  C4_4 
REMARK    3  A    between atoms: C4_4  and  C5_5 
REMARK    4  A    between atoms: C5_5  and  C6_6 
REMARK    5  A    between atoms: C6_6  and  C7_7 
REMARK    6  A    between atoms: C9_9  and  N1_10 
REMARK    7  A    between atoms: C12_15  and  N3_16 
REMARK    8  A    between atoms: N3_16  and  C13_18 
REMARK    9  A    between atoms: C13_18  and  O1_19 
REMARK   10  A    between atoms: C13_18  and  O2_21 
REMARK   11  A    between atoms: C18_29  and  O3_30 
REMARK   12  A    between atoms: C19_32  and  O4_33 
ROOT
HETATM    1  N1  UNL     1      19.253  23.194  16.139  1.00  0.00    -0.320 N 
HETATM    2  C10 UNL     1      18.127  23.366  15.415  1.00  0.00     0.185 A 
HETATM    3  N2  UNL     1      17.416  24.409  15.880  1.00  0.00    -0.346 N 
ATOM      4  H2  UNL     1      16.528  24.747  15.509  1.00  0.00     0.167 HD
HETATM    5  C11 UNL     1      18.085  24.923  16.920  1.00  0.00     0.122 A 
HETATM    6  C12 UNL     1      17.809  26.013  17.773  1.00  0.00     0.137 A 
HETATM    7  N4  UNL     1      18.676  26.299  18.743  1.00  0.00    -0.337 N 
ATOM      8  H4  UNL     1      18.486  27.084  19.366  1.00  0.00     0.168 HD
HETATM    9  C16 UNL     1      19.799  25.574  18.923  1.00  0.00     0.183 A 
HETATM   10  N5  UNL     1      20.041  24.542  18.098  1.00  0.00    -0.336 N 
ATOM     11  H5  UNL     1      20.894  24.001  18.242  1.00  0.00     0.168 HD
HETATM   12  C17 UNL     1      19.212  24.179  17.081  1.00  0.00     0.141 A 
ENDROOT
BRANCH   1  13
HETATM   13  C9  UNL     1      20.285  22.244  15.996  1.00  0.00     0.124 C 
HETATM   14  C8  UNL     1      20.245  21.346  14.795  1.00  0.00     0.039 C 
HETATM   15  C7  UNL     1      21.562  20.603  14.917  1.00  0.00     0.042 C 
HETATM   16  C19 UNL     1      22.473  21.609  15.573  1.00  0.00     0.156 C 
HETATM   17  C18 UNL     1      21.661  22.861  15.822  1.00  0.00     0.170 C 
BRANCH  15  18
HETATM   18  C6  UNL     1      22.067  20.169  13.610  1.00  0.00    -0.011 C 
BRANCH  18  19
HETATM   19  C5  UNL     1      21.499  20.662  12.488  1.00  0.00     0.047 C 
BRANCH  19  20
HETATM   20  C4  UNL     1      22.070  21.721  11.761  1.00  0.00    -0.156 C 
BRANCH  20  21
HETATM   21  C3  UNL     1      22.578  22.659  11.116  1.00  0.00     0.084 C 
BRANCH  21  22
HETATM   22  C2  UNL     1      23.830  22.779  10.315  1.00  0.00     0.007 C 
HETATM   23  C1  UNL     1      23.464  23.192   8.927  1.00  0.00     0.006 C 
ENDBRANCH  21  22
ENDBRANCH  20  21
ENDBRANCH  19  20
ENDBRANCH  18  19
ENDBRANCH  15  18
BRANCH  16  24
HETATM   24  O4  UNL     1      23.622  21.852  14.845  1.00  0.00    -0.392 OA
ATOM     25  H4  UNL     1      24.145  21.070  14.705  1.00  0.00     0.210 HD
ENDBRANCH  16  24
BRANCH  17  26
HETATM   26  O3  UNL     1      21.780  23.620  14.659  1.00  0.00    -0.391 OA
ATOM     27  H3  UNL     1      20.962  23.711  14.185  1.00  0.00     0.210 HD
ENDBRANCH  17  26
ENDBRANCH   1  13
BRANCH   6  28
HETATM   28  N3  UNL     1      16.768  26.642  17.560  1.00  0.00    -0.326 N 
ATOM     29  H3  UNL     1      16.084  26.375  18.269  1.00  0.00     0.166 HD
BRANCH  28  30
HETATM   30  C13 UNL     1      16.181  27.573  16.722  1.00  0.00     0.370 C 
BRANCH  30  31
HETATM   31  O1  UNL     1      16.484  27.500  15.382  1.00  0.00    -0.349 OA
HETATM   32  C14 UNL     1      17.523  28.355  15.063  1.00  0.00     0.206 C 
ENDBRANCH  30  31
BRANCH  30  33
HETATM   33  O2  UNL     1      14.768  27.229  16.744  1.00  0.00    -0.349 OA
HETATM   34  C15 UNL     1      14.071  28.294  16.241  1.00  0.00     0.206 C 
ENDBRANCH  30  33
ENDBRANCH  28  30
ENDBRANCH   6  28
TORSDOF 12
ENDMDL
MODEL 3
REMARK VINA RESULT: -7.036922117      1.193      1.794
REMARK  12 active torsions:
REMARK  status: ('A' for Active; 'I' for Inactive)
REMARK    1  A    between atoms: C2_2  and  C3_3 
REMARK    2  A    between atoms: C3_3  and  C4_4 
REMARK    3  A    between atoms: C4_4  and  C5_5 
REMARK    4  A    between atoms: C5_5  and  C6_6 
REMARK    5  A    between atoms: C6_6  and  C7_7 
REMARK    6  A    between atoms: C9_9  and  N1_10 
REMARK    7  A    between atoms: C12_15  and  N3_16 
REMARK    8  A    between atoms: N3_16  and  C13_18 
REMARK    9  A    between atoms: C13_18  and  O1_19 
REMARK   10  A    between atoms: C13_18  and  O2_21 
REMARK   11  A    between atoms: C18_29  and  O3_30 
REMARK   12  A    between atoms: C19_32  and  O4_33 
ROOT
HETATM    1  N1  UNL     1      20.442  24.426  14.572  1.00  0.00    -0.320 N 
HETATM    2  C10 UNL     1      21.073  23.235  14.496  1.00  0.00     0.185 A 
HETATM    3  N2  UNL     1      21.072  22.775  13.233  1.00  0.00    -0.346 N 
ATOM      4  H2  UNL     1      21.483  21.899  12.910  1.00  0.00     0.167 HD
HETATM    5  C11 UNL     1      20.433  23.675  12.475  1.00  0.00     0.122 A 
HETATM    6  C12 UNL     1      20.144  23.709  11.094  1.00  0.00     0.137 A 
HETATM    7  N4  UNL     1      19.480  24.757  10.607  1.00  0.00    -0.337 N 
ATOM      8  H4  UNL     1      19.265  24.792   9.611  1.00  0.00     0.168 HD
HETATM    9  C16 UNL     1      19.084  25.773  11.401  1.00  0.00     0.183 A 
HETATM   10  N5  UNL     1      19.372  25.719  12.712  1.00  0.00    -0.336 N 
ATOM     11  H5  UNL     1      19.069  26.492  13.304  1.00  0.00     0.168 HD
HETATM   12  C17 UNL     1      20.045  24.689  13.294  1.00  0.00     0.141 A 
ENDROOT
BRANCH   1  13
HETATM   13  C9  UNL     1      20.224  25.266  15.683  1.00  0.00     0.124 C 
HETATM   14  C8  UNL     1      18.812  25.671  15.984  1.00  0.00     0.039 C 
HETATM   15  C7  UNL     1      18.973  26.416  17.298  1.00  0.00     0.042 C 
HETATM   16  C19 UNL     1      20.136  25.717  17.954  1.00  0.00     0.156 C 
HETATM   17  C18 UNL     1      20.608  24.635  17.009  1.00  0.00     0.170 C 
BRANCH  15  18
HETATM   18  C6  UNL     1      17.758  26.353  18.114  1.00  0.00    -0.011 C 
BRANCH  18  19
HETATM   19  C5  UNL     1      16.581  26.057  17.522  1.00  0.00     0.047 C 
BRANCH  19  20
HETATM   20  C4  UNL     1      15.737  27.048  16.992  1.00  0.00    -0.156 C 
BRANCH  20  21
HETATM   21  C3  UNL     1      14.989  27.929  16.523  1.00  0.00     0.084 C 
BRANCH  21  22
HETATM   22  C2  UNL     1      14.582  28.279  15.133  1.00  0.00     0.007 C 
HETATM   23  C1  UNL     1      15.807  28.310  14.277  1.00  0.00     0.006 C 
ENDBRANCH  21  22
ENDBRANCH  20  21
ENDBRANCH  19  20
ENDBRANCH  18  19
ENDBRANCH  15  18
BRANCH  16  24
HETATM   24  O4  UNL     1      19.835  25.235  19.214  1.00  0.00    -0.392 OA
ATOM     25  H4  UNL     1      19.286  24.459  19.193  1.00  0.00     0.210 HD
ENDBRANCH  16  24
BRANCH  17  26
HETATM   26  O3  UNL     1      19.850  23.508  17.323  1.00  0.00    -0.391 OA
ATOM     27  H3  UNL     1      19.323  23.617  18.106  1.00  0.00     0.210 HD
ENDBRANCH  17  26
ENDBRANCH   1  13
BRANCH   6  28
HETATM   28  N3  UNL     1      20.533  22.754  10.415  1.00  0.00    -0.326 N 
ATOM     29  H3  UNL     1      19.720  22.326   9.973  1.00  0.00     0.166 HD
BRANCH  28  30
HETATM   30  C13 UNL     1      21.657  22.047  10.029  1.00  0.00     0.370 C 
BRANCH  30  31
HETATM   31  O1  UNL     1      22.882  22.550  10.403  1.00  0.00    -0.349 OA
HETATM   32  C14 UNL     1      23.571  23.037   9.308  1.00  0.00     0.206 C 
ENDBRANCH  30  31
BRANCH  30  33
HETATM   33  O2  UNL     1      21.579  20.811  10.793  1.00  0.00    -0.349 OA
HETATM   34  C15 UNL     1      20.530  20.082  10.302  1.00  0.00     0.206 C 
ENDBRANCH  30  33
ENDBRANCH  28  30
ENDBRANCH   6  28
TORSDOF 12
ENDMDL
MODEL 4
REMARK VINA RESULT: -7.025571269      2.147      3.343
REMARK  12 active torsions:
REMARK  status: ('A' for Active; 'I' for Inactive)
REMARK    1  A    between atoms: C2_2  and  C3_3 
REMARK    2  A    between atoms: C3_3  and  C4_4 
REMARK    3  A    between atoms: C4_4  and  C5_5 
REMARK    4  A    between atoms: C5_5  and  C6_6 
REMARK    5  A    between atoms: C6_6  and  C7_7 
REMARK    6  A    between atoms: C9_9  and  N1_10 
REMARK    7  A    between atoms: C12_15  and  N3_16 
REMARK    8  A    between atoms: N3_16  and  C13_18 
REMARK    9  A    between atoms: C13_18  and  O1_19 
REMARK   10  A    between atoms: C13_18  and  O2_21 
REMARK   11  A    between atoms: C18_29  and  O3_30 
REMARK   12  A    between atoms: C19_32  and  O4_33 
ROOT
HETATM    1  N1  UNL     1      20.829  24.267  13.225  1.00  0.00    -0.320 N 
HETATM    2  C10 UNL     1      20.824  25.518  12.719  1.00  0.00     0.185 A 
HETATM    3  N2  UNL     1      21.092  25.501  11.401  1.00  0.00    -0.346 N 
ATOM      4  H2  UNL     1      21.148  26.313  10.786  1.00  0.00     0.167 HD
HETATM    5  C11 UNL     1      21.274  24.223  11.043  1.00  0.00     0.122 A 
HETATM    6  C12 UNL     1      21.573  23.627   9.799  1.00  0.00     0.137 A 
HETATM    7  N4  UNL     1      21.698  22.302   9.741  1.00  0.00    -0.337 N 
ATOM      8  H4  UNL     1      21.915  21.861   8.847  1.00  0.00     0.168 HD
HETATM    9  C16 UNL     1      21.544  21.530  10.836  1.00  0.00     0.183 A 
HETATM   10  N5  UNL     1      21.258  22.119  12.008  1.00  0.00    -0.336 N 
ATOM     11  H5  UNL     1      21.143  21.526  12.830  1.00  0.00     0.168 HD
HETATM   12  C17 UNL     1      21.113  23.465  12.159  1.00  0.00     0.141 A 
ENDROOT
BRANCH   1  13
HETATM   13  C9  UNL     1      20.585  23.821  14.540  1.00  0.00     0.124 C 
HETATM   14  C8  UNL     1      20.625  24.839  15.640  1.00  0.00     0.039 C 
HETATM   15  C7  UNL     1      20.172  24.024  16.838  1.00  0.00     0.042 C 
HETATM   16  C19 UNL     1      19.228  23.014  16.237  1.00  0.00     0.156 C 
HETATM   17  C18 UNL     1      19.188  23.262  14.745  1.00  0.00     0.170 C 
BRANCH  15  18
HETATM   18  C6  UNL     1      19.518  24.858  17.850  1.00  0.00    -0.011 C 
BRANCH  18  19
HETATM   19  C5  UNL     1      19.144  26.115  17.527  1.00  0.00     0.047 C 
BRANCH  19  20
HETATM   20  C4  UNL     1      17.798  26.471  17.336  1.00  0.00    -0.156 C 
BRANCH  20  21
HETATM   21  C3  UNL     1      16.604  26.786  17.165  1.00  0.00     0.084 C 
BRANCH  21  22
HETATM   22  C2  UNL     1      15.944  27.885  16.404  1.00  0.00     0.007 C 
HETATM   23  C1  UNL     1      16.533  27.928  15.031  1.00  0.00     0.006 C 
ENDBRANCH  21  22
ENDBRANCH  20  21
ENDBRANCH  19  20
ENDBRANCH  18  19
ENDBRANCH  15  18
BRANCH  16  24
HETATM   24  O4  UNL     1      17.974  23.035  16.817  1.00  0.00    -0.392 OA
ATOM     25  H4  UNL     1      17.394  22.366  16.473  1.00  0.00     0.210 HD
ENDBRANCH  16  24
BRANCH  17  26
HETATM   26  O3  UNL     1      18.183  24.208  14.551  1.00  0.00    -0.391 OA
ATOM     27  H3  UNL     1      18.249  24.660  13.718  1.00  0.00     0.210 HD
ENDBRANCH  17  26
ENDBRANCH   1  13
BRANCH   6  28
HETATM   28  N3  UNL     1      21.701  24.382   8.830  1.00  0.00    -0.326 N 
ATOM     29  H3  UNL     1      22.677  24.359   8.535  1.00  0.00     0.166 HD
BRANCH  28  30
HETATM   30  C13 UNL     1      21.017  25.248   7.996  1.00  0.00     0.370 C 
BRANCH  30  31
HETATM   31  O1  UNL     1      20.233  26.213   8.588  1.00  0.00    -0.349 OA
HETATM   32  C14 UNL     1      18.907  25.823   8.617  1.00  0.00     0.206 C 
ENDBRANCH  30  31
BRANCH  30  33
HETATM   33  O2  UNL     1      22.064  26.036   7.365  1.00  0.00    -0.349 OA
HETATM   34  C15 UNL     1      22.609  25.281   6.363  1.00  0.00     0.206 C 
ENDBRANCH  30  33
ENDBRANCH  28  30
ENDBRANCH   6  28
TORSDOF 12
ENDMDL
MODEL 5
REMARK VINA RESULT: -6.995412006      1.272      1.705
REMARK  12 active torsions:
REMARK  status: ('A' for Active; 'I' for Inactive)
REMARK    1  A    between atoms: C2_2  and  C3_3 
REMARK    2  A    between atoms: C3_3  and  C4_4 
REMARK    3  A    between atoms: C4_4  and  C5_5 
REMARK    4  A    between atoms: C5_5  and  C6_6 
REMARK    5  A    between atoms: C6_6  and  C7_7 
REMARK    6  A    between atoms: C9_9  and  N1_10 
REMARK    7  A    between atoms: C12_15  and  N3_16 
REMARK    8  A    between atoms: N3_16  and  C13_18 
REMARK    9  A    between atoms: C13_18  and  O1_19 
REMARK   10  A    between atoms: C13_18  and  O2_21 
REMARK   11  A    between atoms: C18_29  and  O3_30 
REMARK   12  A    between atoms: C19_32  and  O4_33 
ROOT
HETATM    1  N1  UNL     1      20.738  24.508  13.831  1.00  0.00    -0.320 N 
HETATM    2  C10 UNL     1      21.506  23.400  13.778  1.00  0.00     0.185 A 
HETATM    3  N2  UNL     1      21.785  23.073  12.504  1.00  0.00    -0.346 N 
ATOM      4  H2  UNL     1      22.346  22.280  12.193  1.00  0.00     0.167 HD
HETATM    5  C11 UNL     1      21.193  23.979  11.715  1.00  0.00     0.122 A 
HETATM    6  C12 UNL     1      21.154  24.125  10.312  1.00  0.00     0.137 A 
HETATM    7  N4  UNL     1      20.470  25.146   9.796  1.00  0.00    -0.337 N 
ATOM      8  H4  UNL     1      20.435  25.261   8.783  1.00  0.00     0.168 HD
HETATM    9  C16 UNL     1      19.823  26.031  10.582  1.00  0.00     0.183 A 
HETATM   10  N5  UNL     1      19.876  25.872  11.914  1.00  0.00    -0.336 N 
ATOM     11  H5  UNL     1      19.384  26.548  12.499  1.00  0.00     0.168 HD
HETATM   12  C17 UNL     1      20.549  24.860  12.526  1.00  0.00     0.141 A 
ENDROOT
BRANCH   1  13
HETATM   13  C9  UNL     1      20.228  25.205  14.946  1.00  0.00     0.124 C 
HETATM   14  C8  UNL     1      18.747  25.161  15.178  1.00  0.00     0.039 C 
HETATM   15  C7  UNL     1      18.619  25.872  16.513  1.00  0.00     0.042 C 
HETATM   16  C19 UNL     1      19.906  25.527  17.217  1.00  0.00     0.156 C 
HETATM   17  C18 UNL     1      20.723  24.669  16.277  1.00  0.00     0.170 C 
BRANCH  15  18
HETATM   18  C6  UNL     1      17.442  25.420  17.261  1.00  0.00    -0.011 C 
BRANCH  18  19
HETATM   19  C5  UNL     1      16.474  26.311  17.567  1.00  0.00     0.047 C 
BRANCH  19  20
HETATM   20  C4  UNL     1      15.970  27.225  16.626  1.00  0.00    -0.156 C 
BRANCH  20  21
HETATM   21  C3  UNL     1      15.522  28.034  15.790  1.00  0.00     0.084 C 
BRANCH  21  22
HETATM   22  C2  UNL     1      15.941  28.401  14.408  1.00  0.00     0.007 C 
HETATM   23  C1  UNL     1      17.406  28.694  14.421  1.00  0.00     0.006 C 
ENDBRANCH  21  22
ENDBRANCH  20  21
ENDBRANCH  19  20
ENDBRANCH  18  19
ENDBRANCH  15  18
BRANCH  16  24
HETATM   24  O4  UNL     1      19.705  24.932  18.448  1.00  0.00    -0.392 OA
ATOM     25  H4  UNL     1      19.520  25.559  19.138  1.00  0.00     0.210 HD
ENDBRANCH  16  24
BRANCH  17  26
HETATM   26  O3  UNL     1      20.322  23.358  16.526  1.00  0.00    -0.391 OA
ATOM     27  H3  UNL     1      20.947  22.710  16.220  1.00  0.00     0.210 HD
ENDBRANCH  17  26
ENDBRANCH   1  13
BRANCH   6  28
HETATM   28  N3  UNL     1      21.766  23.288   9.643  1.00  0.00    -0.326 N 
ATOM     29  H3  UNL     1      21.656  22.379  10.092  1.00  0.00     0.166 HD
BRANCH  28  30
HETATM   30  C13 UNL     1      22.546  23.119   8.513  1.00  0.00     0.370 C 
BRANCH  30  31
HETATM   31  O1  UNL     1      23.253  24.210   8.062  1.00  0.00    -0.349 OA
HETATM   32  C14 UNL     1      22.574  24.851   7.042  1.00  0.00     0.206 C 
ENDBRANCH  30  31
BRANCH  30  33
HETATM   33  O2  UNL     1      23.602  22.216   8.941  1.00  0.00    -0.349 OA
HETATM   34  C15 UNL     1      24.261  22.808   9.984  1.00  0.00     0.206 C 
ENDBRANCH  30  33
ENDBRANCH  28  30
ENDBRANCH   6  28
TORSDOF 12
ENDMDL
