MODEL 1
REMARK VINA RESULT: -7.253355817      0.000      0.000
REMARK  9 active torsions:
REMARK  status: ('A' for Active; 'I' for Inactive)
REMARK    1  A    between atoms: C2_2  and  C3_3 
REMARK    2  A    between atoms: C2_2  and  N1_10 
REMARK    3  A    between atoms: C3_3  and  S1_4 
REMARK    4  A    between atoms: S1_4  and  C4_5 
REMARK    5  A    between atoms: C4_5  and  C5_6 
REMARK    6  A    between atoms: C5_6  and  C6_7 
REMARK    7  A    between atoms: C7_11  and  O3_12 
REMARK    8  A    between atoms: C10_16  and  O4_17 
REMARK    9  A    between atoms: C17_26  and  C18_27 
ROOT
HETATM    1  N1  UNL     1      21.564  23.694  12.469  1.00  0.00    -0.302 N 
HETATM    2  C7  UNL     1      21.062  24.923  12.403  1.00  0.00     0.154 A 
HETATM    3  C8  UNL     1      20.435  25.302  13.581  1.00  0.00     0.050 A 
HETATM    4  C9  UNL     1      20.582  24.191  14.422  1.00  0.00     0.044 A 
HETATM    5  C10 UNL     1      21.287  23.232  13.692  1.00  0.00     0.154 A 
HETATM    6  C11 UNL     1      19.892  24.462  15.691  1.00  0.00     0.189 C 
HETATM    7  C12 UNL     1      18.893  23.305  15.904  1.00  0.00     0.055 C 
HETATM    8  C13 UNL     1      20.835  24.403  16.835  1.00  0.00     0.046 C 
HETATM    9  C14 UNL     1      19.975  24.680  18.088  1.00  0.00     0.005 C 
HETATM   10  C15 UNL     1      19.429  26.048  17.949  1.00  0.00     0.030 C 
HETATM   11  C16 UNL     1      18.907  26.461  16.632  1.00  0.00     0.275 C 
HETATM   12  N2  UNL     1      19.179  25.677  15.506  1.00  0.00     0.122 N 
HETATM   13  C17 UNL     1      19.718  26.349  14.344  1.00  0.00     0.362 C 
ENDROOT
BRANCH   1  14
HETATM   14  C2  UNL     1      22.228  22.983  11.372  1.00  0.00     0.099 C 
HETATM   15  C1  UNL     1      23.257  22.040  11.828  1.00  0.00     0.033 C 
BRANCH  14  16
HETATM   16  C3  UNL     1      21.274  22.554  10.336  1.00  0.00     0.099 C 
BRANCH  16  17
HETATM   17  S1  UNL     1      20.053  21.343  10.831  1.00  0.00    -0.167 SA
BRANCH  17  18
HETATM   18  C4  UNL     1      18.370  21.846  10.847  1.00  0.00     0.084 C 
BRANCH  18  19
HETATM   19  C5  UNL     1      18.101  23.235  11.300  1.00  0.00     0.123 C 
BRANCH  19  20
HETATM   20  C6  UNL     1      17.817  24.120  10.139  1.00  0.00     0.173 C 
HETATM   21  O1  UNL     1      16.668  24.088   9.622  1.00  0.00    -0.648 OA
HETATM   22  O2  UNL     1      18.784  24.949   9.646  1.00  0.00    -0.648 OA
ENDBRANCH  19  20
ENDBRANCH  18  19
ENDBRANCH  17  18
ENDBRANCH  16  17
ENDBRANCH  14  16
ENDBRANCH   1  14
BRANCH   2  23
HETATM   23  O3  UNL     1      21.144  25.746  11.288  1.00  0.00    -0.345 OA
ATOM     24  H3  UNL     1      21.048  26.691  11.310  1.00  0.00     0.219 HD
ENDBRANCH   2  23
BRANCH   5  25
HETATM   25  O4  UNL     1      21.625  21.990  14.225  1.00  0.00    -0.345 OA
ATOM     26  H4  UNL     1      21.070  21.411  14.734  1.00  0.00     0.219 HD
ENDBRANCH   5  25
BRANCH  13  27
HETATM   27  C18 UNL     1      18.697  27.065  13.551  1.00  0.00     0.212 C 
HETATM   28  O5  UNL     1      18.196  26.504  12.554  1.00  0.00    -0.646 OA
HETATM   29  O6  UNL     1      18.306  28.320  13.911  1.00  0.00    -0.646 OA
ENDBRANCH  13  27
TORSDOF 9
ENDMDL
MODEL 2
REMARK VINA RESULT: -7.108936792      2.709      6.366
REMARK  9 active torsions:
REMARK  status: ('A' for Active; 'I' for Inactive)
REMARK    1  A    between atoms: C2_2  and  C3_3 
REMARK    2  A    between atoms: C2_2  and  N1_10 
REMARK    3  A    between atoms: C3_3  and  S1_4 
REMARK    4  A    between atoms: S1_4  and  C4_5 
REMARK    5  A    between atoms: C4_5  and  C5_6 
REMARK    6  A    between atoms: C5_6  and  C6_7 
REMARK    7  A    between atoms: C7_11  and  O3_12 
REMARK    8  A    between atoms: C10_16  and  O4_17 
REMARK    9  A    between atoms: C17_26  and  C18_27 
ROOT
HETATM    1  N1  UNL     1      19.994  23.768  15.160  1.00  0.00    -0.302 N 
HETATM    2  C7  UNL     1      21.102  23.294  14.598  1.00  0.00     0.154 A 
HETATM    3  C8  UNL     1      21.116  23.471  13.222  1.00  0.00     0.050 A 
HETATM    4  C9  UNL     1      19.900  24.112  12.946  1.00  0.00     0.044 A 
HETATM    5  C10 UNL     1      19.251  24.275  14.172  1.00  0.00     0.154 A 
HETATM    6  C11 UNL     1      19.779  24.295  11.493  1.00  0.00     0.189 C 
HETATM    7  C12 UNL     1      18.445  23.640  11.078  1.00  0.00     0.055 C 
HETATM    8  C13 UNL     1      19.656  25.731  11.143  1.00  0.00     0.046 C 
HETATM    9  C14 UNL     1      19.514  25.766   9.605  1.00  0.00     0.005 C 
HETATM   10  C15 UNL     1      20.763  25.211   9.039  1.00  0.00     0.030 C 
HETATM   11  C16 UNL     1      21.337  24.003   9.665  1.00  0.00     0.275 C 
HETATM   12  N2  UNL     1      20.861  23.580  10.910  1.00  0.00     0.122 N 
HETATM   13  C17 UNL     1      21.840  23.316  11.941  1.00  0.00     0.362 C 
ENDROOT
BRANCH   1  14
HETATM   14  C2  UNL     1      19.652  23.676  16.583  1.00  0.00     0.099 C 
HETATM   15  C1  UNL     1      19.482  22.295  17.051  1.00  0.00     0.033 C 
BRANCH  14  16
HETATM   16  C3  UNL     1      20.434  24.618  17.400  1.00  0.00     0.099 C 
BRANCH  16  17
HETATM   17  S1  UNL     1      19.523  25.953  18.167  1.00  0.00    -0.167 SA
BRANCH  17  18
HETATM   18  C4  UNL     1      18.314  26.776  17.194  1.00  0.00     0.084 C 
BRANCH  18  19
HETATM   19  C5  UNL     1      16.898  26.406  17.450  1.00  0.00     0.123 C 
BRANCH  19  20
HETATM   20  C6  UNL     1      15.977  27.312  16.714  1.00  0.00     0.173 C 
HETATM   21  O1  UNL     1      16.471  28.203  15.972  1.00  0.00    -0.648 OA
HETATM   22  O2  UNL     1      14.624  27.179  16.844  1.00  0.00    -0.648 OA
ENDBRANCH  19  20
ENDBRANCH  18  19
ENDBRANCH  17  18
ENDBRANCH  16  17
ENDBRANCH  14  16
ENDBRANCH   1  14
BRANCH   2  23
HETATM   23  O3  UNL     1      22.137  22.685  15.295  1.00  0.00    -0.345 OA
ATOM     24  H3  UNL     1      23.048  22.951  15.245  1.00  0.00     0.219 HD
ENDBRANCH   2  23
BRANCH   5  25
HETATM   25  O4  UNL     1      18.006  24.891  14.279  1.00  0.00    -0.345 OA
ATOM     26  H4  UNL     1      17.725  25.699  13.865  1.00  0.00     0.219 HD
ENDBRANCH   5  25
BRANCH  13  27
HETATM   27  C18 UNL     1      22.511  22.006  11.795  1.00  0.00     0.212 C 
HETATM   28  O5  UNL     1      23.742  21.929  11.984  1.00  0.00    -0.646 OA
HETATM   29  O6  UNL     1      21.787  20.900  11.463  1.00  0.00    -0.646 OA
ENDBRANCH  13  27
TORSDOF 9
ENDMDL
MODEL 3
REMARK VINA RESULT: -6.936771907      2.271      4.344
REMARK  9 active torsions:
REMARK  status: ('A' for Active; 'I' for Inactive)
REMARK    1  A    between atoms: C2_2  and  C3_3 
REMARK    2  A    between atoms: C2_2  and  N1_10 
REMARK    3  A    between atoms: C3_3  and  S1_4 
REMARK    4  A    between atoms: S1_4  and  C4_5 
REMARK    5  A    between atoms: C4_5  and  C5_6 
REMARK    6  A    between atoms: C5_6  and  C6_7 
REMARK    7  A    between atoms: C7_11  and  O3_12 
REMARK    8  A    between atoms: C10_16  and  O4_17 
REMARK    9  A    between atoms: C17_26  and  C18_27 
ROOT
HETATM    1  N1  UNL     1      18.527  22.447  12.282  1.00  0.00    -0.302 N 
HETATM    2  C7  UNL     1      18.177  22.383  13.563  1.00  0.00     0.154 A 
HETATM    3  C8  UNL     1      18.328  23.599  14.214  1.00  0.00     0.050 A 
HETATM    4  C9  UNL     1      18.814  24.462  13.222  1.00  0.00     0.044 A 
HETATM    5  C10 UNL     1      18.914  23.705  12.053  1.00  0.00     0.154 A 
HETATM    6  C11 UNL     1      19.074  25.777  13.823  1.00  0.00     0.189 C 
HETATM    7  C12 UNL     1      20.546  26.119  13.513  1.00  0.00     0.055 C 
HETATM    8  C13 UNL     1      18.262  26.833  13.169  1.00  0.00     0.046 C 
HETATM    9  C14 UNL     1      18.653  28.148  13.879  1.00  0.00     0.005 C 
HETATM   10  C15 UNL     1      18.259  28.011  15.298  1.00  0.00     0.030 C 
HETATM   11  C16 UNL     1      18.539  26.732  15.981  1.00  0.00     0.275 C 
HETATM   12  N2  UNL     1      18.909  25.615  15.225  1.00  0.00     0.122 N 
HETATM   13  C17 UNL     1      18.182  24.387  15.458  1.00  0.00     0.362 C 
ENDROOT
BRANCH   1  14
HETATM   14  C2  UNL     1      18.541  21.320  11.344  1.00  0.00     0.099 C 
HETATM   15  C1  UNL     1      17.317  21.219  10.538  1.00  0.00     0.033 C 
BRANCH  14  16
HETATM   16  C3  UNL     1      19.847  21.169  10.683  1.00  0.00     0.099 C 
BRANCH  16  17
HETATM   17  S1  UNL     1      21.260  20.935  11.756  1.00  0.00    -0.167 SA
BRANCH  17  18
HETATM   18  C4  UNL     1      22.311  22.316  12.026  1.00  0.00     0.084 C 
BRANCH  18  19
HETATM   19  C5  UNL     1      23.499  22.424  11.140  1.00  0.00     0.123 C 
BRANCH  19  20
HETATM   20  C6  UNL     1      23.091  22.784   9.756  1.00  0.00     0.173 C 
HETATM   21  O1  UNL     1      23.704  22.257   8.789  1.00  0.00    -0.648 OA
HETATM   22  O2  UNL     1      22.073  23.668   9.541  1.00  0.00    -0.648 OA
ENDBRANCH  19  20
ENDBRANCH  18  19
ENDBRANCH  17  18
ENDBRANCH  16  17
ENDBRANCH  14  16
ENDBRANCH   1  14
BRANCH   2  23
HETATM   23  O3  UNL     1      17.711  21.237  14.194  1.00  0.00    -0.345 OA
ATOM     24  H3  UNL     1      17.933  20.987  15.083  1.00  0.00     0.219 HD
ENDBRANCH   2  23
BRANCH   5  25
HETATM   25  O4  UNL     1      19.358  24.248  10.849  1.00  0.00    -0.345 OA
ATOM     26  H4  UNL     1      19.075  25.060  10.444  1.00  0.00     0.219 HD
ENDBRANCH   5  25
BRANCH  13  27
HETATM   27  C18 UNL     1      18.620  23.664  16.671  1.00  0.00     0.212 C 
HETATM   28  O5  UNL     1      19.473  24.188  17.417  1.00  0.00    -0.646 OA
HETATM   29  O6  UNL     1      18.092  22.442  16.969  1.00  0.00    -0.646 OA
ENDBRANCH  13  27
TORSDOF 9
ENDMDL
MODEL 4
REMARK VINA RESULT: -6.889669232      2.732      5.823
REMARK  9 active torsions:
REMARK  status: ('A' for Active; 'I' for Inactive)
REMARK    1  A    between atoms: C2_2  and  C3_3 
REMARK    2  A    between atoms: C2_2  and  N1_10 
REMARK    3  A    between atoms: C3_3  and  S1_4 
REMARK    4  A    between atoms: S1_4  and  C4_5 
REMARK    5  A    between atoms: C4_5  and  C5_6 
REMARK    6  A    between atoms: C5_6  and  C6_7 
REMARK    7  A    between atoms: C7_11  and  O3_12 
REMARK    8  A    between atoms: C10_16  and  O4_17 
REMARK    9  A    between atoms: C17_26  and  C18_27 
ROOT
HETATM    1  N1  UNL     1      18.797  24.498  16.207  1.00  0.00    -0.302 N 
HETATM    2  C7  UNL     1      19.214  25.002  15.050  1.00  0.00     0.154 A 
HETATM    3  C8  UNL     1      19.112  24.091  14.008  1.00  0.00     0.050 A 
HETATM    4  C9  UNL     1      18.585  22.940  14.609  1.00  0.00     0.044 A 
HETATM    5  C10 UNL     1      18.406  23.245  15.959  1.00  0.00     0.154 A 
HETATM    6  C11 UNL     1      18.492  21.877  13.598  1.00  0.00     0.189 C 
HETATM    7  C12 UNL     1      19.271  20.669  14.158  1.00  0.00     0.055 C 
HETATM    8  C13 UNL     1      17.091  21.420  13.430  1.00  0.00     0.046 C 
HETATM    9  C14 UNL     1      17.151  20.299  12.368  1.00  0.00     0.005 C 
HETATM   10  C15 UNL     1      17.638  20.914  11.114  1.00  0.00     0.030 C 
HETATM   11  C16 UNL     1      18.760  21.869  11.193  1.00  0.00     0.275 C 
HETATM   12  N2  UNL     1      19.151  22.371  12.439  1.00  0.00     0.122 N 
HETATM   13  C17 UNL     1      19.280  23.806  12.565  1.00  0.00     0.362 C 
ENDROOT
BRANCH   1  14
HETATM   14  C2  UNL     1      18.838  25.185  17.501  1.00  0.00     0.099 C 
HETATM   15  C1  UNL     1      20.127  25.050  18.191  1.00  0.00     0.033 C 
BRANCH  14  16
HETATM   16  C3  UNL     1      18.193  26.506  17.444  1.00  0.00     0.099 C 
BRANCH  16  17
HETATM   17  S1  UNL     1      16.442  26.522  17.072  1.00  0.00    -0.167 SA
BRANCH  17  18
HETATM   18  C4  UNL     1      15.760  28.012  16.438  1.00  0.00     0.084 C 
BRANCH  18  19
HETATM   19  C5  UNL     1      15.681  28.124  14.959  1.00  0.00     0.123 C 
BRANCH  19  20
HETATM   20  C6  UNL     1      17.043  28.157  14.361  1.00  0.00     0.173 C 
HETATM   21  O1  UNL     1      17.290  27.406  13.380  1.00  0.00    -0.648 OA
HETATM   22  O2  UNL     1      18.002  28.986  14.868  1.00  0.00    -0.648 OA
ENDBRANCH  19  20
ENDBRANCH  18  19
ENDBRANCH  17  18
ENDBRANCH  16  17
ENDBRANCH  14  16
ENDBRANCH   1  14
BRANCH   2  23
HETATM   23  O3  UNL     1      19.701  26.292  14.885  1.00  0.00    -0.345 OA
ATOM     24  H3  UNL     1      19.183  27.026  14.576  1.00  0.00     0.219 HD
ENDBRANCH   2  23
BRANCH   5  25
HETATM   25  O4  UNL     1      17.884  22.326  16.867  1.00  0.00    -0.345 OA
ATOM     26  H4  UNL     1      18.244  21.479  17.103  1.00  0.00     0.219 HD
ENDBRANCH   5  25
BRANCH  13  27
HETATM   27  C18 UNL     1      20.539  24.336  12.000  1.00  0.00     0.212 C 
HETATM   28  O5  UNL     1      20.534  25.454  11.445  1.00  0.00    -0.646 OA
HETATM   29  O6  UNL     1      21.690  23.610  12.091  1.00  0.00    -0.646 OA
ENDBRANCH  13  27
TORSDOF 9
ENDMDL
MODEL 5
REMARK VINA RESULT: -6.758148282      2.537      6.280
REMARK  9 active torsions:
REMARK  status: ('A' for Active; 'I' for Inactive)
REMARK    1  A    between atoms: C2_2  and  C3_3 
REMARK    2  A    between atoms: C2_2  and  N1_10 
REMARK    3  A    between atoms: C3_3  and  S1_4 
REMARK    4  A    between atoms: S1_4  and  C4_5 
REMARK    5  A    between atoms: C4_5  and  C5_6 
REMARK    6  A    between atoms: C5_6  and  C6_7 
REMARK    7  A    between atoms: C7_11  and  O3_12 
REMARK    8  A    between atoms: C10_16  and  O4_17 
REMARK    9  A    between atoms: C17_26  and  C18_27 
ROOT
HETATM    1  N1  UNL     1      19.936  24.241  14.647  1.00  0.00    -0.302 N 
HETATM    2  C7  UNL     1      21.036  23.679  14.157  1.00  0.00     0.154 A 
HETATM    3  C8  UNL     1      21.104  23.763  12.773  1.00  0.00     0.050 A 
HETATM    4  C9  UNL     1      19.930  24.440  12.413  1.00  0.00     0.044 A 
HETATM    5  C10 UNL     1      19.251  24.714  13.601  1.00  0.00     0.154 A 
HETATM    6  C11 UNL     1      19.866  24.530  10.948  1.00  0.00     0.189 C 
HETATM    7  C12 UNL     1      18.516  23.913  10.528  1.00  0.00     0.055 C 
HETATM    8  C13 UNL     1      19.826  25.944  10.501  1.00  0.00     0.046 C 
HETATM    9  C14 UNL     1      19.736  25.883   8.960  1.00  0.00     0.005 C 
HETATM   10  C15 UNL     1      20.974  25.233   8.476  1.00  0.00     0.030 C 
HETATM   11  C16 UNL     1      21.467  24.045   9.200  1.00  0.00     0.275 C 
HETATM   12  N2  UNL     1      20.930  23.728  10.452  1.00  0.00     0.122 N 
HETATM   13  C17 UNL     1      21.861  23.489  11.532  1.00  0.00     0.362 C 
ENDROOT
BRANCH   1  14
HETATM   14  C2  UNL     1      19.543  24.260  16.059  1.00  0.00     0.099 C 
HETATM   15  C1  UNL     1      19.794  22.989  16.749  1.00  0.00     0.033 C 
BRANCH  14  16
HETATM   16  C3  UNL     1      19.921  25.520  16.719  1.00  0.00     0.099 C 
BRANCH  16  17
HETATM   17  S1  UNL     1      18.602  26.428  17.517  1.00  0.00    -0.167 SA
BRANCH  17  18
HETATM   18  C4  UNL     1      17.006  26.352  16.787  1.00  0.00     0.084 C 
BRANCH  18  19
HETATM   19  C5  UNL     1      16.358  27.654  16.482  1.00  0.00     0.123 C 
BRANCH  19  20
HETATM   20  C6  UNL     1      16.872  28.210  15.201  1.00  0.00     0.173 C 
HETATM   21  O1  UNL     1      17.800  29.061  15.242  1.00  0.00    -0.648 OA
HETATM   22  O2  UNL     1      16.345  27.804  14.009  1.00  0.00    -0.648 OA
ENDBRANCH  19  20
ENDBRANCH  18  19
ENDBRANCH  17  18
ENDBRANCH  16  17
ENDBRANCH  14  16
ENDBRANCH   1  14
BRANCH   2  23
HETATM   23  O3  UNL     1      22.017  23.070  14.929  1.00  0.00    -0.345 OA
ATOM     24  H3  UNL     1      22.251  22.151  14.873  1.00  0.00     0.219 HD
ENDBRANCH   2  23
BRANCH   5  25
HETATM   25  O4  UNL     1      18.035  25.394  13.624  1.00  0.00    -0.345 OA
ATOM     26  H4  UNL     1      17.361  25.393  12.954  1.00  0.00     0.219 HD
ENDBRANCH   5  25
BRANCH  13  27
HETATM   27  C18 UNL     1      22.471  22.142  11.496  1.00  0.00     0.212 C 
HETATM   28  O5  UNL     1      23.656  22.001  11.861  1.00  0.00    -0.646 OA
HETATM   29  O6  UNL     1      21.741  21.071  11.073  1.00  0.00    -0.646 OA
ENDBRANCH  13  27
TORSDOF 9
ENDMDL
