MODEL 1
REMARK VINA RESULT: -7.802280111      0.000      0.000
REMARK  9 active torsions:
REMARK  status: ('A' for Active; 'I' for Inactive)
REMARK    1  A    between atoms: C2_2  and  O1_3 
REMARK    2  A    between atoms: O1_3  and  C3_4 
REMARK       I    between atoms: C3_4  and  N1_6 
REMARK    3  A    between atoms: N1_6  and  C4_8 
REMARK    4  A    between atoms: C5_11  and  C6_12 
REMARK    5  A    between atoms: C6_12  and  C8_14 
REMARK    6  A    between atoms: C8_14  and  N3_15 
REMARK    7  A    between atoms: N3_15  and  N4_17 
REMARK    8  A    between atoms: N4_17  and  C10_19 
REMARK    9  A    between atoms: N5_24  and  O3_25 
ROOT
HETATM    1  C6  UNL     1      19.508  23.415  16.895  1.00  0.00     0.066 C 
HETATM    2  C7  UNL     1      18.285  22.514  16.637  1.00  0.00     0.019 C 
ENDROOT
BRANCH   1   3
HETATM    3  C5  UNL     1      18.938  24.731  17.286  1.00  0.00     0.110 A 
HETATM    4  N2  UNL     1      17.617  24.990  17.304  1.00  0.00    -0.308 N 
HETATM    5  C4  UNL     1      17.468  26.264  17.699  1.00  0.00     0.253 A 
ATOM      6  H2  UNL     1      16.870  24.340  17.063  1.00  0.00     0.170 HD
HETATM    7  O4  UNL     1      18.673  26.783  17.922  1.00  0.00    -0.199 OA
HETATM    8  N6  UNL     1      19.525  25.856  17.670  1.00  0.00    -0.245 N 
ATOM      9  H6  UNL     1      20.535  25.971  17.756  1.00  0.00     0.196 HD
BRANCH   5  10
HETATM   10  N1  UNL     1      16.342  26.859  17.832  1.00  0.00    -0.266 N 
HETATM   11  C3  UNL     1      15.696  27.477  16.746  1.00  0.00     0.367 C 
HETATM   12  O2  UNL     1      14.475  27.168  16.529  1.00  0.00    -0.238 OA
ATOM     13  H1  UNL     1      15.902  26.887  18.751  1.00  0.00     0.174 HD
BRANCH  11  14
HETATM   14  O1  UNL     1      16.283  28.396  15.893  1.00  0.00    -0.304 OA
BRANCH  14  15
HETATM   15  C2  UNL     1      16.463  28.235  14.519  1.00  0.00     0.176 C 
HETATM   16  C1  UNL     1      17.823  27.632  14.265  1.00  0.00     0.034 C 
ENDBRANCH  14  15
ENDBRANCH  11  14
ENDBRANCH   5  10
ENDBRANCH   1   3
BRANCH   1  17
HETATM   17  C8  UNL     1      20.343  23.523  15.643  1.00  0.00     0.124 C 
BRANCH  17  18
HETATM   18  N3  UNL     1      19.884  24.498  14.699  1.00  0.00    -0.239 NA
HETATM   19  C9  UNL     1      21.030  25.360  14.371  1.00  0.00     0.135 C 
BRANCH  18  20
HETATM   20  N4  UNL     1      19.359  24.042  13.533  1.00  0.00    -0.348 N 
ATOM     21  H4  UNL     1      18.352  23.910  13.447  1.00  0.00     0.174 HD
BRANCH  20  22
HETATM   22  C10 UNL     1      20.196  23.751  12.449  1.00  0.00     0.120 C 
HETATM   23  C11 UNL     1      20.628  22.314  12.289  1.00  0.00     0.055 C 
HETATM   24  C12 UNL     1      21.349  22.417  10.935  1.00  0.00     0.034 C 
HETATM   25  C13 UNL     1      22.810  22.609  11.233  1.00  0.00     0.034 C 
HETATM   26  C14 UNL     1      21.165  21.175  10.112  1.00  0.00     0.034 C 
HETATM   27  N5  UNL     1      20.772  23.537  10.245  1.00  0.00    -0.180 NA
HETATM   28  C15 UNL     1      19.736  24.095  11.079  1.00  0.00     0.053 C 
HETATM   29  C16 UNL     1      19.629  25.595  10.950  1.00  0.00     0.036 C 
HETATM   30  C17 UNL     1      18.432  23.490  10.673  1.00  0.00     0.036 C 
BRANCH  27  31
HETATM   31  O3  UNL     1      21.700  24.420   9.867  1.00  0.00    -0.311 OA
ATOM     32  H3  UNL     1      21.348  25.300   9.809  1.00  0.00     0.237 HD
ENDBRANCH  27  31
ENDBRANCH  20  22
ENDBRANCH  18  20
ENDBRANCH  17  18
ENDBRANCH   1  17
TORSDOF 9
ENDMDL
MODEL 2
REMARK VINA RESULT: -7.696494251      1.278      2.000
REMARK  9 active torsions:
REMARK  status: ('A' for Active; 'I' for Inactive)
REMARK    1  A    between atoms: C2_2  and  O1_3 
REMARK    2  A    between atoms: O1_3  and  C3_4 
REMARK       I    between atoms: C3_4  and  N1_6 
REMARK    3  A    between atoms: N1_6  and  C4_8 
REMARK    4  A    between atoms: C5_11  and  C6_12 
REMARK    5  A    between atoms: C6_12  and  C8_14 
REMARK    6  A    between atoms: C8_14  and  N3_15 
REMARK    7  A    between atoms: N3_15  and  N4_17 
REMARK    8  A    between atoms: N4_17  and  C10_19 
REMARK    9  A    between atoms: N5_24  and  O3_25 
ROOT
HETATM    1  C6  UNL     1      19.232  23.349  16.395  1.00  0.00     0.066 C 
HETATM    2  C7  UNL     1      19.802  22.553  17.584  1.00  0.00     0.019 C 
ENDROOT
BRANCH   1   3
HETATM    3  C5  UNL     1      18.746  24.625  16.984  1.00  0.00     0.110 A 
HETATM    4  N2  UNL     1      17.448  24.980  17.012  1.00  0.00    -0.308 N 
HETATM    5  C4  UNL     1      17.377  26.180  17.608  1.00  0.00     0.253 A 
ATOM      6  H2  UNL     1      16.664  24.438  16.647  1.00  0.00     0.170 HD
HETATM    7  O4  UNL     1      18.608  26.560  17.943  1.00  0.00    -0.199 OA
HETATM    8  N6  UNL     1      19.399  25.622  17.563  1.00  0.00    -0.245 N 
ATOM      9  H6  UNL     1      20.411  25.643  17.692  1.00  0.00     0.196 HD
BRANCH   5  10
HETATM   10  N1  UNL     1      16.294  26.832  17.809  1.00  0.00    -0.266 N 
HETATM   11  C3  UNL     1      15.635  27.518  16.773  1.00  0.00     0.367 C 
HETATM   12  O2  UNL     1      14.391  27.283  16.603  1.00  0.00    -0.238 OA
ATOM     13  H1  UNL     1      15.897  26.855  18.748  1.00  0.00     0.174 HD
BRANCH  11  14
HETATM   14  O1  UNL     1      16.235  28.429  15.920  1.00  0.00    -0.304 OA
BRANCH  14  15
HETATM   15  C2  UNL     1      16.793  28.137  14.675  1.00  0.00     0.176 C 
HETATM   16  C1  UNL     1      18.070  28.925  14.507  1.00  0.00     0.034 C 
ENDBRANCH  14  15
ENDBRANCH  11  14
ENDBRANCH   5  10
ENDBRANCH   1   3
BRANCH   1  17
HETATM   17  C8  UNL     1      18.110  22.576  15.746  1.00  0.00     0.124 C 
BRANCH  17  18
HETATM   18  N3  UNL     1      18.425  22.030  14.459  1.00  0.00    -0.239 NA
HETATM   19  C9  UNL     1      17.961  20.635  14.452  1.00  0.00     0.135 C 
BRANCH  18  20
HETATM   20  N4  UNL     1      17.900  22.649  13.372  1.00  0.00    -0.348 N 
ATOM     21  H4  UNL     1      16.890  22.663  13.234  1.00  0.00     0.174 HD
BRANCH  20  22
HETATM   22  C10 UNL     1      18.739  23.270  12.439  1.00  0.00     0.120 C 
HETATM   23  C11 UNL     1      20.204  23.356  12.793  1.00  0.00     0.055 C 
HETATM   24  C12 UNL     1      20.750  23.918  11.470  1.00  0.00     0.034 C 
HETATM   25  C13 UNL     1      20.834  25.411  11.633  1.00  0.00     0.034 C 
HETATM   26  C14 UNL     1      22.113  23.373  11.156  1.00  0.00     0.034 C 
HETATM   27  N5  UNL     1      19.828  23.524  10.442  1.00  0.00    -0.180 NA
HETATM   28  C15 UNL     1      18.782  22.739  11.052  1.00  0.00     0.053 C 
HETATM   29  C16 UNL     1      17.440  22.949  10.396  1.00  0.00     0.036 C 
HETATM   30  C17 UNL     1      19.150  21.296  10.932  1.00  0.00     0.036 C 
BRANCH  27  31
HETATM   31  O3  UNL     1      19.385  24.571   9.743  1.00  0.00    -0.311 OA
ATOM     32  H3  UNL     1      19.928  24.746   8.985  1.00  0.00     0.237 HD
ENDBRANCH  27  31
ENDBRANCH  20  22
ENDBRANCH  18  20
ENDBRANCH  17  18
ENDBRANCH   1  17
TORSDOF 9
ENDMDL
MODEL 3
REMARK VINA RESULT: -7.661962318      0.892      1.396
REMARK  9 active torsions:
REMARK  status: ('A' for Active; 'I' for Inactive)
REMARK    1  A    between atoms: C2_2  and  O1_3 
REMARK    2  A    between atoms: O1_3  and  C3_4 
REMARK       I    between atoms: C3_4  and  N1_6 
REMARK    3  A    between atoms: N1_6  and  C4_8 
REMARK    4  A    between atoms: C5_11  and  C6_12 
REMARK    5  A    between atoms: C6_12  and  C8_14 
REMARK    6  A    between atoms: C8_14  and  N3_15 
REMARK    7  A    between atoms: N3_15  and  N4_17 
REMARK    8  A    between atoms: N4_17  and  C10_19 
REMARK    9  A    between atoms: N5_24  and  O3_25 
ROOT
HETATM    1  C6  UNL     1      19.424  23.501  16.528  1.00  0.00     0.066 C 
HETATM    2  C7  UNL     1      20.108  22.843  17.741  1.00  0.00     0.019 C 
ENDROOT
BRANCH   1   3
HETATM    3  C5  UNL     1      18.886  24.788  17.042  1.00  0.00     0.110 A 
HETATM    4  N2  UNL     1      17.572  25.077  17.085  1.00  0.00    -0.308 N 
HETATM    5  C4  UNL     1      17.453  26.311  17.598  1.00  0.00     0.253 A 
ATOM      6  H2  UNL     1      16.809  24.471  16.783  1.00  0.00     0.170 HD
HETATM    7  O4  UNL     1      18.671  26.777  17.869  1.00  0.00    -0.199 OA
HETATM    8  N6  UNL     1      19.500  25.856  17.531  1.00  0.00    -0.245 N 
ATOM      9  H6  UNL     1      20.512  25.938  17.627  1.00  0.00     0.196 HD
BRANCH   5  10
HETATM   10  N1  UNL     1      16.343  26.919  17.787  1.00  0.00    -0.266 N 
HETATM   11  C3  UNL     1      15.634  27.517  16.729  1.00  0.00     0.367 C 
HETATM   12  O2  UNL     1      14.399  27.213  16.596  1.00  0.00    -0.238 OA
ATOM     13  H1  UNL     1      15.961  26.972  18.731  1.00  0.00     0.174 HD
BRANCH  11  14
HETATM   14  O1  UNL     1      16.173  28.411  15.820  1.00  0.00    -0.304 OA
BRANCH  14  15
HETATM   15  C2  UNL     1      16.706  28.084  14.572  1.00  0.00     0.176 C 
HETATM   16  C1  UNL     1      18.159  28.489  14.534  1.00  0.00     0.034 C 
ENDBRANCH  14  15
ENDBRANCH  11  14
ENDBRANCH   5  10
ENDBRANCH   1   3
BRANCH   1  17
HETATM   17  C8  UNL     1      18.323  22.609  16.010  1.00  0.00     0.124 C 
BRANCH  17  18
HETATM   18  N3  UNL     1      18.406  22.306  14.611  1.00  0.00    -0.239 NA
HETATM   19  C9  UNL     1      17.176  21.585  14.247  1.00  0.00     0.135 C 
BRANCH  18  20
HETATM   20  N4  UNL     1      18.547  23.348  13.753  1.00  0.00    -0.348 N 
ATOM     21  H4  UNL     1      17.900  24.134  13.799  1.00  0.00     0.174 HD
BRANCH  20  22
HETATM   22  C10 UNL     1      19.577  23.347  12.806  1.00  0.00     0.120 C 
HETATM   23  C11 UNL     1      20.150  22.004  12.424  1.00  0.00     0.055 C 
HETATM   24  C12 UNL     1      21.079  22.441  11.280  1.00  0.00     0.034 C 
HETATM   25  C13 UNL     1      22.447  22.625  11.877  1.00  0.00     0.034 C 
HETATM   26  C14 UNL     1      21.144  21.410  10.191  1.00  0.00     0.034 C 
HETATM   27  N5  UNL     1      20.536  23.662  10.752  1.00  0.00    -0.180 NA
HETATM   28  C15 UNL     1      19.330  23.970  11.480  1.00  0.00     0.053 C 
HETATM   29  C16 UNL     1      19.121  25.454  11.658  1.00  0.00     0.036 C 
HETATM   30  C17 UNL     1      18.169  23.415  10.721  1.00  0.00     0.036 C 
BRANCH  27  31
HETATM   31  O3  UNL     1      21.437  24.646  10.750  1.00  0.00    -0.311 OA
ATOM     32  H3  UNL     1      21.063  25.466  10.451  1.00  0.00     0.237 HD
ENDBRANCH  27  31
ENDBRANCH  20  22
ENDBRANCH  18  20
ENDBRANCH  17  18
ENDBRANCH   1  17
TORSDOF 9
ENDMDL
MODEL 4
REMARK VINA RESULT: -7.596354947      1.631      2.461
REMARK  9 active torsions:
REMARK  status: ('A' for Active; 'I' for Inactive)
REMARK    1  A    between atoms: C2_2  and  O1_3 
REMARK    2  A    between atoms: O1_3  and  C3_4 
REMARK       I    between atoms: C3_4  and  N1_6 
REMARK    3  A    between atoms: N1_6  and  C4_8 
REMARK    4  A    between atoms: C5_11  and  C6_12 
REMARK    5  A    between atoms: C6_12  and  C8_14 
REMARK    6  A    between atoms: C8_14  and  N3_15 
REMARK    7  A    between atoms: N3_15  and  N4_17 
REMARK    8  A    between atoms: N4_17  and  C10_19 
REMARK    9  A    between atoms: N5_24  and  O3_25 
ROOT
HETATM    1  C6  UNL     1      20.466  23.055  16.977  1.00  0.00     0.066 C 
HETATM    2  C7  UNL     1      19.543  21.924  17.470  1.00  0.00     0.019 C 
ENDROOT
BRANCH   1   3
HETATM    3  C5  UNL     1      19.934  24.289  17.612  1.00  0.00     0.110 A 
HETATM    4  N2  UNL     1      18.794  24.889  17.224  1.00  0.00    -0.308 N 
HETATM    5  C4  UNL     1      18.625  25.966  18.006  1.00  0.00     0.253 A 
ATOM      6  H2  UNL     1      18.173  24.582  16.474  1.00  0.00     0.170 HD
HETATM    7  O4  UNL     1      19.642  26.031  18.863  1.00  0.00    -0.199 OA
HETATM    8  N6  UNL     1      20.402  25.028  18.609  1.00  0.00    -0.245 N 
ATOM      9  H6  UNL     1      21.264  24.823  19.114  1.00  0.00     0.196 HD
BRANCH   5  10
HETATM   10  N1  UNL     1      17.641  26.781  17.923  1.00  0.00    -0.266 N 
HETATM   11  C3  UNL     1      16.788  26.807  16.805  1.00  0.00     0.367 C 
HETATM   12  O2  UNL     1      15.530  26.734  17.017  1.00  0.00    -0.238 OA
ATOM     13  H1  UNL     1      17.472  27.432  18.690  1.00  0.00     0.174 HD
BRANCH  11  14
HETATM   14  O1  UNL     1      17.210  26.904  15.490  1.00  0.00    -0.304 OA
BRANCH  14  15
HETATM   15  C2  UNL     1      16.901  27.940  14.607  1.00  0.00     0.176 C 
HETATM   16  C1  UNL     1      17.933  29.032  14.746  1.00  0.00     0.034 C 
ENDBRANCH  14  15
ENDBRANCH  11  14
ENDBRANCH   5  10
ENDBRANCH   1   3
BRANCH   1  17
HETATM   17  C8  UNL     1      20.417  23.142  15.471  1.00  0.00     0.124 C 
BRANCH  17  18
HETATM   18  N3  UNL     1      21.697  23.099  14.827  1.00  0.00    -0.239 NA
HETATM   19  C9  UNL     1      22.416  21.933  15.363  1.00  0.00     0.135 C 
BRANCH  18  20
HETATM   20  N4  UNL     1      21.713  23.012  13.473  1.00  0.00    -0.348 N 
ATOM     21  H4  UNL     1      22.458  22.494  13.006  1.00  0.00     0.174 HD
BRANCH  20  22
HETATM   22  C10 UNL     1      20.711  23.628  12.714  1.00  0.00     0.120 C 
HETATM   23  C11 UNL     1      21.082  24.911  12.012  1.00  0.00     0.055 C 
HETATM   24  C12 UNL     1      19.800  25.130  11.192  1.00  0.00     0.034 C 
HETATM   25  C13 UNL     1      18.926  26.059  11.989  1.00  0.00     0.034 C 
HETATM   26  C14 UNL     1      20.094  25.745   9.855  1.00  0.00     0.034 C 
HETATM   27  N5  UNL     1      19.205  23.836  11.003  1.00  0.00    -0.180 NA
HETATM   28  C15 UNL     1      20.058  22.854  11.628  1.00  0.00     0.053 C 
HETATM   29  C16 UNL     1      19.281  21.708  12.229  1.00  0.00     0.036 C 
HETATM   30  C17 UNL     1      20.982  22.308  10.589  1.00  0.00     0.036 C 
BRANCH  27  31
HETATM   31  O3  UNL     1      17.940  23.805  11.424  1.00  0.00    -0.311 OA
ATOM     32  H3  UNL     1      17.865  23.427  12.292  1.00  0.00     0.237 HD
ENDBRANCH  27  31
ENDBRANCH  20  22
ENDBRANCH  18  20
ENDBRANCH  17  18
ENDBRANCH   1  17
TORSDOF 9
ENDMDL
MODEL 5
REMARK VINA RESULT: -7.590170313      1.335      2.237
REMARK  9 active torsions:
REMARK  status: ('A' for Active; 'I' for Inactive)
REMARK    1  A    between atoms: C2_2  and  O1_3 
REMARK    2  A    between atoms: O1_3  and  C3_4 
REMARK       I    between atoms: C3_4  and  N1_6 
REMARK    3  A    between atoms: N1_6  and  C4_8 
REMARK    4  A    between atoms: C5_11  and  C6_12 
REMARK    5  A    between atoms: C6_12  and  C8_14 
REMARK    6  A    between atoms: C8_14  and  N3_15 
REMARK    7  A    between atoms: N3_15  and  N4_17 
REMARK    8  A    between atoms: N4_17  and  C10_19 
REMARK    9  A    between atoms: N5_24  and  O3_25 
ROOT
HETATM    1  C6  UNL     1      19.563  23.887  16.090  1.00  0.00     0.066 C 
HETATM    2  C7  UNL     1      18.387  23.241  15.332  1.00  0.00     0.019 C 
ENDROOT
BRANCH   1   3
HETATM    3  C5  UNL     1      18.936  24.897  16.982  1.00  0.00     0.110 A 
HETATM    4  N2  UNL     1      17.686  25.365  16.807  1.00  0.00    -0.308 N 
HETATM    5  C4  UNL     1      17.455  26.255  17.783  1.00  0.00     0.253 A 
ATOM      6  H2  UNL     1      17.037  25.094  16.068  1.00  0.00     0.170 HD
HETATM    7  O4  UNL     1      18.541  26.336  18.549  1.00  0.00    -0.199 OA
HETATM    8  N6  UNL     1      19.402  25.522  18.054  1.00  0.00    -0.245 N 
ATOM      9  H6  UNL     1      20.335  25.375  18.439  1.00  0.00     0.196 HD
BRANCH   5  10
HETATM   10  N1  UNL     1      16.363  26.907  17.934  1.00  0.00    -0.266 N 
HETATM   11  C3  UNL     1      15.702  27.511  16.849  1.00  0.00     0.367 C 
HETATM   12  O2  UNL     1      14.461  27.250  16.690  1.00  0.00    -0.238 OA
ATOM     13  H1  UNL     1      15.961  26.990  18.867  1.00  0.00     0.174 HD
BRANCH  11  14
HETATM   14  O1  UNL     1      16.296  28.368  15.938  1.00  0.00    -0.304 OA
BRANCH  14  15
HETATM   15  C2  UNL     1      16.592  28.068  14.607  1.00  0.00     0.176 C 
HETATM   16  C1  UNL     1      18.085  28.148  14.402  1.00  0.00     0.034 C 
ENDBRANCH  14  15
ENDBRANCH  11  14
ENDBRANCH   5  10
ENDBRANCH   1   3
BRANCH   1  17
HETATM   17  C8  UNL     1      20.518  24.527  15.112  1.00  0.00     0.124 C 
BRANCH  17  18
HETATM   18  N3  UNL     1      21.578  23.674  14.664  1.00  0.00    -0.239 NA
HETATM   19  C9  UNL     1      21.585  22.491  15.539  1.00  0.00     0.135 C 
BRANCH  18  20
HETATM   20  N4  UNL     1      21.532  23.240  13.379  1.00  0.00    -0.348 N 
ATOM     21  H4  UNL     1      22.192  22.532  13.058  1.00  0.00     0.174 HD
BRANCH  20  22
HETATM   22  C10 UNL     1      20.583  23.761  12.493  1.00  0.00     0.120 C 
HETATM   23  C11 UNL     1      21.011  24.939  11.651  1.00  0.00     0.055 C 
HETATM   24  C12 UNL     1      19.779  25.059  10.740  1.00  0.00     0.034 C 
HETATM   25  C13 UNL     1      18.878  26.092  11.360  1.00  0.00     0.034 C 
HETATM   26  C14 UNL     1      20.154  25.492   9.352  1.00  0.00     0.034 C 
HETATM   27  N5  UNL     1      19.175  23.757  10.688  1.00  0.00    -0.180 NA
HETATM   28  C15 UNL     1      19.977  22.857  11.481  1.00  0.00     0.053 C 
HETATM   29  C16 UNL     1      19.151  21.807  12.183  1.00  0.00     0.036 C 
HETATM   30  C17 UNL     1      20.947  22.172  10.576  1.00  0.00     0.036 C 
BRANCH  27  31
HETATM   31  O3  UNL     1      17.888  23.791  11.039  1.00  0.00    -0.311 OA
ATOM     32  H3  UNL     1      17.547  22.924  11.218  1.00  0.00     0.237 HD
ENDBRANCH  27  31
ENDBRANCH  20  22
ENDBRANCH  18  20
ENDBRANCH  17  18
ENDBRANCH   1  17
TORSDOF 9
ENDMDL
