MODEL 1
REMARK VINA RESULT: -7.306489016      0.000      0.000
REMARK  5 active torsions:
REMARK  status: ('A' for Active; 'I' for Inactive)
REMARK    1  A    between atoms: C2_2  and  O2_4 
REMARK    2  A    between atoms: O2_4  and  C3_5 
REMARK    3  A    between atoms: C6_8  and  O3_9 
REMARK    4  A    between atoms: C11_16  and  O5_17 
REMARK    5  A    between atoms: O5_17  and  C12_18 
ROOT
HETATM    1  C3  UNL     1       5.603  35.132  26.352  1.00  0.00     0.144 C 
HETATM    2  C4  UNL     1       6.002  35.698  27.733  1.00  0.00     0.048 C 
HETATM    3  C5  UNL     1       7.504  35.866  27.709  1.00  0.00     0.015 C 
HETATM    4  C6  UNL     1       5.335  36.969  28.066  1.00  0.00     0.194 C 
HETATM    5  C7  UNL     1       4.518  37.576  27.009  1.00  0.00     0.164 C 
HETATM    6  O4  UNL     1       4.242  38.763  27.118  1.00  0.00    -0.294 OA
HETATM    7  C8  UNL     1       4.013  36.857  25.837  1.00  0.00     0.029 C 
HETATM    8  C9  UNL     1       4.732  37.295  24.629  1.00  0.00     0.024 C 
HETATM    9  C10 UNL     1       2.536  36.908  25.630  1.00  0.00     0.051 C 
HETATM   10  C11 UNL     1       2.332  35.681  24.765  1.00  0.00     0.141 C 
HETATM   11  C14 UNL     1       3.323  34.624  25.283  1.00  0.00    -0.014 C 
HETATM   12  C15 UNL     1       2.430  33.643  26.067  1.00  0.00     0.018 C 
HETATM   13  C16 UNL     1       3.907  33.828  24.183  1.00  0.00     0.018 C 
HETATM   14  C17 UNL     1       4.179  35.368  26.185  1.00  0.00     0.042 C 
ENDROOT
BRANCH   1  15
HETATM   15  O2  UNL     1       6.123  33.859  26.166  1.00  0.00    -0.315 OA
BRANCH  15  16
HETATM   16  C2  UNL     1       7.135  33.507  25.298  1.00  0.00     0.255 C 
HETATM   17  C1  UNL     1       7.126  32.170  24.680  1.00  0.00     0.126 C 
HETATM   18  O1  UNL     1       7.996  34.388  25.113  1.00  0.00    -0.266 OA
ENDBRANCH  15  16
ENDBRANCH   1  15
BRANCH   4  19
HETATM   19  O3  UNL     1       4.486  36.845  29.193  1.00  0.00    -0.388 OA
ATOM     20  H3  UNL     1       4.420  37.657  29.682  1.00  0.00     0.210 HD
ENDBRANCH   4  19
BRANCH  10  21
HETATM   21  O5  UNL     1       1.017  35.240  24.782  1.00  0.00    -0.316 OA
BRANCH  21  22
HETATM   22  C12 UNL     1       0.261  35.080  23.636  1.00  0.00     0.255 C 
HETATM   23  C13 UNL     1       0.179  36.128  22.578  1.00  0.00     0.126 C 
HETATM   24  O6  UNL     1      -0.384  33.994  23.492  1.00  0.00    -0.266 OA
ENDBRANCH  21  22
ENDBRANCH  10  21
TORSDOF 5
ENDMDL
MODEL 2
REMARK VINA RESULT: -7.231136102      1.680      2.172
REMARK  5 active torsions:
REMARK  status: ('A' for Active; 'I' for Inactive)
REMARK    1  A    between atoms: C2_2  and  O2_4 
REMARK    2  A    between atoms: O2_4  and  C3_5 
REMARK    3  A    between atoms: C6_8  and  O3_9 
REMARK    4  A    between atoms: C11_16  and  O5_17 
REMARK    5  A    between atoms: O5_17  and  C12_18 
ROOT
HETATM    1  C3  UNL     1       5.294  36.335  25.844  1.00  0.00     0.144 C 
HETATM    2  C4  UNL     1       5.740  36.098  27.304  1.00  0.00     0.048 C 
HETATM    3  C5  UNL     1       7.251  36.078  27.293  1.00  0.00     0.015 C 
HETATM    4  C6  UNL     1       5.232  37.109  28.248  1.00  0.00     0.194 C 
HETATM    5  C7  UNL     1       4.515  38.248  27.664  1.00  0.00     0.164 C 
HETATM    6  O4  UNL     1       4.388  39.251  28.354  1.00  0.00    -0.294 OA
HETATM    7  C8  UNL     1       3.941  38.263  26.316  1.00  0.00     0.029 C 
HETATM    8  C9  UNL     1       4.729  39.150  25.444  1.00  0.00     0.024 C 
HETATM    9  C10 UNL     1       2.486  38.581  26.232  1.00  0.00     0.051 C 
HETATM   10  C11 UNL     1       2.143  37.971  24.888  1.00  0.00     0.141 C 
HETATM   11  C14 UNL     1       2.986  36.689  24.775  1.00  0.00    -0.014 C 
HETATM   12  C15 UNL     1       1.964  35.562  25.020  1.00  0.00     0.018 C 
HETATM   13  C16 UNL     1       3.482  36.474  23.399  1.00  0.00     0.018 C 
HETATM   14  C17 UNL     1       3.914  36.787  25.882  1.00  0.00     0.042 C 
ENDROOT
BRANCH   1  15
HETATM   15  O2  UNL     1       5.653  35.267  25.033  1.00  0.00    -0.315 OA
BRANCH  15  16
HETATM   16  C2  UNL     1       5.543  33.929  25.347  1.00  0.00     0.255 C 
HETATM   17  C1  UNL     1       6.760  33.102  25.428  1.00  0.00     0.126 C 
HETATM   18  O1  UNL     1       4.379  33.529  25.539  1.00  0.00    -0.266 OA
ENDBRANCH  15  16
ENDBRANCH   1  15
BRANCH   4  19
HETATM   19  O3  UNL     1       4.357  36.547  29.210  1.00  0.00    -0.388 OA
ATOM     20  H3  UNL     1       3.586  37.085  29.349  1.00  0.00     0.210 HD
ENDBRANCH   4  19
BRANCH  10  21
HETATM   21  O5  UNL     1       0.783  37.737  24.751  1.00  0.00    -0.316 OA
BRANCH  21  22
HETATM   22  C12 UNL     1       0.037  38.226  23.695  1.00  0.00     0.255 C 
HETATM   23  C13 UNL     1      -0.120  37.480  22.413  1.00  0.00     0.126 C 
HETATM   24  O6  UNL     1      -0.530  39.356  23.836  1.00  0.00    -0.266 OA
ENDBRANCH  21  22
ENDBRANCH  10  21
TORSDOF 5
ENDMDL
MODEL 3
REMARK VINA RESULT: -7.076583945      2.420      6.457
REMARK  5 active torsions:
REMARK  status: ('A' for Active; 'I' for Inactive)
REMARK    1  A    between atoms: C2_2  and  O2_4 
REMARK    2  A    between atoms: O2_4  and  C3_5 
REMARK    3  A    between atoms: C6_8  and  O3_9 
REMARK    4  A    between atoms: C11_16  and  O5_17 
REMARK    5  A    between atoms: O5_17  and  C12_18 
ROOT
HETATM    1  C3  UNL     1       1.504  37.780  23.081  1.00  0.00     0.144 C 
HETATM    2  C4  UNL     1       0.063  37.238  22.945  1.00  0.00     0.048 C 
HETATM    3  C5  UNL     1      -0.231  37.174  21.464  1.00  0.00     0.015 C 
HETATM    4  C6  UNL     1      -0.136  35.923  23.580  1.00  0.00     0.194 C 
HETATM    5  C7  UNL     1       1.063  35.265  24.111  1.00  0.00     0.164 C 
HETATM    6  O4  UNL     1       1.002  34.061  24.323  1.00  0.00    -0.294 OA
HETATM    7  C8  UNL     1       2.324  35.951  24.406  1.00  0.00     0.029 C 
HETATM    8  C9  UNL     1       3.348  35.569  23.420  1.00  0.00     0.024 C 
HETATM    9  C10 UNL     1       2.836  35.799  25.799  1.00  0.00     0.051 C 
HETATM   10  C11 UNL     1       3.739  37.013  25.899  1.00  0.00     0.141 C 
HETATM   11  C14 UNL     1       3.034  38.133  25.113  1.00  0.00    -0.014 C 
HETATM   12  C15 UNL     1       2.468  39.047  26.216  1.00  0.00     0.018 C 
HETATM   13  C16 UNL     1       3.996  38.971  24.367  1.00  0.00     0.018 C 
HETATM   14  C17 UNL     1       1.965  37.447  24.418  1.00  0.00     0.042 C 
ENDROOT
BRANCH   1  15
HETATM   15  O2  UNL     1       1.590  39.087  22.622  1.00  0.00    -0.315 OA
BRANCH  15  16
HETATM   16  C2  UNL     1       2.111  39.496  21.413  1.00  0.00     0.255 C 
HETATM   17  C1  UNL     1       3.178  38.702  20.779  1.00  0.00     0.126 C 
HETATM   18  O1  UNL     1       1.610  40.539  20.952  1.00  0.00    -0.266 OA
ENDBRANCH  15  16
ENDBRANCH   1  15
BRANCH   4  19
HETATM   19  O3  UNL     1      -1.057  35.984  24.653  1.00  0.00    -0.388 OA
ATOM     20  H3  UNL     1      -0.762  35.485  25.406  1.00  0.00     0.210 HD
ENDBRANCH   4  19
BRANCH  10  21
HETATM   21  O5  UNL     1       4.003  37.361  27.214  1.00  0.00    -0.316 OA
BRANCH  21  22
HETATM   22  C12 UNL     1       4.956  36.721  27.986  1.00  0.00     0.255 C 
HETATM   23  C13 UNL     1       6.191  36.125  27.401  1.00  0.00     0.126 C 
HETATM   24  O6  UNL     1       4.757  36.645  29.240  1.00  0.00    -0.266 OA
ENDBRANCH  21  22
ENDBRANCH  10  21
TORSDOF 5
ENDMDL
MODEL 4
REMARK VINA RESULT: -6.944201678      1.815      5.944
REMARK  5 active torsions:
REMARK  status: ('A' for Active; 'I' for Inactive)
REMARK    1  A    between atoms: C2_2  and  O2_4 
REMARK    2  A    between atoms: O2_4  and  C3_5 
REMARK    3  A    between atoms: C6_8  and  O3_9 
REMARK    4  A    between atoms: C11_16  and  O5_17 
REMARK    5  A    between atoms: O5_17  and  C12_18 
ROOT
HETATM    1  C3  UNL     1       1.390  35.382  23.869  1.00  0.00     0.144 C 
HETATM    2  C4  UNL     1       1.255  35.961  22.443  1.00  0.00     0.048 C 
HETATM    3  C5  UNL     1      -0.144  36.524  22.341  1.00  0.00     0.015 C 
HETATM    4  C6  UNL     1       2.262  36.988  22.124  1.00  0.00     0.194 C 
HETATM    5  C7  UNL     1       3.137  37.410  23.224  1.00  0.00     0.164 C 
HETATM    6  O4  UNL     1       3.731  38.473  23.100  1.00  0.00    -0.294 OA
HETATM    7  C8  UNL     1       3.348  36.644  24.455  1.00  0.00     0.029 C 
HETATM    8  C9  UNL     1       2.692  37.320  25.586  1.00  0.00     0.024 C 
HETATM    9  C10 UNL     1       4.766  36.310  24.778  1.00  0.00     0.051 C 
HETATM   10  C11 UNL     1       4.571  35.120  25.695  1.00  0.00     0.141 C 
HETATM   11  C14 UNL     1       3.369  34.340  25.132  1.00  0.00    -0.014 C 
HETATM   12  C15 UNL     1       4.015  33.117  24.455  1.00  0.00     0.018 C 
HETATM   13  C16 UNL     1       2.518  33.787  26.207  1.00  0.00     0.018 C 
HETATM   14  C17 UNL     1       2.810  35.237  24.142  1.00  0.00     0.042 C 
ENDROOT
BRANCH   1  15
HETATM   15  O2  UNL     1       0.534  34.305  24.053  1.00  0.00    -0.315 OA
BRANCH  15  16
HETATM   16  C2  UNL     1      -0.547  34.256  24.906  1.00  0.00     0.255 C 
HETATM   17  C1  UNL     1      -0.831  33.013  25.644  1.00  0.00     0.126 C 
HETATM   18  O1  UNL     1      -1.209  35.309  24.974  1.00  0.00    -0.266 OA
ENDBRANCH  15  16
ENDBRANCH   1  15
BRANCH   4  19
HETATM   19  O3  UNL     1       3.121  36.584  21.073  1.00  0.00    -0.388 OA
ATOM     20  H3  UNL     1       3.592  37.317  20.694  1.00  0.00     0.210 HD
ENDBRANCH   4  19
BRANCH  10  21
HETATM   21  O5  UNL     1       5.716  34.344  25.797  1.00  0.00    -0.316 OA
BRANCH  21  22
HETATM   22  C12 UNL     1       6.925  34.842  26.246  1.00  0.00     0.255 C 
HETATM   23  C13 UNL     1       7.059  35.572  27.540  1.00  0.00     0.126 C 
HETATM   24  O6  UNL     1       7.953  34.664  25.518  1.00  0.00    -0.266 OA
ENDBRANCH  21  22
ENDBRANCH  10  21
TORSDOF 5
ENDMDL
MODEL 5
REMARK VINA RESULT: -6.917406461      2.274      3.045
REMARK  5 active torsions:
REMARK  status: ('A' for Active; 'I' for Inactive)
REMARK    1  A    between atoms: C2_2  and  O2_4 
REMARK    2  A    between atoms: O2_4  and  C3_5 
REMARK    3  A    between atoms: C6_8  and  O3_9 
REMARK    4  A    between atoms: C11_16  and  O5_17 
REMARK    5  A    between atoms: O5_17  and  C12_18 
ROOT
HETATM    1  C3  UNL     1       4.287  35.675  24.787  1.00  0.00     0.144 C 
HETATM    2  C4  UNL     1       4.921  35.521  26.188  1.00  0.00     0.048 C 
HETATM    3  C5  UNL     1       6.231  34.794  25.988  1.00  0.00     0.015 C 
HETATM    4  C6  UNL     1       5.129  36.802  26.886  1.00  0.00     0.194 C 
HETATM    5  C7  UNL     1       4.848  38.020  26.117  1.00  0.00     0.164 C 
HETATM    6  O4  UNL     1       5.327  39.070  26.524  1.00  0.00    -0.294 OA
HETATM    7  C8  UNL     1       4.036  38.061  24.899  1.00  0.00     0.029 C 
HETATM    8  C9  UNL     1       4.895  38.304  23.728  1.00  0.00     0.024 C 
HETATM    9  C10 UNL     1       2.879  39.003  24.921  1.00  0.00     0.051 C 
HETATM   10  C11 UNL     1       2.003  38.397  23.843  1.00  0.00     0.141 C 
HETATM   11  C14 UNL     1       2.168  36.872  23.969  1.00  0.00    -0.014 C 
HETATM   12  C15 UNL     1       0.855  36.419  24.634  1.00  0.00     0.018 C 
HETATM   13  C16 UNL     1       2.186  36.209  22.647  1.00  0.00     0.018 C 
HETATM   14  C17 UNL     1       3.282  36.720  24.881  1.00  0.00     0.042 C 
ENDROOT
BRANCH   1  15
HETATM   15  O2  UNL     1       3.956  34.438  24.251  1.00  0.00    -0.315 OA
BRANCH  15  16
HETATM   16  C2  UNL     1       3.471  33.350  24.944  1.00  0.00     0.255 C 
HETATM   17  C1  UNL     1       4.066  32.022  24.715  1.00  0.00     0.126 C 
HETATM   18  O1  UNL     1       2.538  33.602  25.730  1.00  0.00    -0.266 OA
ENDBRANCH  15  16
ENDBRANCH   1  15
BRANCH   4  19
HETATM   19  O3  UNL     1       4.353  36.897  28.067  1.00  0.00    -0.388 OA
ATOM     20  H3  UNL     1       4.299  37.790  28.388  1.00  0.00     0.210 HD
ENDBRANCH   4  19
BRANCH  10  21
HETATM   21  O5  UNL     1       0.683  38.807  23.950  1.00  0.00    -0.316 OA
BRANCH  21  22
HETATM   22  C12 UNL     1      -0.019  39.369  22.899  1.00  0.00     0.255 C 
HETATM   23  C13 UNL     1      -0.290  40.832  22.810  1.00  0.00     0.126 C 
HETATM   24  O6  UNL     1      -0.444  38.596  21.983  1.00  0.00    -0.266 OA
ENDBRANCH  21  22
ENDBRANCH  10  21
TORSDOF 5
ENDMDL
