MODEL 1
REMARK VINA RESULT: -6.486562946      0.000      0.000
REMARK  4 active torsions:
REMARK  status: ('A' for Active; 'I' for Inactive)
REMARK    1  A    between atoms: C7_8  and  O2_9 
REMARK    2  A    between atoms: C13_16  and  O4_17 
REMARK    3  A    between atoms: C15_20  and  C16_21 
REMARK    4  A    between atoms: C16_21  and  O6_23 
ROOT
HETATM    1  C1  UNL     1       1.301  32.949  26.193  1.00  0.00     0.052 C 
HETATM    2  C2  UNL     1       1.356  33.889  25.280  1.00  0.00     0.100 C 
HETATM    3  O1  UNL     1       0.207  34.041  24.516  1.00  0.00    -0.340 OA
HETATM    4  C3  UNL     1      -0.233  35.200  23.768  1.00  0.00     0.068 C 
HETATM    5  C4  UNL     1      -1.614  35.456  24.420  1.00  0.00     0.047 C 
HETATM    6  C5  UNL     1      -0.496  34.881  22.365  1.00  0.00     0.047 C 
HETATM    7  C6  UNL     1       0.598  36.346  24.163  1.00  0.00     0.070 C 
HETATM    8  C7  UNL     1       0.022  37.723  24.056  1.00  0.00     0.129 C 
HETATM    9  C9  UNL     1       0.821  38.614  25.002  1.00  0.00     0.035 C 
HETATM   10  C10 UNL     1       1.897  37.963  25.761  1.00  0.00     0.041 C 
HETATM   11  C11 UNL     1       2.731  36.929  25.070  1.00  0.00     0.079 C 
HETATM   12  C12 UNL     1       4.128  37.353  24.872  1.00  0.00     0.047 C 
HETATM   13  O3  UNL     1       2.670  35.797  25.917  1.00  0.00    -0.337 OA
HETATM   14  C13 UNL     1       2.627  34.660  25.181  1.00  0.00     0.213 C 
HETATM   15  C14 UNL     1       2.733  35.059  23.720  1.00  0.00     0.099 C 
HETATM   16  C15 UNL     1       2.032  36.405  23.823  1.00  0.00     0.093 C 
ENDROOT
BRANCH  16  17
HETATM   17  C16 UNL     1       2.393  37.215  22.629  1.00  0.00     0.271 C 
HETATM   18  O5  UNL     1       3.003  38.309  22.658  1.00  0.00    -0.264 OA
BRANCH  17  19
HETATM   19  O6  UNL     1       2.045  36.753  21.377  1.00  0.00    -0.326 OA
HETATM   20  C17 UNL     1       2.603  37.185  20.153  1.00  0.00     0.213 C 
ENDBRANCH  17  19
ENDBRANCH  16  17
BRANCH   8  21
HETATM   21  O2  UNL     1       0.052  38.330  22.840  1.00  0.00    -0.390 OA
HETATM   22  C8  UNL     1      -0.189  39.692  22.975  1.00  0.00     0.202 C 
ENDBRANCH   8  21
BRANCH  14  23
HETATM   23  O4  UNL     1       3.718  33.833  25.451  1.00  0.00    -0.360 OA
ATOM     24  H4  UNL     1       3.601  32.986  25.036  1.00  0.00     0.213 HD
ENDBRANCH  14  23
TORSDOF 4
ENDMDL
MODEL 2
REMARK VINA RESULT: -6.397755421      1.715      4.126
REMARK  4 active torsions:
REMARK  status: ('A' for Active; 'I' for Inactive)
REMARK    1  A    between atoms: C7_8  and  O2_9 
REMARK    2  A    between atoms: C13_16  and  O4_17 
REMARK    3  A    between atoms: C15_20  and  C16_21 
REMARK    4  A    between atoms: C16_21  and  O6_23 
ROOT
HETATM    1  C1  UNL     1       0.797  33.800  25.478  1.00  0.00     0.052 C 
HETATM    2  C2  UNL     1       1.209  35.026  25.259  1.00  0.00     0.100 C 
HETATM    3  O1  UNL     1       2.460  35.332  25.779  1.00  0.00    -0.340 OA
HETATM    4  C3  UNL     1       3.374  36.379  25.372  1.00  0.00     0.068 C 
HETATM    5  C4  UNL     1       4.628  35.543  25.017  1.00  0.00     0.047 C 
HETATM    6  C5  UNL     1       3.760  37.237  26.492  1.00  0.00     0.047 C 
HETATM    7  C6  UNL     1       2.905  36.931  24.094  1.00  0.00     0.070 C 
HETATM    8  C7  UNL     1       3.905  37.538  23.162  1.00  0.00     0.129 C 
HETATM    9  C9  UNL     1       3.286  37.512  21.768  1.00  0.00     0.035 C 
HETATM   10  C10 UNL     1       1.942  36.928  21.659  1.00  0.00     0.041 C 
HETATM   11  C11 UNL     1       0.953  37.213  22.745  1.00  0.00     0.079 C 
HETATM   12  C12 UNL     1      -0.175  38.048  22.292  1.00  0.00     0.047 C 
HETATM   13  O3  UNL     1       0.495  35.939  23.154  1.00  0.00    -0.337 OA
HETATM   14  C13 UNL     1       0.295  35.919  24.495  1.00  0.00     0.213 C 
HETATM   15  C14 UNL     1       0.579  37.316  25.018  1.00  0.00     0.099 C 
HETATM   16  C15 UNL     1       1.649  37.700  24.008  1.00  0.00     0.093 C 
ENDROOT
BRANCH  16  17
HETATM   17  C16 UNL     1       1.783  39.181  24.007  1.00  0.00     0.271 C 
HETATM   18  O5  UNL     1       1.625  39.919  23.006  1.00  0.00    -0.264 OA
BRANCH  17  19
HETATM   19  O6  UNL     1       2.104  39.825  25.183  1.00  0.00    -0.326 OA
HETATM   20  C17 UNL     1       2.037  41.218  25.407  1.00  0.00     0.213 C 
ENDBRANCH  17  19
ENDBRANCH  16  17
BRANCH   8  21
HETATM   21  O2  UNL     1       4.285  38.823  23.389  1.00  0.00    -0.390 OA
HETATM   22  C8  UNL     1       5.654  38.888  23.619  1.00  0.00     0.202 C 
ENDBRANCH   8  21
BRANCH  14  23
HETATM   23  O4  UNL     1      -1.036  35.636  24.810  1.00  0.00    -0.360 OA
ATOM     24  H4  UNL     1      -1.590  36.377  24.595  1.00  0.00     0.213 HD
ENDBRANCH  14  23
TORSDOF 4
ENDMDL
MODEL 3
REMARK VINA RESULT: -6.396041880      2.761      5.337
REMARK  4 active torsions:
REMARK  status: ('A' for Active; 'I' for Inactive)
REMARK    1  A    between atoms: C7_8  and  O2_9 
REMARK    2  A    between atoms: C13_16  and  O4_17 
REMARK    3  A    between atoms: C15_20  and  C16_21 
REMARK    4  A    between atoms: C16_21  and  O6_23 
ROOT
HETATM    1  C1  UNL     1       5.247  32.273  24.666  1.00  0.00     0.052 C 
HETATM    2  C2  UNL     1       5.139  33.448  25.240  1.00  0.00     0.100 C 
HETATM    3  O1  UNL     1       6.297  33.919  25.845  1.00  0.00    -0.340 OA
HETATM    4  C3  UNL     1       6.656  35.286  26.163  1.00  0.00     0.068 C 
HETATM    5  C4  UNL     1       7.985  35.423  25.380  1.00  0.00     0.047 C 
HETATM    6  C5  UNL     1       6.996  35.450  27.576  1.00  0.00     0.047 C 
HETATM    7  C6  UNL     1       5.713  36.182  25.480  1.00  0.00     0.070 C 
HETATM    8  C7  UNL     1       6.166  37.560  25.114  1.00  0.00     0.129 C 
HETATM    9  C9  UNL     1       5.258  38.042  23.987  1.00  0.00     0.035 C 
HETATM   10  C10 UNL     1       4.219  37.105  23.538  1.00  0.00     0.041 C 
HETATM   11  C11 UNL     1       3.506  36.286  24.569  1.00  0.00     0.079 C 
HETATM   12  C12 UNL     1       2.084  36.647  24.709  1.00  0.00     0.047 C 
HETATM   13  O3  UNL     1       3.638  34.951  24.118  1.00  0.00    -0.337 OA
HETATM   14  C13 UNL     1       3.809  34.114  25.169  1.00  0.00     0.213 C 
HETATM   15  C14 UNL     1       3.718  34.948  26.435  1.00  0.00     0.099 C 
HETATM   16  C15 UNL     1       4.291  36.239  25.872  1.00  0.00     0.093 C 
ENDROOT
BRANCH  16  17
HETATM   17  C16 UNL     1       3.901  37.357  26.771  1.00  0.00     0.271 C 
HETATM   18  O5  UNL     1       4.288  37.500  27.954  1.00  0.00    -0.264 OA
BRANCH  17  19
HETATM   19  O6  UNL     1       3.049  38.332  26.296  1.00  0.00    -0.326 OA
HETATM   20  C17 UNL     1       2.851  39.608  26.869  1.00  0.00     0.213 C 
ENDBRANCH  17  19
ENDBRANCH  16  17
BRANCH   8  21
HETATM   21  O2  UNL     1       6.124  38.518  26.077  1.00  0.00    -0.390 OA
HETATM   22  C8  UNL     1       6.189  39.782  25.503  1.00  0.00     0.202 C 
ENDBRANCH   8  21
BRANCH  14  23
HETATM   23  O4  UNL     1       2.788  33.165  25.241  1.00  0.00    -0.360 OA
ATOM     24  H4  UNL     1       2.751  32.659  24.438  1.00  0.00     0.213 HD
ENDBRANCH  14  23
TORSDOF 4
ENDMDL
MODEL 4
REMARK VINA RESULT: -6.395670508      1.924      5.271
REMARK  4 active torsions:
REMARK  status: ('A' for Active; 'I' for Inactive)
REMARK    1  A    between atoms: C7_8  and  O2_9 
REMARK    2  A    between atoms: C13_16  and  O4_17 
REMARK    3  A    between atoms: C15_20  and  C16_21 
REMARK    4  A    between atoms: C16_21  and  O6_23 
ROOT
HETATM    1  C1  UNL     1       3.270  39.176  18.782  1.00  0.00     0.052 C 
HETATM    2  C2  UNL     1       3.071  38.671  19.976  1.00  0.00     0.100 C 
HETATM    3  O1  UNL     1       3.929  39.134  20.965  1.00  0.00    -0.340 OA
HETATM    4  C3  UNL     1       3.732  39.142  22.399  1.00  0.00     0.068 C 
HETATM    5  C4  UNL     1       3.882  40.652  22.702  1.00  0.00     0.047 C 
HETATM    6  C5  UNL     1       4.823  38.473  23.107  1.00  0.00     0.047 C 
HETATM    7  C6  UNL     1       2.321  38.832  22.673  1.00  0.00     0.070 C 
HETATM    8  C7  UNL     1       1.701  39.356  23.930  1.00  0.00     0.129 C 
HETATM    9  C9  UNL     1       0.193  39.380  23.704  1.00  0.00     0.035 C 
HETATM   10  C10 UNL     1      -0.280  38.924  22.390  1.00  0.00     0.041 C 
HETATM   11  C11 UNL     1       0.398  37.748  21.759  1.00  0.00     0.079 C 
HETATM   12  C12 UNL     1      -0.473  36.563  21.664  1.00  0.00     0.047 C 
HETATM   13  O3  UNL     1       0.767  38.198  20.469  1.00  0.00    -0.337 OA
HETATM   14  C13 UNL     1       1.968  37.679  20.115  1.00  0.00     0.213 C 
HETATM   15  C14 UNL     1       2.411  36.752  21.232  1.00  0.00     0.099 C 
HETATM   16  C15 UNL     1       1.762  37.498  22.388  1.00  0.00     0.093 C 
ENDROOT
BRANCH  16  17
HETATM   17  C16 UNL     1       1.653  36.569  23.544  1.00  0.00     0.271 C 
HETATM   18  O5  UNL     1       0.589  36.279  24.139  1.00  0.00    -0.264 OA
BRANCH  17  19
HETATM   19  O6  UNL     1       2.794  35.961  24.024  1.00  0.00    -0.326 OA
HETATM   20  C17 UNL     1       2.919  35.302  25.268  1.00  0.00     0.213 C 
ENDBRANCH  17  19
ENDBRANCH  16  17
BRANCH   8  21
HETATM   21  O2  UNL     1       1.907  38.656  25.077  1.00  0.00    -0.390 OA
HETATM   22  C8  UNL     1       1.221  39.248  26.132  1.00  0.00     0.202 C 
ENDBRANCH   8  21
BRANCH  14  23
HETATM   23  O4  UNL     1       1.869  36.899  18.962  1.00  0.00    -0.360 OA
ATOM     24  H4  UNL     1       2.568  36.256  18.938  1.00  0.00     0.213 HD
ENDBRANCH  14  23
TORSDOF 4
ENDMDL
MODEL 5
REMARK VINA RESULT: -6.347931287      2.131      4.501
REMARK  4 active torsions:
REMARK  status: ('A' for Active; 'I' for Inactive)
REMARK    1  A    between atoms: C7_8  and  O2_9 
REMARK    2  A    between atoms: C13_16  and  O4_17 
REMARK    3  A    between atoms: C15_20  and  C16_21 
REMARK    4  A    between atoms: C16_21  and  O6_23 
ROOT
HETATM    1  C1  UNL     1      -0.313  34.845  23.005  1.00  0.00     0.052 C 
HETATM    2  C2  UNL     1       0.053  36.105  23.005  1.00  0.00     0.100 C 
HETATM    3  O1  UNL     1       0.486  36.595  24.230  1.00  0.00    -0.340 OA
HETATM    4  C3  UNL     1       1.338  37.736  24.495  1.00  0.00     0.068 C 
HETATM    5  C4  UNL     1       2.488  37.060  25.280  1.00  0.00     0.047 C 
HETATM    6  C5  UNL     1       0.715  38.683  25.419  1.00  0.00     0.047 C 
HETATM    7  C6  UNL     1       1.940  38.168  23.226  1.00  0.00     0.070 C 
HETATM    8  C7  UNL     1       3.263  38.863  23.257  1.00  0.00     0.129 C 
HETATM    9  C9  UNL     1       3.885  38.697  21.874  1.00  0.00     0.035 C 
HETATM   10  C10 UNL     1       3.102  37.936  20.891  1.00  0.00     0.041 C 
HETATM   11  C11 UNL     1       1.618  38.133  20.858  1.00  0.00     0.079 C 
HETATM   12  C12 UNL     1       1.152  38.791  19.624  1.00  0.00     0.047 C 
HETATM   13  O3  UNL     1       1.083  36.827  20.958  1.00  0.00    -0.337 OA
HETATM   14  C13 UNL     1      -0.043  36.837  21.712  1.00  0.00     0.213 C 
HETATM   15  C14 UNL     1      -0.323  38.279  22.094  1.00  0.00     0.099 C 
HETATM   16  C15 UNL     1       1.119  38.759  22.152  1.00  0.00     0.093 C 
ENDROOT
BRANCH  16  17
HETATM   17  C16 UNL     1       1.123  40.244  22.063  1.00  0.00     0.271 C 
HETATM   18  O5  UNL     1       1.623  40.908  21.126  1.00  0.00    -0.264 OA
BRANCH  17  19
HETATM   19  O6  UNL     1       0.537  40.977  23.073  1.00  0.00    -0.326 OA
HETATM   20  C17 UNL     1      -0.230  42.151  22.904  1.00  0.00     0.213 C 
ENDBRANCH  17  19
ENDBRANCH  16  17
BRANCH   8  21
HETATM   21  O2  UNL     1       3.274  40.195  23.526  1.00  0.00    -0.390 OA
HETATM   22  C8  UNL     1       4.013  40.450  24.675  1.00  0.00     0.202 C 
ENDBRANCH   8  21
BRANCH  14  23
HETATM   23  O4  UNL     1      -1.150  36.393  20.985  1.00  0.00    -0.360 OA
ATOM     24  H4  UNL     1      -1.945  36.511  21.491  1.00  0.00     0.213 HD
ENDBRANCH  14  23
TORSDOF 4
ENDMDL
