MODEL 1
REMARK VINA RESULT: -6.640868707      0.000      0.000
REMARK  8 active torsions:
REMARK  status: ('A' for Active; 'I' for Inactive)
REMARK    1  A    between atoms: C2_2  and  O2_4 
REMARK    2  A    between atoms: O2_4  and  C3_5 
REMARK    3  A    between atoms: C3_5  and  C4_6 
REMARK    4  A    between atoms: C6_8  and  O3_9 
REMARK    5  A    between atoms: C8_12  and  C9_13 
REMARK    6  A    between atoms: C11_16  and  C16_23 
REMARK    7  A    between atoms: C13_18  and  O5_19 
REMARK    8  A    between atoms: O5_19  and  C14_20 
ROOT
HETATM    1  C4  UNL     1       2.072  36.740  24.064  1.00  0.00     0.015 C 
HETATM    2  C5  UNL     1       2.671  36.000  22.828  1.00  0.00     0.021 C 
HETATM    3  C6  UNL     1       0.947  37.533  23.440  1.00  0.00     0.129 C 
HETATM    4  C7  UNL     1       1.776  38.473  22.599  1.00  0.00     0.041 C 
HETATM    5  C8  UNL     1       3.066  38.684  23.308  1.00  0.00     0.037 C 
HETATM    6  C16 UNL     1       3.123  37.668  24.484  1.00  0.00     0.008 C 
HETATM    7  C17 UNL     1       4.438  36.933  24.489  1.00  0.00     0.020 C 
ENDROOT
BRANCH   1   8
HETATM    8  C3  UNL     1       1.619  35.664  24.963  1.00  0.00     0.191 C 
BRANCH   8   9
HETATM    9  O2  UNL     1       0.264  35.290  24.861  1.00  0.00    -0.321 OA
BRANCH   9  10
HETATM   10  C2  UNL     1      -0.002  34.024  24.357  1.00  0.00     0.254 C 
HETATM   11  C1  UNL     1       0.368  32.781  25.079  1.00  0.00     0.126 C 
HETATM   12  O1  UNL     1      -0.578  33.887  23.247  1.00  0.00    -0.266 OA
ENDBRANCH   9  10
ENDBRANCH   8   9
ENDBRANCH   1   8
BRANCH   3  13
HETATM   13  O3  UNL     1       0.172  36.767  22.555  1.00  0.00    -0.395 OA
ATOM     14  H3  UNL     1      -0.746  36.743  22.799  1.00  0.00     0.210 HD
ENDBRANCH   3  13
BRANCH   6  15
HETATM   15  C11 UNL     1       2.951  38.637  25.562  1.00  0.00     0.096 C 
HETATM   16  O4  UNL     1       3.816  39.683  25.233  1.00  0.00    -0.363 OA
HETATM   17  C9  UNL     1       4.860  38.769  25.517  1.00  0.00     0.092 C 
HETATM   18  C10 UNL     1       6.191  39.315  25.742  1.00  0.00     0.049 C 
HETATM   19  C13 UNL     1       4.013  38.329  26.646  1.00  0.00     0.201 C 
HETATM   20  C12 UNL     1       1.629  38.976  26.138  1.00  0.00     0.050 C 
BRANCH  19  21
HETATM   21  O5  UNL     1       4.118  37.034  27.084  1.00  0.00    -0.310 OA
BRANCH  21  22
HETATM   22  C14 UNL     1       5.038  36.584  28.050  1.00  0.00     0.255 C 
HETATM   23  C15 UNL     1       6.347  35.989  27.666  1.00  0.00     0.126 C 
HETATM   24  O6  UNL     1       4.669  36.724  29.246  1.00  0.00    -0.266 OA
ENDBRANCH  21  22
ENDBRANCH  19  21
ENDBRANCH   6  15
TORSDOF 8
ENDMDL
MODEL 2
REMARK VINA RESULT: -6.404753094      0.814      1.038
REMARK  8 active torsions:
REMARK  status: ('A' for Active; 'I' for Inactive)
REMARK    1  A    between atoms: C2_2  and  O2_4 
REMARK    2  A    between atoms: O2_4  and  C3_5 
REMARK    3  A    between atoms: C3_5  and  C4_6 
REMARK    4  A    between atoms: C6_8  and  O3_9 
REMARK    5  A    between atoms: C8_12  and  C9_13 
REMARK    6  A    between atoms: C11_16  and  C16_23 
REMARK    7  A    between atoms: C13_18  and  O5_19 
REMARK    8  A    between atoms: O5_19  and  C14_20 
ROOT
HETATM    1  C4  UNL     1       2.067  36.505  24.340  1.00  0.00     0.015 C 
HETATM    2  C5  UNL     1       2.559  35.744  23.069  1.00  0.00     0.021 C 
HETATM    3  C6  UNL     1       0.782  37.132  23.852  1.00  0.00     0.129 C 
HETATM    4  C7  UNL     1       1.368  38.089  22.844  1.00  0.00     0.041 C 
HETATM    5  C8  UNL     1       2.717  38.481  23.335  1.00  0.00     0.037 C 
HETATM    6  C16 UNL     1       3.058  37.563  24.542  1.00  0.00     0.008 C 
HETATM    7  C17 UNL     1       4.433  36.969  24.387  1.00  0.00     0.020 C 
ENDROOT
BRANCH   1   8
HETATM    8  C3  UNL     1       1.873  35.454  25.355  1.00  0.00     0.191 C 
BRANCH   8   9
HETATM    9  O2  UNL     1       0.916  34.464  25.058  1.00  0.00    -0.321 OA
BRANCH   9  10
HETATM   10  C2  UNL     1       1.018  33.264  25.750  1.00  0.00     0.254 C 
HETATM   11  C1  UNL     1       1.449  32.001  25.102  1.00  0.00     0.126 C 
HETATM   12  O1  UNL     1       0.740  33.210  26.975  1.00  0.00    -0.266 OA
ENDBRANCH   9  10
ENDBRANCH   8   9
ENDBRANCH   1   8
BRANCH   3  13
HETATM   13  O3  UNL     1      -0.024  36.229  23.139  1.00  0.00    -0.395 OA
ATOM     14  H3  UNL     1       0.350  35.990  22.299  1.00  0.00     0.210 HD
ENDBRANCH   3  13
BRANCH   6  15
HETATM   15  C11 UNL     1       2.938  38.584  25.579  1.00  0.00     0.096 C 
HETATM   16  O4  UNL     1       3.817  39.592  25.180  1.00  0.00    -0.363 OA
HETATM   17  C9  UNL     1       4.847  38.667  25.479  1.00  0.00     0.092 C 
HETATM   18  C10 UNL     1       6.196  39.190  25.643  1.00  0.00     0.049 C 
HETATM   19  C13 UNL     1       4.021  38.299  26.648  1.00  0.00     0.201 C 
HETATM   20  C12 UNL     1       1.639  38.980  26.173  1.00  0.00     0.050 C 
BRANCH  19  21
HETATM   21  O5  UNL     1       4.108  37.023  27.142  1.00  0.00    -0.310 OA
BRANCH  21  22
HETATM   22  C14 UNL     1       5.063  36.587  28.080  1.00  0.00     0.255 C 
HETATM   23  C15 UNL     1       6.384  36.046  27.657  1.00  0.00     0.126 C 
HETATM   24  O6  UNL     1       4.715  36.691  29.285  1.00  0.00    -0.266 OA
ENDBRANCH  21  22
ENDBRANCH  19  21
ENDBRANCH   6  15
TORSDOF 8
ENDMDL
MODEL 3
REMARK VINA RESULT: -6.285297201      2.034      5.027
REMARK  8 active torsions:
REMARK  status: ('A' for Active; 'I' for Inactive)
REMARK    1  A    between atoms: C2_2  and  O2_4 
REMARK    2  A    between atoms: O2_4  and  C3_5 
REMARK    3  A    between atoms: C3_5  and  C4_6 
REMARK    4  A    between atoms: C6_8  and  O3_9 
REMARK    5  A    between atoms: C8_12  and  C9_13 
REMARK    6  A    between atoms: C11_16  and  C16_23 
REMARK    7  A    between atoms: C13_18  and  O5_19 
REMARK    8  A    between atoms: O5_19  and  C14_20 
ROOT
HETATM    1  C4  UNL     1       2.916  36.941  24.731  1.00  0.00     0.015 C 
HETATM    2  C5  UNL     1       3.010  37.762  26.054  1.00  0.00     0.021 C 
HETATM    3  C6  UNL     1       4.362  36.874  24.299  1.00  0.00     0.129 C 
HETATM    4  C7  UNL     1       4.578  38.339  24.010  1.00  0.00     0.041 C 
HETATM    5  C8  UNL     1       3.275  38.899  23.559  1.00  0.00     0.037 C 
HETATM    6  C16 UNL     1       2.190  37.813  23.806  1.00  0.00     0.008 C 
HETATM    7  C17 UNL     1       1.006  38.399  24.528  1.00  0.00     0.020 C 
ENDROOT
BRANCH   1   8
HETATM    8  C3  UNL     1       2.351  35.641  25.135  1.00  0.00     0.191 C 
BRANCH   8   9
HETATM    9  O2  UNL     1       3.202  34.786  25.862  1.00  0.00    -0.321 OA
BRANCH   9  10
HETATM   10  C2  UNL     1       3.429  33.524  25.330  1.00  0.00     0.254 C 
HETATM   11  C1  UNL     1       4.789  33.017  25.022  1.00  0.00     0.126 C 
HETATM   12  O1  UNL     1       2.466  32.754  25.085  1.00  0.00    -0.266 OA
ENDBRANCH   9  10
ENDBRANCH   8   9
ENDBRANCH   1   8
BRANCH   3  13
HETATM   13  O3  UNL     1       5.226  36.533  25.353  1.00  0.00    -0.395 OA
ATOM     14  H3  UNL     1       5.666  35.704  25.212  1.00  0.00     0.210 HD
ENDBRANCH   3  13
BRANCH   6  15
HETATM   15  C11 UNL     1       1.957  37.476  22.405  1.00  0.00     0.096 C 
HETATM   16  O4  UNL     1       1.780  38.709  21.773  1.00  0.00    -0.363 OA
HETATM   17  C9  UNL     1       0.567  38.788  22.498  1.00  0.00     0.092 C 
HETATM   18  C10 UNL     1      -0.428  39.751  22.046  1.00  0.00     0.049 C 
HETATM   19  C13 UNL     1       0.428  37.347  22.201  1.00  0.00     0.201 C 
HETATM   20  C12 UNL     1       2.719  36.426  21.690  1.00  0.00     0.050 C 
BRANCH  19  21
HETATM   21  O5  UNL     1      -0.267  36.556  23.079  1.00  0.00    -0.310 OA
BRANCH  21  22
HETATM   22  C14 UNL     1      -0.772  35.275  22.781  1.00  0.00     0.255 C 
HETATM   23  C15 UNL     1      -0.606  34.131  23.718  1.00  0.00     0.126 C 
HETATM   24  O6  UNL     1      -1.367  35.180  21.675  1.00  0.00    -0.266 OA
ENDBRANCH  21  22
ENDBRANCH  19  21
ENDBRANCH   6  15
TORSDOF 8
ENDMDL
MODEL 4
REMARK VINA RESULT: -6.281967899      2.782      5.189
REMARK  8 active torsions:
REMARK  status: ('A' for Active; 'I' for Inactive)
REMARK    1  A    between atoms: C2_2  and  O2_4 
REMARK    2  A    between atoms: O2_4  and  C3_5 
REMARK    3  A    between atoms: C3_5  and  C4_6 
REMARK    4  A    between atoms: C6_8  and  O3_9 
REMARK    5  A    between atoms: C8_12  and  C9_13 
REMARK    6  A    between atoms: C11_16  and  C16_23 
REMARK    7  A    between atoms: C13_18  and  O5_19 
REMARK    8  A    between atoms: O5_19  and  C14_20 
ROOT
HETATM    1  C4  UNL     1       6.319  35.657  26.242  1.00  0.00     0.015 C 
HETATM    2  C5  UNL     1       6.991  35.343  27.614  1.00  0.00     0.021 C 
HETATM    3  C6  UNL     1       7.517  35.905  25.355  1.00  0.00     0.129 C 
HETATM    4  C7  UNL     1       8.022  37.168  26.009  1.00  0.00     0.041 C 
HETATM    5  C8  UNL     1       6.841  37.884  26.561  1.00  0.00     0.037 C 
HETATM    6  C16 UNL     1       5.622  36.926  26.453  1.00  0.00     0.008 C 
HETATM    7  C17 UNL     1       4.883  36.855  27.764  1.00  0.00     0.020 C 
ENDROOT
BRANCH   1   8
HETATM    8  C3  UNL     1       5.567  34.435  25.904  1.00  0.00     0.191 C 
BRANCH   8   9
HETATM    9  O2  UNL     1       5.944  33.774  24.718  1.00  0.00    -0.321 OA
BRANCH   9  10
HETATM   10  C2  UNL     1       6.378  32.461  24.842  1.00  0.00     0.254 C 
HETATM   11  C1  UNL     1       5.585  31.306  24.350  1.00  0.00     0.126 C 
HETATM   12  O1  UNL     1       7.481  32.203  25.387  1.00  0.00    -0.266 OA
ENDBRANCH   9  10
ENDBRANCH   8   9
ENDBRANCH   1   8
BRANCH   3  13
HETATM   13  O3  UNL     1       8.518  34.933  25.515  1.00  0.00    -0.395 OA
ATOM     14  H3  UNL     1       8.422  34.206  24.910  1.00  0.00     0.210 HD
ENDBRANCH   3  13
BRANCH   6  15
HETATM   15  C11 UNL     1       4.927  37.645  25.389  1.00  0.00     0.096 C 
HETATM   16  O4  UNL     1       4.957  38.981  25.793  1.00  0.00    -0.363 OA
HETATM   17  C9  UNL     1       4.065  38.582  26.818  1.00  0.00     0.092 C 
HETATM   18  C10 UNL     1       3.315  39.624  27.503  1.00  0.00     0.049 C 
HETATM   19  C13 UNL     1       3.433  37.738  25.782  1.00  0.00     0.201 C 
HETATM   20  C12 UNL     1       5.122  37.343  23.952  1.00  0.00     0.050 C 
BRANCH  19  21
HETATM   21  O5  UNL     1       2.802  36.583  26.166  1.00  0.00    -0.310 OA
BRANCH  21  22
HETATM   22  C14 UNL     1       1.969  35.807  25.337  1.00  0.00     0.255 C 
HETATM   23  C15 UNL     1       1.450  36.327  24.043  1.00  0.00     0.126 C 
HETATM   24  O6  UNL     1       1.704  34.656  25.773  1.00  0.00    -0.266 OA
ENDBRANCH  21  22
ENDBRANCH  19  21
ENDBRANCH   6  15
TORSDOF 8
ENDMDL
MODEL 5
REMARK VINA RESULT: -6.230968087      1.768      2.222
REMARK  8 active torsions:
REMARK  status: ('A' for Active; 'I' for Inactive)
REMARK    1  A    between atoms: C2_2  and  O2_4 
REMARK    2  A    between atoms: O2_4  and  C3_5 
REMARK    3  A    between atoms: C3_5  and  C4_6 
REMARK    4  A    between atoms: C6_8  and  O3_9 
REMARK    5  A    between atoms: C8_12  and  C9_13 
REMARK    6  A    between atoms: C11_16  and  C16_23 
REMARK    7  A    between atoms: C13_18  and  O5_19 
REMARK    8  A    between atoms: O5_19  and  C14_20 
ROOT
HETATM    1  C4  UNL     1       1.526  36.404  23.937  1.00  0.00     0.015 C 
HETATM    2  C5  UNL     1       0.877  36.065  22.559  1.00  0.00     0.021 C 
HETATM    3  C6  UNL     1       0.346  36.937  24.716  1.00  0.00     0.129 C 
HETATM    4  C7  UNL     1       0.097  38.191  23.915  1.00  0.00     0.041 C 
HETATM    5  C8  UNL     1       1.408  38.642  23.376  1.00  0.00     0.037 C 
HETATM    6  C16 UNL     1       2.439  37.512  23.653  1.00  0.00     0.008 C 
HETATM    7  C17 UNL     1       3.217  37.184  22.406  1.00  0.00     0.020 C 
ENDROOT
BRANCH   1   8
HETATM    8  C3  UNL     1       2.040  35.116  24.437  1.00  0.00     0.191 C 
BRANCH   8   9
HETATM    9  O2  UNL     1       1.694  34.773  25.759  1.00  0.00    -0.321 OA
BRANCH   9  10
HETATM   10  C2  UNL     1       1.333  33.452  25.990  1.00  0.00     0.254 C 
HETATM   11  C1  UNL     1       1.682  32.351  25.058  1.00  0.00     0.126 C 
HETATM   12  O1  UNL     1       0.685  33.140  27.021  1.00  0.00    -0.266 OA
ENDBRANCH   9  10
ENDBRANCH   8   9
ENDBRANCH   1   8
BRANCH   3  13
HETATM   13  O3  UNL     1      -0.798  36.132  24.583  1.00  0.00    -0.395 OA
ATOM     14  H3  UNL     1      -1.589  36.571  24.872  1.00  0.00     0.210 HD
ENDBRANCH   3  13
BRANCH   6  15
HETATM   15  C11 UNL     1       3.193  38.212  24.688  1.00  0.00     0.096 C 
HETATM   16  O4  UNL     1       3.587  39.408  24.085  1.00  0.00    -0.363 OA
HETATM   17  C9  UNL     1       4.431  38.603  23.282  1.00  0.00     0.092 C 
HETATM   18  C10 UNL     1       5.514  39.264  22.568  1.00  0.00     0.049 C 
HETATM   19  C13 UNL     1       4.685  37.836  24.519  1.00  0.00     0.201 C 
HETATM   20  C12 UNL     1       2.771  38.249  26.108  1.00  0.00     0.050 C 
BRANCH  19  21
HETATM   21  O5  UNL     1       4.999  36.505  24.417  1.00  0.00    -0.310 OA
BRANCH  21  22
HETATM   22  C14 UNL     1       5.578  35.734  25.444  1.00  0.00     0.255 C 
HETATM   23  C15 UNL     1       5.508  34.248  25.441  1.00  0.00     0.126 C 
HETATM   24  O6  UNL     1       6.152  36.396  26.349  1.00  0.00    -0.266 OA
ENDBRANCH  21  22
ENDBRANCH  19  21
ENDBRANCH   6  15
TORSDOF 8
ENDMDL
