MODEL 1
REMARK VINA RESULT: -9.188313300      0.000      0.000
REMARK  13 active torsions:
REMARK  status: ('A' for Active; 'I' for Inactive)
REMARK    1  A    between atoms: C1_2  and  C2_4 
REMARK    2  A    between atoms: C2_4  and  C3_5 
REMARK    3  A    between atoms: C3_5  and  N2_6 
REMARK    4  A    between atoms: C3_5  and  C19_36 
REMARK    5  A    between atoms: N2_6  and  C4_8 
REMARK    6  A    between atoms: C4_8  and  C5_9 
REMARK    7  A    between atoms: C5_9  and  C6_10 
REMARK    8  A    between atoms: C6_10  and  C7_11 
REMARK    9  A    between atoms: C7_11  and  C8_12 
REMARK   10  A    between atoms: C8_12  and  N3_13 
REMARK   11  A    between atoms: C10_18  and  O2_19 
REMARK   12  A    between atoms: C10_18  and  N6_21 
REMARK   13  A    between atoms: N7_24  and  C13_25 
ROOT
HETATM    1  C4  UNL     1      21.563  29.342  14.125  1.00  0.00     0.057 C 
HETATM    2  C10 UNL     1      20.548  29.700  15.078  1.00  0.00     0.161 C 
ENDROOT
BRANCH   1   3
HETATM    3  N2  UNL     1      21.366  28.178  13.371  1.00  0.00    -0.381 N 
ATOM      4  H2  UNL     1      21.084  27.351  13.899  1.00  0.00     0.160 HD
BRANCH   3   5
HETATM    5  C3  UNL     1      21.502  27.998  12.002  1.00  0.00     0.123 C 
BRANCH   5   6
HETATM    6  C2  UNL     1      22.214  26.711  11.667  1.00  0.00     0.129 C 
BRANCH   6   7
HETATM    7  C1  UNL     1      23.674  26.735  11.804  1.00  0.00     0.233 C 
HETATM    8  N1  UNL     1      24.351  25.523  11.424  1.00  0.00    -0.062 NA
HETATM    9  O1  UNL     1      24.294  27.716  12.216  1.00  0.00    -0.277 OA
ENDBRANCH   6   7
ENDBRANCH   5   6
BRANCH   5  10
HETATM   10  C19 UNL     1      20.139  27.854  11.354  1.00  0.00    -0.032 A 
HETATM   11  C20 UNL     1      19.910  26.849  10.463  1.00  0.00     0.033 A 
HETATM   12  C21 UNL     1      18.666  26.664   9.877  1.00  0.00     0.036 A 
HETATM   13 CL2  UNL     1      18.409  25.379   8.741  1.00  0.00    -0.084 Cl
HETATM   14  C22 UNL     1      17.644  27.513  10.202  1.00  0.00     0.047 A 
HETATM   15  C23 UNL     1      17.850  28.548  11.108  1.00  0.00     0.036 A 
HETATM   16 CL3  UNL     1      16.516  29.602  11.499  1.00  0.00    -0.084 Cl
HETATM   17  C24 UNL     1      19.131  28.709  11.688  1.00  0.00     0.033 A 
ENDBRANCH   5  10
ENDBRANCH   3   5
ENDBRANCH   1   3
BRANCH   1  18
HETATM   18  C5  UNL     1      22.408  30.298  13.392  1.00  0.00     0.061 C 
BRANCH  18  19
HETATM   19  C6  UNL     1      22.353  31.736  13.728  1.00  0.00     0.008 C 
BRANCH  19  20
HETATM   20  C7  UNL     1      23.470  32.099  14.697  1.00  0.00     0.020 C 
BRANCH  20  21
HETATM   21  C8  UNL     1      22.972  32.669  15.999  1.00  0.00     0.122 C 
BRANCH  21  22
HETATM   22  N3  UNL     1      22.385  33.945  15.740  1.00  0.00    -0.367 N 
HETATM   23  C9  UNL     1      21.775  34.681  16.545  1.00  0.00     0.196 C 
HETATM   24  N4  UNL     1      21.574  34.324  17.924  1.00  0.00    -0.067 NA
HETATM   25  N5  UNL     1      21.218  35.939  16.128  1.00  0.00    -0.067 NA
ATOM     26  H3  UNL     1      22.473  34.296  14.786  1.00  0.00     0.161 HD
ENDBRANCH  21  22
ENDBRANCH  20  21
ENDBRANCH  19  20
ENDBRANCH  18  19
ENDBRANCH   1  18
BRANCH   2  27
HETATM   27  O2  UNL     1      20.307  28.730  15.976  1.00  0.00    -0.345 OA
ATOM     28  H2  UNL     1      21.083  28.231  16.201  1.00  0.00     0.219 HD
ENDBRANCH   2  27
BRANCH   2  29
HETATM   29  N6  UNL     1      19.724  30.797  15.318  1.00  0.00    -0.357 N 
HETATM   30  C11 UNL     1      18.954  31.539  14.390  1.00  0.00     0.145 C 
HETATM   31  C12 UNL     1      19.002  33.040  14.656  1.00  0.00     0.161 C 
HETATM   32  N7  UNL     1      18.451  33.300  15.981  1.00  0.00    -0.214 N 
HETATM   33  C17 UNL     1      18.505  32.228  16.929  1.00  0.00     0.161 C 
HETATM   34  C18 UNL     1      19.653  31.310  16.709  1.00  0.00     0.145 C 
BRANCH  32  35
HETATM   35  C13 UNL     1      17.894  34.547  16.304  1.00  0.00     0.680 A 
HETATM   36  N8  UNL     1      18.396  35.216  17.379  1.00  0.00    -0.200 N 
HETATM   37  C14 UNL     1      17.887  36.412  17.725  1.00  0.00     0.131 A 
ATOM     38  H8  UNL     1      19.158  34.811  17.922  1.00  0.00     0.183 HD
HETATM   39  C15 UNL     1      16.862  36.951  16.987  1.00  0.00     0.065 A 
HETATM   40 CL1  UNL     1      16.184  38.515  17.425  1.00  0.00    -0.081 Cl
HETATM   41  C16 UNL     1      16.370  36.235  15.889  1.00  0.00     0.131 A 
HETATM   42  N9  UNL     1      16.897  35.050  15.573  1.00  0.00    -0.200 N 
ATOM     43  H9  UNL     1      16.539  34.529  14.773  1.00  0.00     0.183 HD
ENDBRANCH  32  35
ENDBRANCH   2  29
TORSDOF 13
ENDMDL
MODEL 2
REMARK VINA RESULT: -9.162492501      0.320      1.580
REMARK  13 active torsions:
REMARK  status: ('A' for Active; 'I' for Inactive)
REMARK    1  A    between atoms: C1_2  and  C2_4 
REMARK    2  A    between atoms: C2_4  and  C3_5 
REMARK    3  A    between atoms: C3_5  and  N2_6 
REMARK    4  A    between atoms: C3_5  and  C19_36 
REMARK    5  A    between atoms: N2_6  and  C4_8 
REMARK    6  A    between atoms: C4_8  and  C5_9 
REMARK    7  A    between atoms: C5_9  and  C6_10 
REMARK    8  A    between atoms: C6_10  and  C7_11 
REMARK    9  A    between atoms: C7_11  and  C8_12 
REMARK   10  A    between atoms: C8_12  and  N3_13 
REMARK   11  A    between atoms: C10_18  and  O2_19 
REMARK   12  A    between atoms: C10_18  and  N6_21 
REMARK   13  A    between atoms: N7_24  and  C13_25 
ROOT
HETATM    1  C4  UNL     1      21.527  29.284  14.131  1.00  0.00     0.057 C 
HETATM    2  C10 UNL     1      20.517  29.619  15.097  1.00  0.00     0.161 C 
ENDROOT
BRANCH   1   3
HETATM    3  N2  UNL     1      21.335  28.127  13.364  1.00  0.00    -0.381 N 
ATOM      4  H2  UNL     1      21.065  27.292  13.885  1.00  0.00     0.160 HD
BRANCH   3   5
HETATM    5  C3  UNL     1      21.462  27.965  11.993  1.00  0.00     0.123 C 
BRANCH   5   6
HETATM    6  C2  UNL     1      22.210  26.704  11.637  1.00  0.00     0.129 C 
BRANCH   6   7
HETATM    7  C1  UNL     1      23.667  26.759  11.798  1.00  0.00     0.233 C 
HETATM    8  N1  UNL     1      24.376  25.561  11.429  1.00  0.00    -0.062 NA
HETATM    9  O1  UNL     1      24.259  27.754  12.218  1.00  0.00    -0.277 OA
ENDBRANCH   6   7
ENDBRANCH   5   6
BRANCH   5  10
HETATM   10  C19 UNL     1      20.097  27.785  11.356  1.00  0.00    -0.032 A 
HETATM   11  C20 UNL     1      19.078  28.629  11.679  1.00  0.00     0.033 A 
HETATM   12  C21 UNL     1      17.826  28.518  11.090  1.00  0.00     0.036 A 
HETATM   13 CL2  UNL     1      16.546  29.604  11.528  1.00  0.00    -0.084 Cl
HETATM   14  C22 UNL     1      17.612  27.536  10.162  1.00  0.00     0.047 A 
HETATM   15  C23 UNL     1      18.635  26.660   9.815  1.00  0.00     0.036 A 
HETATM   16 CL3  UNL     1      18.318  25.427   8.621  1.00  0.00    -0.084 Cl
HETATM   17  C24 UNL     1      19.900  26.801  10.435  1.00  0.00     0.033 A 
ENDBRANCH   5  10
ENDBRANCH   3   5
ENDBRANCH   1   3
BRANCH   1  18
HETATM   18  C5  UNL     1      22.354  30.258  13.401  1.00  0.00     0.061 C 
BRANCH  18  19
HETATM   19  C6  UNL     1      22.337  31.682  13.799  1.00  0.00     0.008 C 
BRANCH  19  20
HETATM   20  C7  UNL     1      23.276  31.917  14.973  1.00  0.00     0.020 C 
BRANCH  20  21
HETATM   21  C8  UNL     1      23.484  33.374  15.291  1.00  0.00     0.122 C 
BRANCH  21  22
HETATM   22  N3  UNL     1      22.851  33.662  16.538  1.00  0.00    -0.367 N 
HETATM   23  C9  UNL     1      21.898  34.443  16.748  1.00  0.00     0.196 C 
HETATM   24  N4  UNL     1      21.271  35.201  15.698  1.00  0.00    -0.067 NA
HETATM   25  N5  UNL     1      21.378  34.644  18.073  1.00  0.00    -0.067 NA
ATOM     26  H3  UNL     1      23.219  33.172  17.354  1.00  0.00     0.161 HD
ENDBRANCH  21  22
ENDBRANCH  20  21
ENDBRANCH  19  20
ENDBRANCH  18  19
ENDBRANCH   1  18
BRANCH   2  27
HETATM   27  O2  UNL     1      20.295  28.635  15.986  1.00  0.00    -0.345 OA
ATOM     28  H2  UNL     1      19.673  27.988  15.675  1.00  0.00     0.219 HD
ENDBRANCH   2  27
BRANCH   2  29
HETATM   29  N6  UNL     1      19.683  30.704  15.358  1.00  0.00    -0.357 N 
HETATM   30  C11 UNL     1      18.775  31.347  14.483  1.00  0.00     0.145 C 
HETATM   31  C12 UNL     1      18.793  32.865  14.632  1.00  0.00     0.161 C 
HETATM   32  N7  UNL     1      18.398  33.208  15.993  1.00  0.00    -0.214 N 
HETATM   33  C17 UNL     1      18.612  32.215  17.002  1.00  0.00     0.161 C 
HETATM   34  C18 UNL     1      19.761  31.320  16.706  1.00  0.00     0.145 C 
BRANCH  32  35
HETATM   35  C13 UNL     1      17.832  34.457  16.293  1.00  0.00     0.680 A 
HETATM   36  N8  UNL     1      18.431  35.221  17.248  1.00  0.00    -0.200 N 
HETATM   37  C14 UNL     1      17.919  36.422  17.567  1.00  0.00     0.131 A 
ATOM     38  H8  UNL     1      19.268  34.882  17.721  1.00  0.00     0.183 HD
HETATM   39  C15 UNL     1      16.792  36.871  16.924  1.00  0.00     0.065 A 
HETATM   40 CL1  UNL     1      16.107  38.441  17.328  1.00  0.00    -0.081 Cl
HETATM   41  C16 UNL     1      16.202  36.059  15.947  1.00  0.00     0.131 A 
HETATM   42  N9  UNL     1      16.736  34.872  15.654  1.00  0.00    -0.200 N 
ATOM     43  H9  UNL     1      16.306  34.281  14.942  1.00  0.00     0.183 HD
ENDBRANCH  32  35
ENDBRANCH   2  29
TORSDOF 13
ENDMDL
MODEL 3
REMARK VINA RESULT: -8.650721296      2.316      3.462
REMARK  13 active torsions:
REMARK  status: ('A' for Active; 'I' for Inactive)
REMARK    1  A    between atoms: C1_2  and  C2_4 
REMARK    2  A    between atoms: C2_4  and  C3_5 
REMARK    3  A    between atoms: C3_5  and  N2_6 
REMARK    4  A    between atoms: C3_5  and  C19_36 
REMARK    5  A    between atoms: N2_6  and  C4_8 
REMARK    6  A    between atoms: C4_8  and  C5_9 
REMARK    7  A    between atoms: C5_9  and  C6_10 
REMARK    8  A    between atoms: C6_10  and  C7_11 
REMARK    9  A    between atoms: C7_11  and  C8_12 
REMARK   10  A    between atoms: C8_12  and  N3_13 
REMARK   11  A    between atoms: C10_18  and  O2_19 
REMARK   12  A    between atoms: C10_18  and  N6_21 
REMARK   13  A    between atoms: N7_24  and  C13_25 
ROOT
HETATM    1  C4  UNL     1      20.802  28.573  13.680  1.00  0.00     0.057 C 
HETATM    2  C10 UNL     1      19.631  29.066  14.352  1.00  0.00     0.161 C 
ENDROOT
BRANCH   1   3
HETATM    3  N2  UNL     1      20.624  27.951  12.437  1.00  0.00    -0.381 N 
ATOM      4  H2  UNL     1      20.529  28.578  11.638  1.00  0.00     0.160 HD
BRANCH   3   5
HETATM    5  C3  UNL     1      20.561  26.596  12.147  1.00  0.00     0.123 C 
BRANCH   5   6
HETATM    6  C2  UNL     1      19.313  26.238  11.377  1.00  0.00     0.129 C 
BRANCH   6   7
HETATM    7  C1  UNL     1      18.451  27.362  11.000  1.00  0.00     0.233 C 
HETATM    8  N1  UNL     1      18.578  27.810   9.638  1.00  0.00    -0.062 NA
HETATM    9  O1  UNL     1      17.666  27.899  11.783  1.00  0.00    -0.277 OA
ENDBRANCH   6   7
ENDBRANCH   5   6
BRANCH   5  10
HETATM   10  C19 UNL     1      21.698  26.202  11.225  1.00  0.00    -0.032 A 
HETATM   11  C20 UNL     1      21.441  25.504  10.084  1.00  0.00     0.033 A 
HETATM   12  C21 UNL     1      22.452  25.157   9.198  1.00  0.00     0.036 A 
HETATM   13 CL2  UNL     1      22.092  24.261   7.757  1.00  0.00    -0.084 Cl
HETATM   14  C22 UNL     1      23.738  25.527   9.479  1.00  0.00     0.047 A 
HETATM   15  C23 UNL     1      24.029  26.241  10.637  1.00  0.00     0.036 A 
HETATM   16 CL3  UNL     1      25.684  26.698  10.950  1.00  0.00    -0.084 Cl
HETATM   17  C24 UNL     1      22.975  26.577  11.520  1.00  0.00     0.033 A 
ENDBRANCH   5  10
ENDBRANCH   3   5
ENDBRANCH   1   3
BRANCH   1  18
HETATM   18  C5  UNL     1      22.145  29.167  13.775  1.00  0.00     0.061 C 
BRANCH  18  19
HETATM   19  C6  UNL     1      22.597  30.131  12.750  1.00  0.00     0.008 C 
BRANCH  19  20
HETATM   20  C7  UNL     1      21.947  31.490  12.975  1.00  0.00     0.020 C 
BRANCH  20  21
HETATM   21  C8  UNL     1      22.558  32.264  14.114  1.00  0.00     0.122 C 
BRANCH  21  22
HETATM   22  N3  UNL     1      21.652  33.301  14.494  1.00  0.00    -0.367 N 
HETATM   23  C9  UNL     1      21.542  33.844  15.614  1.00  0.00     0.196 C 
HETATM   24  N4  UNL     1      22.363  33.480  16.738  1.00  0.00    -0.067 NA
HETATM   25  N5  UNL     1      20.562  34.869  15.851  1.00  0.00    -0.067 NA
ATOM     26  H3  UNL     1      21.022  33.637  13.766  1.00  0.00     0.161 HD
ENDBRANCH  21  22
ENDBRANCH  20  21
ENDBRANCH  19  20
ENDBRANCH  18  19
ENDBRANCH   1  18
BRANCH   2  27
HETATM   27  O2  UNL     1      18.705  28.115  14.559  1.00  0.00    -0.345 OA
ATOM     28  H2  UNL     1      19.055  27.235  14.489  1.00  0.00     0.219 HD
ENDBRANCH   2  27
BRANCH   2  29
HETATM   29  N6  UNL     1      19.186  30.290  14.846  1.00  0.00    -0.357 N 
HETATM   30  C11 UNL     1      19.495  30.905  16.084  1.00  0.00     0.145 C 
HETATM   31  C12 UNL     1      18.282  31.570  16.727  1.00  0.00     0.161 C 
HETATM   32  N7  UNL     1      17.791  32.614  15.836  1.00  0.00    -0.214 N 
HETATM   33  C17 UNL     1      18.091  32.474  14.443  1.00  0.00     0.161 C 
HETATM   34  C18 UNL     1      18.227  31.058  14.013  1.00  0.00     0.145 C 
BRANCH  32  35
HETATM   35  C13 UNL     1      17.058  33.705  16.330  1.00  0.00     0.680 A 
HETATM   36  N8  UNL     1      16.023  33.453  17.179  1.00  0.00    -0.200 N 
HETATM   37  C14 UNL     1      15.295  34.469  17.671  1.00  0.00     0.131 A 
ATOM     38  H8  UNL     1      15.802  32.493  17.442  1.00  0.00     0.183 HD
HETATM   39  C15 UNL     1      15.601  35.759  17.313  1.00  0.00     0.065 A 
HETATM   40 CL1  UNL     1      14.658  37.102  17.948  1.00  0.00    -0.081 Cl
HETATM   41  C16 UNL     1      16.671  35.981  16.437  1.00  0.00     0.131 A 
HETATM   42  N9  UNL     1      17.375  34.949  15.967  1.00  0.00    -0.200 N 
ATOM     43  H9  UNL     1      18.154  35.112  15.329  1.00  0.00     0.183 HD
ENDBRANCH  32  35
ENDBRANCH   2  29
TORSDOF 13
ENDMDL
MODEL 4
REMARK VINA RESULT: -8.590140804      2.309      3.578
REMARK  13 active torsions:
REMARK  status: ('A' for Active; 'I' for Inactive)
REMARK    1  A    between atoms: C1_2  and  C2_4 
REMARK    2  A    between atoms: C2_4  and  C3_5 
REMARK    3  A    between atoms: C3_5  and  N2_6 
REMARK    4  A    between atoms: C3_5  and  C19_36 
REMARK    5  A    between atoms: N2_6  and  C4_8 
REMARK    6  A    between atoms: C4_8  and  C5_9 
REMARK    7  A    between atoms: C5_9  and  C6_10 
REMARK    8  A    between atoms: C6_10  and  C7_11 
REMARK    9  A    between atoms: C7_11  and  C8_12 
REMARK   10  A    between atoms: C8_12  and  N3_13 
REMARK   11  A    between atoms: C10_18  and  O2_19 
REMARK   12  A    between atoms: C10_18  and  N6_21 
REMARK   13  A    between atoms: N7_24  and  C13_25 
ROOT
HETATM    1  C4  UNL     1      20.816  28.532  13.645  1.00  0.00     0.057 C 
HETATM    2  C10 UNL     1      19.666  29.041  14.342  1.00  0.00     0.161 C 
ENDROOT
BRANCH   1   3
HETATM    3  N2  UNL     1      20.606  27.933  12.395  1.00  0.00    -0.381 N 
ATOM      4  H2  UNL     1      20.491  28.575  11.611  1.00  0.00     0.160 HD
BRANCH   3   5
HETATM    5  C3  UNL     1      20.534  26.584  12.083  1.00  0.00     0.123 C 
BRANCH   5   6
HETATM    6  C2  UNL     1      19.263  26.238  11.346  1.00  0.00     0.129 C 
BRANCH   6   7
HETATM    7  C1  UNL     1      18.405  27.372  10.988  1.00  0.00     0.233 C 
HETATM    8  N1  UNL     1      18.515  27.824   9.625  1.00  0.00    -0.062 NA
HETATM    9  O1  UNL     1      17.637  27.913  11.785  1.00  0.00    -0.277 OA
ENDBRANCH   6   7
ENDBRANCH   5   6
BRANCH   5  10
HETATM   10  C19 UNL     1      21.642  26.208  11.118  1.00  0.00    -0.032 A 
HETATM   11  C20 UNL     1      22.931  26.554  11.391  1.00  0.00     0.033 A 
HETATM   12  C21 UNL     1      23.976  26.197  10.550  1.00  0.00     0.036 A 
HETATM   13 CL2  UNL     1      25.605  26.660  10.923  1.00  0.00    -0.084 Cl
HETATM   14  C22 UNL     1      23.703  25.479   9.419  1.00  0.00     0.047 A 
HETATM   15  C23 UNL     1      22.396  25.112   9.115  1.00  0.00     0.036 A 
HETATM   16 CL3  UNL     1      22.096  24.189   7.665  1.00  0.00    -0.084 Cl
HETATM   17  C24 UNL     1      21.354  25.493   9.994  1.00  0.00     0.033 A 
ENDBRANCH   5  10
ENDBRANCH   3   5
ENDBRANCH   1   3
BRANCH   1  18
HETATM   18  C5  UNL     1      22.172  29.095  13.728  1.00  0.00     0.061 C 
BRANCH  18  19
HETATM   19  C6  UNL     1      22.635  30.056  12.704  1.00  0.00     0.008 C 
BRANCH  19  20
HETATM   20  C7  UNL     1      22.031  31.431  12.954  1.00  0.00     0.020 C 
BRANCH  20  21
HETATM   21  C8  UNL     1      22.651  32.154  14.121  1.00  0.00     0.122 C 
BRANCH  21  22
HETATM   22  N3  UNL     1      21.800  33.241  14.485  1.00  0.00    -0.367 N 
HETATM   23  C9  UNL     1      21.631  33.728  15.623  1.00  0.00     0.196 C 
HETATM   24  N4  UNL     1      22.315  33.235  16.789  1.00  0.00    -0.067 NA
HETATM   25  N5  UNL     1      20.717  34.817  15.838  1.00  0.00    -0.067 NA
ATOM     26  H3  UNL     1      21.267  33.669  13.728  1.00  0.00     0.161 HD
ENDBRANCH  21  22
ENDBRANCH  20  21
ENDBRANCH  19  20
ENDBRANCH  18  19
ENDBRANCH   1  18
BRANCH   2  27
HETATM   27  O2  UNL     1      18.722  28.106  14.549  1.00  0.00    -0.345 OA
ATOM     28  H2  UNL     1      17.903  28.471  14.863  1.00  0.00     0.219 HD
ENDBRANCH   2  27
BRANCH   2  29
HETATM   29  N6  UNL     1      19.255  30.266  14.860  1.00  0.00    -0.357 N 
HETATM   30  C11 UNL     1      19.590  30.853  16.105  1.00  0.00     0.145 C 
HETATM   31  C12 UNL     1      18.400  31.535  16.771  1.00  0.00     0.161 C 
HETATM   32  N7  UNL     1      17.926  32.605  15.903  1.00  0.00    -0.214 N 
HETATM   33  C17 UNL     1      18.210  32.483  14.505  1.00  0.00     0.161 C 
HETATM   34  C18 UNL     1      18.308  31.071  14.050  1.00  0.00     0.145 C 
BRANCH  32  35
HETATM   35  C13 UNL     1      17.224  33.705  16.422  1.00  0.00     0.680 A 
HETATM   36  N8  UNL     1      17.597  34.953  16.020  1.00  0.00    -0.200 N 
HETATM   37  C14 UNL     1      16.953  36.032  16.496  1.00  0.00     0.131 A 
ATOM     38  H8  UNL     1      18.364  35.067  15.358  1.00  0.00     0.183 HD
HETATM   39  C15 UNL     1      15.920  35.868  17.385  1.00  0.00     0.065 A 
HETATM   40 CL1  UNL     1      15.066  37.270  18.019  1.00  0.00    -0.081 Cl
HETATM   41  C16 UNL     1      15.564  34.571  17.776  1.00  0.00     0.131 A 
HETATM   42  N9  UNL     1      16.224  33.521  17.285  1.00  0.00    -0.200 N 
ATOM     43  H9  UNL     1      15.964  32.576  17.570  1.00  0.00     0.183 HD
ENDBRANCH  32  35
ENDBRANCH   2  29
TORSDOF 13
ENDMDL
MODEL 5
REMARK VINA RESULT: -8.516252388      2.269      3.564
REMARK  13 active torsions:
REMARK  status: ('A' for Active; 'I' for Inactive)
REMARK    1  A    between atoms: C1_2  and  C2_4 
REMARK    2  A    between atoms: C2_4  and  C3_5 
REMARK    3  A    between atoms: C3_5  and  N2_6 
REMARK    4  A    between atoms: C3_5  and  C19_36 
REMARK    5  A    between atoms: N2_6  and  C4_8 
REMARK    6  A    between atoms: C4_8  and  C5_9 
REMARK    7  A    between atoms: C5_9  and  C6_10 
REMARK    8  A    between atoms: C6_10  and  C7_11 
REMARK    9  A    between atoms: C7_11  and  C8_12 
REMARK   10  A    between atoms: C8_12  and  N3_13 
REMARK   11  A    between atoms: C10_18  and  O2_19 
REMARK   12  A    between atoms: C10_18  and  N6_21 
REMARK   13  A    between atoms: N7_24  and  C13_25 
ROOT
HETATM    1  C4  UNL     1      20.977  28.768  13.624  1.00  0.00     0.057 C 
HETATM    2  C10 UNL     1      19.831  29.202  14.373  1.00  0.00     0.161 C 
ENDROOT
BRANCH   1   3
HETATM    3  N2  UNL     1      20.748  28.082  12.423  1.00  0.00    -0.381 N 
ATOM      4  H2  UNL     1      20.590  28.668  11.603  1.00  0.00     0.160 HD
BRANCH   3   5
HETATM    5  C3  UNL     1      20.707  26.714  12.201  1.00  0.00     0.123 C 
BRANCH   5   6
HETATM    6  C2  UNL     1      19.423  26.285  11.533  1.00  0.00     0.129 C 
BRANCH   6   7
HETATM    7  C1  UNL     1      18.453  27.353  11.271  1.00  0.00     0.233 C 
HETATM    8  N1  UNL     1      18.482  27.902   9.941  1.00  0.00    -0.062 NA
HETATM    9  O1  UNL     1      17.659  27.763  12.119  1.00  0.00    -0.277 OA
ENDBRANCH   6   7
ENDBRANCH   5   6
BRANCH   5  10
HETATM   10  C19 UNL     1      21.793  26.307  11.225  1.00  0.00    -0.032 A 
HETATM   11  C20 UNL     1      23.091  26.643  11.470  1.00  0.00     0.033 A 
HETATM   12  C21 UNL     1      24.117  26.257  10.618  1.00  0.00     0.036 A 
HETATM   13 CL2  UNL     1      25.757  26.707  10.954  1.00  0.00    -0.084 Cl
HETATM   14  C22 UNL     1      23.816  25.522   9.505  1.00  0.00     0.047 A 
HETATM   15  C23 UNL     1      22.499  25.165   9.231  1.00  0.00     0.036 A 
HETATM   16 CL3  UNL     1      22.164  24.220   7.803  1.00  0.00    -0.084 Cl
HETATM   17  C24 UNL     1      21.477  25.575  10.119  1.00  0.00     0.033 A 
ENDBRANCH   5  10
ENDBRANCH   3   5
ENDBRANCH   1   3
BRANCH   1  18
HETATM   18  C5  UNL     1      22.274  29.462  13.585  1.00  0.00     0.061 C 
BRANCH  18  19
HETATM   19  C6  UNL     1      22.336  30.882  13.181  1.00  0.00     0.008 C 
BRANCH  19  20
HETATM   20  C7  UNL     1      22.932  31.727  14.299  1.00  0.00     0.020 C 
BRANCH  20  21
HETATM   21  C8  UNL     1      22.290  33.083  14.431  1.00  0.00     0.122 C 
BRANCH  21  22
HETATM   22  N3  UNL     1      22.471  33.542  15.771  1.00  0.00    -0.367 N 
HETATM   23  C9  UNL     1      21.733  34.314  16.419  1.00  0.00     0.196 C 
HETATM   24  N4  UNL     1      20.525  34.874  15.873  1.00  0.00    -0.067 NA
HETATM   25  N5  UNL     1      22.060  34.704  17.764  1.00  0.00    -0.067 NA
ATOM     26  H3  UNL     1      23.302  33.201  16.255  1.00  0.00     0.161 HD
ENDBRANCH  21  22
ENDBRANCH  20  21
ENDBRANCH  19  20
ENDBRANCH  18  19
ENDBRANCH   1  18
BRANCH   2  27
HETATM   27  O2  UNL     1      18.999  28.195  14.691  1.00  0.00    -0.345 OA
ATOM     28  H2  UNL     1      18.161  28.497  15.024  1.00  0.00     0.219 HD
ENDBRANCH   2  27
BRANCH   2  29
HETATM   29  N6  UNL     1      19.335  30.410  14.858  1.00  0.00    -0.357 N 
HETATM   30  C11 UNL     1      19.628  31.054  16.085  1.00  0.00     0.145 C 
HETATM   31  C12 UNL     1      18.393  31.669  16.734  1.00  0.00     0.161 C 
HETATM   32  N7  UNL     1      17.844  32.679  15.837  1.00  0.00    -0.214 N 
HETATM   33  C17 UNL     1      18.135  32.536  14.442  1.00  0.00     0.161 C 
HETATM   34  C18 UNL     1      18.331  31.123  14.028  1.00  0.00     0.145 C 
BRANCH  32  35
HETATM   35  C13 UNL     1      17.067  33.741  16.327  1.00  0.00     0.680 A 
HETATM   36  N8  UNL     1      16.106  33.461  17.251  1.00  0.00    -0.200 N 
HETATM   37  C14 UNL     1      15.339  34.449  17.742  1.00  0.00     0.131 A 
ATOM     38  H8  UNL     1      15.970  32.503  17.571  1.00  0.00     0.183 HD
HETATM   39  C15 UNL     1      15.531  35.737  17.307  1.00  0.00     0.065 A 
HETATM   40 CL1  UNL     1      14.535  37.044  17.939  1.00  0.00    -0.081 Cl
HETATM   41  C16 UNL     1      16.528  35.988  16.356  1.00  0.00     0.131 A 
HETATM   42  N9  UNL     1      17.272  34.984  15.888  1.00  0.00    -0.200 N 
ATOM     43  H9  UNL     1      17.998  35.167  15.195  1.00  0.00     0.183 HD
ENDBRANCH  32  35
ENDBRANCH   2  29
TORSDOF 13
ENDMDL
