MODEL 1
REMARK VINA RESULT: -9.207080818      0.000      0.000
REMARK  12 active torsions:
REMARK  status: ('A' for Active; 'I' for Inactive)
REMARK    1  A    between atoms: C1_2  and  C2_3 
REMARK       I    between atoms: C1_2  and  N3_12 
REMARK    2  A    between atoms: C2_3  and  C3_4 
REMARK    3  A    between atoms: N3_12  and  C6_14 
REMARK    4  A    between atoms: C6_14  and  C7_15 
REMARK    5  A    between atoms: C7_15  and  C8_16 
REMARK    6  A    between atoms: C8_16  and  C9_17 
REMARK    7  A    between atoms: C9_17  and  C10_18 
REMARK    8  A    between atoms: C10_18  and  C11_19 
REMARK    9  A    between atoms: C11_19  and  C12_20 
REMARK   10  A    between atoms: N4_23  and  C14_24 
REMARK   11  A    between atoms: C16_28  and  C17_29 
REMARK   12  A    between atoms: C21_37  and  C22_38 
REMARK       I    between atoms: C22_38  and  N6_40 
ROOT
HETATM    1  C12 UNL     1      18.592  33.362  16.590  1.00  0.00     0.093 C 
HETATM    2  C13 UNL     1      18.944  31.900  16.208  1.00  0.00     0.230 C 
HETATM    3  O2  UNL     1      19.530  31.078  16.975  1.00  0.00    -0.273 OA
HETATM    4  N4  UNL     1      18.483  31.725  14.890  1.00  0.00    -0.301 N 
HETATM    5  C20 UNL     1      17.906  32.993  14.417  1.00  0.00     0.148 C 
HETATM    6  C21 UNL     1      17.389  33.487  15.763  1.00  0.00     0.109 C 
ENDROOT
BRANCH   1   7
HETATM    7  C11 UNL     1      19.859  34.075  16.336  1.00  0.00     0.015 C 
BRANCH   7   8
HETATM    8  C10 UNL     1      20.746  34.399  17.465  1.00  0.00     0.001 C 
BRANCH   8   9
HETATM    9  C9  UNL     1      22.063  33.668  17.534  1.00  0.00     0.000 C 
BRANCH   9  10
HETATM   10  C8  UNL     1      22.603  33.356  16.198  1.00  0.00     0.002 C 
BRANCH  10  11
HETATM   11  C7  UNL     1      22.797  31.858  15.953  1.00  0.00     0.020 C 
BRANCH  11  12
HETATM   12  C6  UNL     1      22.348  31.468  14.587  1.00  0.00     0.122 C 
BRANCH  12  13
HETATM   13  N3  UNL     1      22.417  30.030  14.429  1.00  0.00    -0.361 N 
HETATM   14  C1  UNL     1      22.481  29.452  13.114  1.00  0.00     0.223 C 
HETATM   15  O1  UNL     1      22.517  30.223  12.128  1.00  0.00    -0.273 OA
ATOM     16  H3  UNL     1      22.419  29.426  15.252  1.00  0.00     0.162 HD
BRANCH  14  17
HETATM   17  C2  UNL     1      22.501  28.003  12.942  1.00  0.00     0.163 C 
BRANCH  17  18
HETATM   18  C3  UNL     1      23.019  27.586  11.634  1.00  0.00     0.057 A 
HETATM   19  N1  UNL     1      22.276  27.559  10.508  1.00  0.00    -0.303 N 
HETATM   20  N2  UNL     1      23.065  27.189   9.539  1.00  0.00    -0.310 N 
ATOM     21  H1  UNL     1      21.284  27.787  10.429  1.00  0.00     0.186 HD
HETATM   22  C4  UNL     1      24.318  26.954   9.953  1.00  0.00     0.133 A 
ATOM     23  H2  UNL     1      22.761  27.087   8.570  1.00  0.00     0.186 HD
HETATM   24  C5  UNL     1      24.295  27.208  11.318  1.00  0.00     0.075 A 
HETATM   25 CL1  UNL     1      25.663  27.065  12.399  1.00  0.00    -0.081 Cl
ENDBRANCH  17  18
ENDBRANCH  14  17
ENDBRANCH  12  13
ENDBRANCH  11  12
ENDBRANCH  10  11
ENDBRANCH   9  10
ENDBRANCH   8   9
ENDBRANCH   7   8
ENDBRANCH   1   7
BRANCH   6  26
HETATM   26  C22 UNL     1      16.502  34.606  15.764  1.00  0.00     0.226 C 
HETATM   27  O3  UNL     1      16.230  35.283  14.750  1.00  0.00    -0.273 OA
HETATM   28  N6  UNL     1      15.854  35.037  16.951  1.00  0.00    -0.352 N 
HETATM   29  C23 UNL     1      16.004  34.480  18.275  1.00  0.00     0.126 C 
HETATM   30  C26 UNL     1      14.921  36.168  17.114  1.00  0.00     0.126 C 
HETATM   31  C24 UNL     1      15.749  35.622  19.243  1.00  0.00     0.021 C 
HETATM   32  C25 UNL     1      15.584  36.831  18.333  1.00  0.00     0.021 C 
ENDBRANCH   6  26
BRANCH   4  33
HETATM   33  C14 UNL     1      18.559  30.521  14.171  1.00  0.00     0.132 A 
HETATM   34  N5  UNL     1      18.046  29.398  14.715  1.00  0.00    -0.350 N 
HETATM   35  C15 UNL     1      18.066  28.230  13.994  1.00  0.00     0.106 A 
ATOM     36  H5  UNL     1      17.647  29.416  15.653  1.00  0.00     0.166 HD
HETATM   37  C16 UNL     1      18.605  28.186  12.716  1.00  0.00     0.065 A 
HETATM   38  C18 UNL     1      19.131  29.318  12.141  1.00  0.00     0.045 A 
HETATM   39  C19 UNL     1      19.097  30.491  12.897  1.00  0.00     0.079 A 
HETATM   40 CL2  UNL     1      19.739  31.931  12.179  1.00  0.00    -0.080 Cl
BRANCH  37  41
HETATM   41  C17 UNL     1      18.545  26.883  12.008  1.00  0.00     0.418 C 
HETATM   42  F1  UNL     1      19.781  26.347  11.840  1.00  0.00    -0.166 F 
HETATM   43  F2  UNL     1      18.004  27.153  10.736  1.00  0.00    -0.166 F 
HETATM   44  F3  UNL     1      17.656  26.065  12.681  1.00  0.00    -0.166 F 
ENDBRANCH  37  41
ENDBRANCH   4  33
TORSDOF 12
ENDMDL
MODEL 2
REMARK VINA RESULT: -9.197115951      3.764      8.530
REMARK  12 active torsions:
REMARK  status: ('A' for Active; 'I' for Inactive)
REMARK    1  A    between atoms: C1_2  and  C2_3 
REMARK       I    between atoms: C1_2  and  N3_12 
REMARK    2  A    between atoms: C2_3  and  C3_4 
REMARK    3  A    between atoms: N3_12  and  C6_14 
REMARK    4  A    between atoms: C6_14  and  C7_15 
REMARK    5  A    between atoms: C7_15  and  C8_16 
REMARK    6  A    between atoms: C8_16  and  C9_17 
REMARK    7  A    between atoms: C9_17  and  C10_18 
REMARK    8  A    between atoms: C10_18  and  C11_19 
REMARK    9  A    between atoms: C11_19  and  C12_20 
REMARK   10  A    between atoms: N4_23  and  C14_24 
REMARK   11  A    between atoms: C16_28  and  C17_29 
REMARK   12  A    between atoms: C21_37  and  C22_38 
REMARK       I    between atoms: C22_38  and  N6_40 
ROOT
HETATM    1  C12 UNL     1      19.843  25.816  10.514  1.00  0.00     0.093 C 
HETATM    2  C13 UNL     1      19.830  27.244  11.123  1.00  0.00     0.230 C 
HETATM    3  O2  UNL     1      20.567  28.199  10.733  1.00  0.00    -0.273 OA
HETATM    4  N4  UNL     1      18.864  27.217  12.146  1.00  0.00    -0.301 N 
HETATM    5  C20 UNL     1      18.307  25.858  12.237  1.00  0.00     0.148 C 
HETATM    6  C21 UNL     1      18.435  25.494  10.763  1.00  0.00     0.109 C 
ENDROOT
BRANCH   1   7
HETATM    7  C11 UNL     1      20.980  25.181  11.208  1.00  0.00     0.015 C 
BRANCH   7   8
HETATM    8  C10 UNL     1      22.268  25.043  10.508  1.00  0.00     0.001 C 
BRANCH   8   9
HETATM    9  C9  UNL     1      23.467  25.704  11.140  1.00  0.00     0.000 C 
BRANCH   9  10
HETATM   10  C8  UNL     1      24.059  26.740  10.274  1.00  0.00     0.002 C 
BRANCH  10  11
HETATM   11  C7  UNL     1      24.194  28.103  10.958  1.00  0.00     0.020 C 
BRANCH  11  12
HETATM   12  C6  UNL     1      23.519  28.114  12.286  1.00  0.00     0.122 C 
BRANCH  12  13
HETATM   13  N3  UNL     1      22.992  29.434  12.568  1.00  0.00    -0.361 N 
HETATM   14  C1  UNL     1      22.173  29.648  13.731  1.00  0.00     0.223 C 
HETATM   15  O1  UNL     1      21.970  28.681  14.500  1.00  0.00    -0.273 OA
ATOM     16  H3  UNL     1      23.201  30.212  11.941  1.00  0.00     0.162 HD
BRANCH  14  17
HETATM   17  C2  UNL     1      21.596  30.962  13.997  1.00  0.00     0.163 C 
BRANCH  17  18
HETATM   18  C3  UNL     1      21.804  31.411  15.378  1.00  0.00     0.057 A 
HETATM   19  N1  UNL     1      21.001  31.066  16.407  1.00  0.00    -0.303 N 
HETATM   20  N2  UNL     1      21.508  31.601  17.482  1.00  0.00    -0.310 N 
ATOM     21  H1  UNL     1      20.158  30.495  16.353  1.00  0.00     0.186 HD
HETATM   22  C4  UNL     1      22.622  32.303  17.235  1.00  0.00     0.133 A 
ATOM     23  H2  UNL     1      21.100  31.496  18.411  1.00  0.00     0.186 HD
HETATM   24  C5  UNL     1      22.820  32.187  15.865  1.00  0.00     0.075 A 
HETATM   25 CL1  UNL     1      24.136  32.908  14.966  1.00  0.00    -0.081 Cl
ENDBRANCH  17  18
ENDBRANCH  14  17
ENDBRANCH  12  13
ENDBRANCH  11  12
ENDBRANCH  10  11
ENDBRANCH   9  10
ENDBRANCH   8   9
ENDBRANCH   7   8
ENDBRANCH   1   7
BRANCH   6  26
HETATM   26  C22 UNL     1      17.768  24.317  10.309  1.00  0.00     0.226 C 
HETATM   27  O3  UNL     1      17.922  23.186  10.817  1.00  0.00    -0.273 OA
HETATM   28  N6  UNL     1      16.860  24.354   9.218  1.00  0.00    -0.352 N 
HETATM   29  C23 UNL     1      16.514  25.503   8.414  1.00  0.00     0.126 C 
HETATM   30  C26 UNL     1      16.100  23.233   8.633  1.00  0.00     0.126 C 
HETATM   31  C24 UNL     1      16.148  24.960   7.043  1.00  0.00     0.021 C 
HETATM   32  C25 UNL     1      16.451  23.473   7.155  1.00  0.00     0.021 C 
ENDBRANCH   6  26
BRANCH   4  33
HETATM   33  C14 UNL     1      18.497  28.325  12.927  1.00  0.00     0.132 A 
HETATM   34  N5  UNL     1      18.922  28.396  14.206  1.00  0.00    -0.350 N 
HETATM   35  C15 UNL     1      18.615  29.502  14.958  1.00  0.00     0.106 A 
ATOM     36  H5  UNL     1      19.467  27.634  14.611  1.00  0.00     0.166 HD
HETATM   37  C16 UNL     1      17.875  30.548  14.426  1.00  0.00     0.065 A 
HETATM   38  C18 UNL     1      17.433  30.499  13.125  1.00  0.00     0.045 A 
HETATM   39  C19 UNL     1      17.760  29.361  12.384  1.00  0.00     0.079 A 
HETATM   40 CL2  UNL     1      17.227  29.293  10.737  1.00  0.00    -0.080 Cl
BRANCH  37  41
HETATM   41  C17 UNL     1      17.628  31.714  15.310  1.00  0.00     0.418 C 
HETATM   42  F1  UNL     1      17.700  31.370  16.622  1.00  0.00    -0.166 F 
HETATM   43  F2  UNL     1      16.315  32.143  15.037  1.00  0.00    -0.166 F 
HETATM   44  F3  UNL     1      18.491  32.728  14.938  1.00  0.00    -0.166 F 
ENDBRANCH  37  41
ENDBRANCH   4  33
TORSDOF 12
ENDMDL
MODEL 3
REMARK VINA RESULT: -9.153889381      3.709      8.944
REMARK  12 active torsions:
REMARK  status: ('A' for Active; 'I' for Inactive)
REMARK    1  A    between atoms: C1_2  and  C2_3 
REMARK       I    between atoms: C1_2  and  N3_12 
REMARK    2  A    between atoms: C2_3  and  C3_4 
REMARK    3  A    between atoms: N3_12  and  C6_14 
REMARK    4  A    between atoms: C6_14  and  C7_15 
REMARK    5  A    between atoms: C7_15  and  C8_16 
REMARK    6  A    between atoms: C8_16  and  C9_17 
REMARK    7  A    between atoms: C9_17  and  C10_18 
REMARK    8  A    between atoms: C10_18  and  C11_19 
REMARK    9  A    between atoms: C11_19  and  C12_20 
REMARK   10  A    between atoms: N4_23  and  C14_24 
REMARK   11  A    between atoms: C16_28  and  C17_29 
REMARK   12  A    between atoms: C21_37  and  C22_38 
REMARK       I    between atoms: C22_38  and  N6_40 
ROOT
HETATM    1  C12 UNL     1      22.196  30.976  13.511  1.00  0.00     0.093 C 
HETATM    2  C13 UNL     1      21.095  31.965  13.979  1.00  0.00     0.230 C 
HETATM    3  O2  UNL     1      21.069  33.200  13.694  1.00  0.00    -0.273 OA
HETATM    4  N4  UNL     1      20.194  31.202  14.745  1.00  0.00    -0.301 N 
HETATM    5  C20 UNL     1      20.686  29.817  14.817  1.00  0.00     0.148 C 
HETATM    6  C21 UNL     1      21.357  29.777  13.449  1.00  0.00     0.109 C 
ENDROOT
BRANCH   1   7
HETATM    7  C11 UNL     1      23.267  31.196  14.503  1.00  0.00     0.015 C 
BRANCH   7   8
HETATM    8  C10 UNL     1      23.690  32.571  14.817  1.00  0.00     0.001 C 
BRANCH   8   9
HETATM    9  C9  UNL     1      23.914  32.904  16.270  1.00  0.00     0.000 C 
BRANCH   9  10
HETATM   10  C8  UNL     1      22.653  32.984  17.029  1.00  0.00     0.002 C 
BRANCH  10  11
HETATM   11  C7  UNL     1      22.108  34.408  17.160  1.00  0.00     0.020 C 
BRANCH  11  12
HETATM   12  C6  UNL     1      21.610  34.675  18.538  1.00  0.00     0.122 C 
BRANCH  12  13
HETATM   13  N3  UNL     1      20.176  34.882  18.520  1.00  0.00    -0.361 N 
HETATM   14  C1  UNL     1      19.620  36.115  19.008  1.00  0.00     0.223 C 
HETATM   15  O1  UNL     1      20.407  37.006  19.404  1.00  0.00    -0.273 OA
ATOM     16  H3  UNL     1      19.560  34.152  18.162  1.00  0.00     0.162 HD
BRANCH  14  17
HETATM   17  C2  UNL     1      18.175  36.314  19.041  1.00  0.00     0.163 C 
BRANCH  17  18
HETATM   18  C3  UNL     1      17.726  37.413  18.179  1.00  0.00     0.057 A 
HETATM   19  N1  UNL     1      18.565  38.276  17.567  1.00  0.00    -0.303 N 
HETATM   20  N2  UNL     1      17.829  39.080  16.853  1.00  0.00    -0.310 N 
ATOM     21  H1  UNL     1      19.581  38.295  17.648  1.00  0.00     0.186 HD
HETATM   22  C4  UNL     1      16.520  38.810  16.951  1.00  0.00     0.133 A 
ATOM     23  H2  UNL     1      18.209  39.834  16.280  1.00  0.00     0.186 HD
HETATM   24  C5  UNL     1      16.445  37.726  17.816  1.00  0.00     0.075 A 
HETATM   25 CL1  UNL     1      14.969  36.934  18.322  1.00  0.00    -0.081 Cl
ENDBRANCH  17  18
ENDBRANCH  14  17
ENDBRANCH  12  13
ENDBRANCH  11  12
ENDBRANCH  10  11
ENDBRANCH   9  10
ENDBRANCH   8   9
ENDBRANCH   7   8
ENDBRANCH   1   7
BRANCH   6  26
HETATM   26  C22 UNL     1      21.773  28.506  12.952  1.00  0.00     0.226 C 
HETATM   27  O3  UNL     1      22.948  28.085  13.005  1.00  0.00    -0.273 OA
HETATM   28  N6  UNL     1      20.854  27.611  12.344  1.00  0.00    -0.352 N 
HETATM   29  C23 UNL     1      19.448  27.837  12.106  1.00  0.00     0.126 C 
HETATM   30  C26 UNL     1      21.128  26.274  11.781  1.00  0.00     0.126 C 
HETATM   31  C24 UNL     1      19.092  27.018  10.877  1.00  0.00     0.021 C 
HETATM   32  C25 UNL     1      20.432  26.457  10.422  1.00  0.00     0.021 C 
ENDBRANCH   6  26
BRANCH   4  33
HETATM   33  C14 UNL     1      19.016  31.702  15.324  1.00  0.00     0.132 A 
HETATM   34  N5  UNL     1      19.082  32.314  16.525  1.00  0.00    -0.350 N 
HETATM   35  C15 UNL     1      17.944  32.855  17.070  1.00  0.00     0.106 A 
ATOM     36  H5  UNL     1      19.970  32.374  17.023  1.00  0.00     0.166 HD
HETATM   37  C16 UNL     1      16.728  32.782  16.407  1.00  0.00     0.065 A 
HETATM   38  C18 UNL     1      16.636  32.166  15.181  1.00  0.00     0.045 A 
HETATM   39  C19 UNL     1      17.810  31.625  14.651  1.00  0.00     0.079 A 
HETATM   40 CL2  UNL     1      17.714  30.862  13.099  1.00  0.00    -0.080 Cl
BRANCH  37  41
HETATM   41  C17 UNL     1      15.566  33.430  17.064  1.00  0.00     0.418 C 
HETATM   42  F1  UNL     1      15.898  33.937  18.280  1.00  0.00    -0.166 F 
HETATM   43  F2  UNL     1      14.608  32.416  17.255  1.00  0.00    -0.166 F 
HETATM   44  F3  UNL     1      15.033  34.356  16.187  1.00  0.00    -0.166 F 
ENDBRANCH  37  41
ENDBRANCH   4  33
TORSDOF 12
ENDMDL
MODEL 4
REMARK VINA RESULT: -9.114446196      4.343      7.052
REMARK  12 active torsions:
REMARK  status: ('A' for Active; 'I' for Inactive)
REMARK    1  A    between atoms: C1_2  and  C2_3 
REMARK       I    between atoms: C1_2  and  N3_12 
REMARK    2  A    between atoms: C2_3  and  C3_4 
REMARK    3  A    between atoms: N3_12  and  C6_14 
REMARK    4  A    between atoms: C6_14  and  C7_15 
REMARK    5  A    between atoms: C7_15  and  C8_16 
REMARK    6  A    between atoms: C8_16  and  C9_17 
REMARK    7  A    between atoms: C9_17  and  C10_18 
REMARK    8  A    between atoms: C10_18  and  C11_19 
REMARK    9  A    between atoms: C11_19  and  C12_20 
REMARK   10  A    between atoms: N4_23  and  C14_24 
REMARK   11  A    between atoms: C16_28  and  C17_29 
REMARK   12  A    between atoms: C21_37  and  C22_38 
REMARK       I    between atoms: C22_38  and  N6_40 
ROOT
HETATM    1  C12 UNL     1      20.395  31.847  15.015  1.00  0.00     0.093 C 
HETATM    2  C13 UNL     1      19.758  33.223  15.347  1.00  0.00     0.230 C 
HETATM    3  O2  UNL     1      20.157  34.331  14.879  1.00  0.00    -0.273 OA
HETATM    4  N4  UNL     1      18.701  32.952  16.235  1.00  0.00    -0.301 N 
HETATM    5  C20 UNL     1      18.666  31.506  16.506  1.00  0.00     0.148 C 
HETATM    6  C21 UNL     1      19.179  31.041  15.149  1.00  0.00     0.109 C 
ENDROOT
BRANCH   1   7
HETATM    7  C11 UNL     1      21.542  31.791  15.943  1.00  0.00     0.015 C 
BRANCH   7   8
HETATM    8  C10 UNL     1      22.869  31.411  15.430  1.00  0.00     0.001 C 
BRANCH   8   9
HETATM    9  C9  UNL     1      22.970  31.095  13.959  1.00  0.00     0.000 C 
BRANCH   9  10
HETATM   10  C8  UNL     1      22.696  29.675  13.670  1.00  0.00     0.002 C 
BRANCH  10  11
HETATM   11  C7  UNL     1      21.954  29.454  12.350  1.00  0.00     0.020 C 
BRANCH  11  12
HETATM   12  C6  UNL     1      22.782  28.682  11.382  1.00  0.00     0.122 C 
BRANCH  12  13
HETATM   13  N3  UNL     1      21.954  27.746  10.650  1.00  0.00    -0.361 N 
HETATM   14  C1  UNL     1      22.075  26.334  10.894  1.00  0.00     0.223 C 
HETATM   15  O1  UNL     1      22.877  25.950  11.776  1.00  0.00    -0.273 OA
ATOM     16  H3  UNL     1      21.284  28.088   9.960  1.00  0.00     0.162 HD
BRANCH  14  17
HETATM   17  C2  UNL     1      21.281  25.380  10.126  1.00  0.00     0.163 C 
BRANCH  17  18
HETATM   18  C3  UNL     1      20.288  24.672  10.941  1.00  0.00     0.057 A 
HETATM   19  N1  UNL     1      20.579  24.043  12.100  1.00  0.00    -0.303 N 
HETATM   20  N2  UNL     1      19.459  23.571  12.570  1.00  0.00    -0.310 N 
ATOM     21  H1  UNL     1      21.501  23.955  12.527  1.00  0.00     0.186 HD
HETATM   22  C4  UNL     1      18.411  23.844  11.781  1.00  0.00     0.133 A 
ATOM     23  H2  UNL     1      19.389  23.050  13.445  1.00  0.00     0.186 HD
HETATM   24  C5  UNL     1      18.943  24.558  10.716  1.00  0.00     0.075 A 
HETATM   25 CL1  UNL     1      18.033  25.183   9.359  1.00  0.00    -0.081 Cl
ENDBRANCH  17  18
ENDBRANCH  14  17
ENDBRANCH  12  13
ENDBRANCH  11  12
ENDBRANCH  10  11
ENDBRANCH   9  10
ENDBRANCH   8   9
ENDBRANCH   7   8
ENDBRANCH   1   7
BRANCH   6  26
HETATM   26  C22 UNL     1      19.075  29.651  14.841  1.00  0.00     0.226 C 
HETATM   27  O3  UNL     1      19.624  28.745  15.504  1.00  0.00    -0.273 OA
HETATM   28  N6  UNL     1      18.322  29.192  13.729  1.00  0.00    -0.352 N 
HETATM   29  C23 UNL     1      17.616  30.002  12.764  1.00  0.00     0.126 C 
HETATM   30  C26 UNL     1      18.123  27.800  13.281  1.00  0.00     0.126 C 
HETATM   31  C24 UNL     1      17.612  29.206  11.470  1.00  0.00     0.021 C 
HETATM   32  C25 UNL     1      18.471  27.992  11.795  1.00  0.00     0.021 C 
ENDBRANCH   6  26
BRANCH   4  33
HETATM   33  C14 UNL     1      17.824  33.921  16.752  1.00  0.00     0.132 A 
HETATM   34  N5  UNL     1      18.331  34.952  17.460  1.00  0.00    -0.350 N 
HETATM   35  C15 UNL     1      17.486  35.932  17.920  1.00  0.00     0.106 A 
ATOM     36  H5  UNL     1      19.331  35.004  17.651  1.00  0.00     0.166 HD
HETATM   37  C16 UNL     1      16.123  35.879  17.670  1.00  0.00     0.065 A 
HETATM   38  C18 UNL     1      15.585  34.839  16.950  1.00  0.00     0.045 A 
HETATM   39  C19 UNL     1      16.467  33.857  16.494  1.00  0.00     0.079 A 
HETATM   40 CL2  UNL     1      15.808  32.549  15.568  1.00  0.00    -0.080 Cl
BRANCH  37  41
HETATM   41  C17 UNL     1      15.303  37.006  18.179  1.00  0.00     0.418 C 
HETATM   42  F1  UNL     1      15.542  38.150  17.489  1.00  0.00    -0.166 F 
HETATM   43  F2  UNL     1      15.698  37.206  19.516  1.00  0.00    -0.166 F 
HETATM   44  F3  UNL     1      13.978  36.610  18.185  1.00  0.00    -0.166 F 
ENDBRANCH  37  41
ENDBRANCH   4  33
TORSDOF 12
ENDMDL
MODEL 5
REMARK VINA RESULT: -9.093543630      2.691      7.506
REMARK  12 active torsions:
REMARK  status: ('A' for Active; 'I' for Inactive)
REMARK    1  A    between atoms: C1_2  and  C2_3 
REMARK       I    between atoms: C1_2  and  N3_12 
REMARK    2  A    between atoms: C2_3  and  C3_4 
REMARK    3  A    between atoms: N3_12  and  C6_14 
REMARK    4  A    between atoms: C6_14  and  C7_15 
REMARK    5  A    between atoms: C7_15  and  C8_16 
REMARK    6  A    between atoms: C8_16  and  C9_17 
REMARK    7  A    between atoms: C9_17  and  C10_18 
REMARK    8  A    between atoms: C10_18  and  C11_19 
REMARK    9  A    between atoms: C11_19  and  C12_20 
REMARK   10  A    between atoms: N4_23  and  C14_24 
REMARK   11  A    between atoms: C16_28  and  C17_29 
REMARK   12  A    between atoms: C21_37  and  C22_38 
REMARK       I    between atoms: C22_38  and  N6_40 
ROOT
HETATM    1  C12 UNL     1      18.609  31.454  14.334  1.00  0.00     0.093 C 
HETATM    2  C13 UNL     1      18.555  30.419  13.178  1.00  0.00     0.230 C 
HETATM    3  O2  UNL     1      18.050  30.641  12.037  1.00  0.00    -0.273 OA
HETATM    4  N4  UNL     1      19.164  29.253  13.678  1.00  0.00    -0.301 N 
HETATM    5  C20 UNL     1      19.554  29.484  15.078  1.00  0.00     0.148 C 
HETATM    6  C21 UNL     1      19.845  30.975  14.956  1.00  0.00     0.109 C 
ENDROOT
BRANCH   1   7
HETATM    7  C11 UNL     1      17.268  31.333  14.938  1.00  0.00     0.015 C 
BRANCH   7   8
HETATM    8  C10 UNL     1      16.663  32.501  15.598  1.00  0.00     0.001 C 
BRANCH   8   9
HETATM    9  C9  UNL     1      17.246  33.853  15.268  1.00  0.00     0.000 C 
BRANCH   9  10
HETATM   10  C8  UNL     1      16.248  34.934  15.363  1.00  0.00     0.002 C 
BRANCH  10  11
HETATM   11  C7  UNL     1      15.014  34.553  16.183  1.00  0.00     0.020 C 
BRANCH  11  12
HETATM   12  C6  UNL     1      14.683  35.601  17.188  1.00  0.00     0.122 C 
BRANCH  12  13
HETATM   13  N3  UNL     1      15.876  36.339  17.552  1.00  0.00    -0.361 N 
HETATM   14  C1  UNL     1      16.609  35.984  18.737  1.00  0.00     0.223 C 
HETATM   15  O1  UNL     1      16.212  35.005  19.409  1.00  0.00    -0.273 OA
ATOM     16  H3  UNL     1      16.196  37.112  16.967  1.00  0.00     0.162 HD
BRANCH  14  17
HETATM   17  C2  UNL     1      17.783  36.751  19.139  1.00  0.00     0.163 C 
BRANCH  17  18
HETATM   18  C3  UNL     1      19.044  36.044  18.894  1.00  0.00     0.057 A 
HETATM   19  N1  UNL     1      19.137  34.704  18.755  1.00  0.00    -0.303 N 
HETATM   20  N2  UNL     1      20.387  34.433  18.503  1.00  0.00    -0.310 N 
ATOM     21  H1  UNL     1      18.374  34.032  18.831  1.00  0.00     0.186 HD
HETATM   22  C4  UNL     1      21.158  35.529  18.468  1.00  0.00     0.133 A 
ATOM     23  H2  UNL     1      20.740  33.488  18.349  1.00  0.00     0.186 HD
HETATM   24  C5  UNL     1      20.290  36.582  18.725  1.00  0.00     0.075 A 
HETATM   25 CL1  UNL     1      20.742  38.271  18.806  1.00  0.00    -0.081 Cl
ENDBRANCH  17  18
ENDBRANCH  14  17
ENDBRANCH  12  13
ENDBRANCH  11  12
ENDBRANCH  10  11
ENDBRANCH   9  10
ENDBRANCH   8   9
ENDBRANCH   7   8
ENDBRANCH   1   7
BRANCH   6  26
HETATM   26  C22 UNL     1      20.520  31.610  16.042  1.00  0.00     0.226 C 
HETATM   27  O3  UNL     1      19.951  32.018  17.076  1.00  0.00    -0.273 OA
HETATM   28  N6  UNL     1      21.923  31.829  16.016  1.00  0.00    -0.352 N 
HETATM   29  C23 UNL     1      22.834  31.505  14.944  1.00  0.00     0.126 C 
HETATM   30  C26 UNL     1      22.759  32.470  17.050  1.00  0.00     0.126 C 
HETATM   31  C24 UNL     1      23.968  32.511  15.036  1.00  0.00     0.021 C 
HETATM   32  C25 UNL     1      23.518  33.454  16.144  1.00  0.00     0.021 C 
ENDBRANCH   6  26
BRANCH   4  33
HETATM   33  C14 UNL     1      19.368  28.078  12.936  1.00  0.00     0.132 A 
HETATM   34  N5  UNL     1      18.391  27.148  12.898  1.00  0.00    -0.350 N 
HETATM   35  C15 UNL     1      18.561  26.023  12.130  1.00  0.00     0.106 A 
ATOM     36  H5  UNL     1      17.534  27.279  13.436  1.00  0.00     0.166 HD
HETATM   37  C16 UNL     1      19.719  25.828  11.392  1.00  0.00     0.065 A 
HETATM   38  C18 UNL     1      20.727  26.763  11.414  1.00  0.00     0.045 A 
HETATM   39  C19 UNL     1      20.527  27.897  12.204  1.00  0.00     0.079 A 
HETATM   40 CL2  UNL     1      21.779  29.093  12.226  1.00  0.00    -0.080 Cl
BRANCH  37  41
HETATM   41  C17 UNL     1      19.789  24.597  10.566  1.00  0.00     0.418 C 
HETATM   42  F1  UNL     1      18.731  24.503   9.719  1.00  0.00    -0.166 F 
HETATM   43  F2  UNL     1      19.730  23.516  11.466  1.00  0.00    -0.166 F 
HETATM   44  F3  UNL     1      21.022  24.563   9.943  1.00  0.00    -0.166 F 
ENDBRANCH  37  41
ENDBRANCH   4  33
TORSDOF 12
ENDMDL
