MODEL 1
REMARK VINA RESULT: -9.054092019      0.000      0.000
REMARK  15 active torsions:
REMARK  status: ('A' for Active; 'I' for Inactive)
REMARK    1  A    between atoms: C5_7  and  C6_8 
REMARK    2  A    between atoms: C7_12  and  C8_13 
REMARK    3  A    between atoms: C9_16  and  N2_17 
REMARK    4  A    between atoms: N2_17  and  C10_19 
REMARK    5  A    between atoms: C10_19  and  C11_20 
REMARK    6  A    between atoms: C11_20  and  C12_21 
REMARK    7  A    between atoms: C12_21  and  N3_22 
REMARK    8  A    between atoms: C17_30  and  N5_31 
REMARK    9  A    between atoms: N5_31  and  C18_33 
REMARK   10  A    between atoms: C18_33  and  C19_34 
REMARK   11  A    between atoms: C19_34  and  C20_35 
REMARK   12  A    between atoms: C20_35  and  C21_36 
REMARK   13  A    between atoms: C21_36  and  C22_37 
REMARK   14  A    between atoms: C22_37  and  C23_38 
REMARK   15  A    between atoms: C23_38  and  C24_39 
ROOT
HETATM    1  C8  UNL     1      19.116  33.055  17.134  1.00  0.00     0.150 A 
HETATM    2  N1  UNL     1      19.030  31.681  17.065  1.00  0.00    -0.175 N 
ATOM      3  H1  UNL     1      18.104  31.253  17.084  1.00  0.00     0.186 HD
HETATM    4  C9  UNL     1      20.086  30.888  16.976  1.00  0.00     0.694 A 
HETATM    5  N4  UNL     1      21.325  31.402  16.948  1.00  0.00    -0.022 N 
ATOM      6  H4  UNL     1      22.150  30.806  16.880  1.00  0.00     0.203 HD
HETATM    7  C17 UNL     1      21.427  32.728  17.011  1.00  0.00     0.694 A 
HETATM    8  N6  UNL     1      20.331  33.540  17.101  1.00  0.00    -0.175 N 
ATOM      9  H6  UNL     1      20.464  34.550  17.144  1.00  0.00     0.186 HD
ENDROOT
BRANCH   1  10
HETATM   10  C7  UNL     1      17.845  33.712  17.336  1.00  0.00     0.063 A 
HETATM   11  C1  UNL     1      17.889  34.792  18.245  1.00  0.00     0.132 A 
HETATM   12  F1  UNL     1      19.043  35.066  18.940  1.00  0.00    -0.205 F 
HETATM   13  C2  UNL     1      16.832  35.607  18.490  1.00  0.00     0.067 A 
HETATM   14  C3  UNL     1      15.660  35.392  17.839  1.00  0.00     0.037 A 
HETATM   15 CL1  UNL     1      14.264  36.438  18.138  1.00  0.00    -0.084 Cl
HETATM   16  C4  UNL     1      15.595  34.360  16.960  1.00  0.00     0.041 A 
HETATM   17  C5  UNL     1      16.683  33.488  16.681  1.00  0.00     0.066 A 
BRANCH  17  18
HETATM   18  C6  UNL     1      16.398  32.422  15.713  1.00  0.00     0.418 C 
HETATM   19  F2  UNL     1      16.545  31.139  16.138  1.00  0.00    -0.166 F 
HETATM   20  F3  UNL     1      17.168  32.682  14.554  1.00  0.00    -0.166 F 
HETATM   21  F4  UNL     1      15.080  32.529  15.268  1.00  0.00    -0.166 F 
ENDBRANCH  17  18
ENDBRANCH   1  10
BRANCH   4  22
HETATM   22  N2  UNL     1      19.899  29.591  16.918  1.00  0.00    -0.225 N 
ATOM     23  H2  UNL     1      19.700  29.094  17.786  1.00  0.00     0.177 HD
BRANCH  22  24
HETATM   24  C10 UNL     1      19.960  28.825  15.689  1.00  0.00     0.143 C 
BRANCH  24  25
HETATM   25  C11 UNL     1      18.966  29.305  14.675  1.00  0.00     0.065 C 
BRANCH  25  26
HETATM   26  C12 UNL     1      18.127  28.259  14.060  1.00  0.00     0.065 C 
BRANCH  26  27
HETATM   27  N3  UNL     1      18.186  27.952  12.715  1.00  0.00    -0.370 N 
HETATM   28  C13 UNL     1      18.552  26.711  12.204  1.00  0.00     0.089 C 
HETATM   29  C14 UNL     1      19.523  26.736  11.049  1.00  0.00     0.212 C 
HETATM   30  O1  UNL     1      19.260  27.763  10.154  1.00  0.00    -0.385 OA
HETATM   31  C15 UNL     1      18.047  28.387  10.393  1.00  0.00     0.188 C 
HETATM   32  C16 UNL     1      18.060  29.017  11.758  1.00  0.00     0.153 C 
ENDBRANCH  26  27
ENDBRANCH  25  26
ENDBRANCH  24  25
ENDBRANCH  22  24
ENDBRANCH   4  22
BRANCH   7  33
HETATM   33  N5  UNL     1      22.620  33.213  16.983  1.00  0.00    -0.226 N 
ATOM     34  H5  UNL     1      22.879  33.877  17.713  1.00  0.00     0.177 HD
BRANCH  33  35
HETATM   35  C18 UNL     1      23.603  32.888  16.005  1.00  0.00     0.138 C 
BRANCH  35  36
HETATM   36  C19 UNL     1      23.005  32.882  14.611  1.00  0.00     0.020 C 
BRANCH  36  37
HETATM   37  C20 UNL     1      22.916  31.482  14.094  1.00  0.00     0.002 C 
BRANCH  37  38
HETATM   38  C21 UNL     1      21.729  31.286  13.166  1.00  0.00     0.000 C 
BRANCH  38  39
HETATM   39  C22 UNL     1      21.840  30.004  12.405  1.00  0.00     0.001 C 
BRANCH  39  40
HETATM   40  C23 UNL     1      22.743  29.032  13.091  1.00  0.00     0.011 C 
BRANCH  40  41
HETATM   41  C24 UNL     1      22.973  27.820  12.231  1.00  0.00     0.085 C 
HETATM   42 BR1  UNL     1      24.882  27.481  12.100  1.00  0.00    -0.097 Br
ENDBRANCH  40  41
ENDBRANCH  39  40
ENDBRANCH  38  39
ENDBRANCH  37  38
ENDBRANCH  36  37
ENDBRANCH  35  36
ENDBRANCH  33  35
ENDBRANCH   7  33
TORSDOF 15
ENDMDL
MODEL 2
REMARK VINA RESULT: -8.767752682      0.738      2.362
REMARK  15 active torsions:
REMARK  status: ('A' for Active; 'I' for Inactive)
REMARK    1  A    between atoms: C5_7  and  C6_8 
REMARK    2  A    between atoms: C7_12  and  C8_13 
REMARK    3  A    between atoms: C9_16  and  N2_17 
REMARK    4  A    between atoms: N2_17  and  C10_19 
REMARK    5  A    between atoms: C10_19  and  C11_20 
REMARK    6  A    between atoms: C11_20  and  C12_21 
REMARK    7  A    between atoms: C12_21  and  N3_22 
REMARK    8  A    between atoms: C17_30  and  N5_31 
REMARK    9  A    between atoms: N5_31  and  C18_33 
REMARK   10  A    between atoms: C18_33  and  C19_34 
REMARK   11  A    between atoms: C19_34  and  C20_35 
REMARK   12  A    between atoms: C20_35  and  C21_36 
REMARK   13  A    between atoms: C21_36  and  C22_37 
REMARK   14  A    between atoms: C22_37  and  C23_38 
REMARK   15  A    between atoms: C23_38  and  C24_39 
ROOT
HETATM    1  C8  UNL     1      19.326  33.064  17.145  1.00  0.00     0.150 A 
HETATM    2  N1  UNL     1      19.118  31.707  17.024  1.00  0.00    -0.175 N 
ATOM      3  H1  UNL     1      18.158  31.367  16.971  1.00  0.00     0.186 HD
HETATM    4  C9  UNL     1      20.101  30.820  16.974  1.00  0.00     0.694 A 
HETATM    5  N4  UNL     1      21.381  31.217  17.040  1.00  0.00    -0.022 N 
ATOM      6  H4  UNL     1      22.150  30.548  17.004  1.00  0.00     0.203 HD
HETATM    7  C17 UNL     1      21.599  32.525  17.156  1.00  0.00     0.694 A 
HETATM    8  N6  UNL     1      20.580  33.433  17.205  1.00  0.00    -0.175 N 
ATOM      9  H6  UNL     1      20.802  34.425  17.291  1.00  0.00     0.186 HD
ENDROOT
BRANCH   1  10
HETATM   10  C7  UNL     1      18.110  33.831  17.290  1.00  0.00     0.063 A 
HETATM   11  C1  UNL     1      17.016  33.327  16.555  1.00  0.00     0.132 A 
HETATM   12  F1  UNL     1      17.187  32.269  15.694  1.00  0.00    -0.205 F 
HETATM   13  C2  UNL     1      15.760  33.835  16.639  1.00  0.00     0.067 A 
HETATM   14  C3  UNL     1      15.519  34.882  17.469  1.00  0.00     0.037 A 
HETATM   15 CL1  UNL     1      13.892  35.566  17.601  1.00  0.00    -0.084 Cl
HETATM   16  C4  UNL     1      16.556  35.383  18.187  1.00  0.00     0.041 A 
HETATM   17  C5  UNL     1      17.882  34.875  18.121  1.00  0.00     0.066 A 
BRANCH  17  18
HETATM   18  C6  UNL     1      18.862  35.572  18.963  1.00  0.00     0.418 C 
HETATM   19  F2  UNL     1      20.004  36.004  18.364  1.00  0.00    -0.166 F 
HETATM   20  F3  UNL     1      19.136  34.740  20.075  1.00  0.00    -0.166 F 
HETATM   21  F4  UNL     1      18.276  36.703  19.530  1.00  0.00    -0.166 F 
ENDBRANCH  17  18
ENDBRANCH   1  10
BRANCH   4  22
HETATM   22  N2  UNL     1      19.800  29.549  16.859  1.00  0.00    -0.225 N 
ATOM     23  H2  UNL     1      19.428  29.067  17.678  1.00  0.00     0.177 HD
BRANCH  22  24
HETATM   24  C10 UNL     1      19.966  28.791  15.635  1.00  0.00     0.143 C 
BRANCH  24  25
HETATM   25  C11 UNL     1      18.968  29.183  14.588  1.00  0.00     0.065 C 
BRANCH  25  26
HETATM   26  C12 UNL     1      18.206  28.072  13.987  1.00  0.00     0.065 C 
BRANCH  26  27
HETATM   27  N3  UNL     1      18.169  27.846  12.625  1.00  0.00    -0.370 N 
HETATM   28  C13 UNL     1      18.531  26.649  12.015  1.00  0.00     0.089 C 
HETATM   29  C14 UNL     1      19.409  26.774  10.793  1.00  0.00     0.212 C 
HETATM   30  O1  UNL     1      19.047  27.841   9.984  1.00  0.00    -0.385 OA
HETATM   31  C15 UNL     1      17.838  28.409  10.351  1.00  0.00     0.188 C 
HETATM   32  C16 UNL     1      17.939  28.959  11.746  1.00  0.00     0.153 C 
ENDBRANCH  26  27
ENDBRANCH  25  26
ENDBRANCH  24  25
ENDBRANCH  22  24
ENDBRANCH   4  22
BRANCH   7  33
HETATM   33  N5  UNL     1      22.832  32.897  17.219  1.00  0.00    -0.226 N 
ATOM     34  H5  UNL     1      23.297  32.844  18.125  1.00  0.00     0.177 HD
BRANCH  33  35
HETATM   35  C18 UNL     1      23.590  33.376  16.113  1.00  0.00     0.138 C 
BRANCH  35  36
HETATM   36  C19 UNL     1      23.451  32.454  14.915  1.00  0.00     0.020 C 
BRANCH  36  37
HETATM   37  C20 UNL     1      22.370  32.947  14.009  1.00  0.00     0.002 C 
BRANCH  37  38
HETATM   38  C21 UNL     1      21.568  31.809  13.399  1.00  0.00     0.000 C 
BRANCH  38  39
HETATM   39  C22 UNL     1      22.307  30.513  13.489  1.00  0.00     0.001 C 
BRANCH  39  40
HETATM   40  C23 UNL     1      21.898  29.568  12.407  1.00  0.00     0.011 C 
BRANCH  40  41
HETATM   41  C24 UNL     1      22.346  28.168  12.725  1.00  0.00     0.085 C 
HETATM   42 BR1  UNL     1      24.192  27.943  12.164  1.00  0.00    -0.097 Br
ENDBRANCH  40  41
ENDBRANCH  39  40
ENDBRANCH  38  39
ENDBRANCH  37  38
ENDBRANCH  36  37
ENDBRANCH  35  36
ENDBRANCH  33  35
ENDBRANCH   7  33
TORSDOF 15
ENDMDL
MODEL 3
REMARK VINA RESULT: -8.623395170      5.093      8.582
REMARK  15 active torsions:
REMARK  status: ('A' for Active; 'I' for Inactive)
REMARK    1  A    between atoms: C5_7  and  C6_8 
REMARK    2  A    between atoms: C7_12  and  C8_13 
REMARK    3  A    between atoms: C9_16  and  N2_17 
REMARK    4  A    between atoms: N2_17  and  C10_19 
REMARK    5  A    between atoms: C10_19  and  C11_20 
REMARK    6  A    between atoms: C11_20  and  C12_21 
REMARK    7  A    between atoms: C12_21  and  N3_22 
REMARK    8  A    between atoms: C17_30  and  N5_31 
REMARK    9  A    between atoms: N5_31  and  C18_33 
REMARK   10  A    between atoms: C18_33  and  C19_34 
REMARK   11  A    between atoms: C19_34  and  C20_35 
REMARK   12  A    between atoms: C20_35  and  C21_36 
REMARK   13  A    between atoms: C21_36  and  C22_37 
REMARK   14  A    between atoms: C22_37  and  C23_38 
REMARK   15  A    between atoms: C23_38  and  C24_39 
ROOT
HETATM    1  C8  UNL     1      19.093  27.345  10.518  1.00  0.00     0.150 A 
HETATM    2  N1  UNL     1      18.316  28.274  11.176  1.00  0.00    -0.175 N 
ATOM      3  H1  UNL     1      17.302  28.180  11.124  1.00  0.00     0.186 HD
HETATM    4  C9  UNL     1      18.818  29.282  11.873  1.00  0.00     0.694 A 
HETATM    5  N4  UNL     1      20.145  29.449  11.971  1.00  0.00    -0.022 N 
ATOM      6  H4  UNL     1      20.549  30.220  12.503  1.00  0.00     0.203 HD
HETATM    7  C17 UNL     1      20.911  28.559  11.343  1.00  0.00     0.694 A 
HETATM    8  N6  UNL     1      20.385  27.520  10.628  1.00  0.00    -0.175 N 
ATOM      9  H6  UNL     1      21.016  26.865  10.167  1.00  0.00     0.186 HD
ENDROOT
BRANCH   1  10
HETATM   10  C7  UNL     1      18.334  26.398   9.734  1.00  0.00     0.063 A 
HETATM   11  C1  UNL     1      17.988  26.860   8.445  1.00  0.00     0.132 A 
HETATM   12  F1  UNL     1      18.267  28.154   8.074  1.00  0.00    -0.205 F 
HETATM   13  C2  UNL     1      17.373  26.088   7.513  1.00  0.00     0.067 A 
HETATM   14  C3  UNL     1      17.067  24.799   7.814  1.00  0.00     0.037 A 
HETATM   15 CL1  UNL     1      16.265  23.767   6.619  1.00  0.00    -0.084 Cl
HETATM   16  C4  UNL     1      17.391  24.333   9.046  1.00  0.00     0.041 A 
HETATM   17  C5  UNL     1      18.034  25.116  10.044  1.00  0.00     0.066 A 
BRANCH  17  18
HETATM   18  C6  UNL     1      18.278  24.428  11.317  1.00  0.00     0.418 C 
HETATM   19  F2  UNL     1      18.188  25.169  12.454  1.00  0.00    -0.166 F 
HETATM   20  F3  UNL     1      19.530  23.775  11.215  1.00  0.00    -0.166 F 
HETATM   21  F4  UNL     1      17.368  23.382  11.470  1.00  0.00    -0.166 F 
ENDBRANCH  17  18
ENDBRANCH   1  10
BRANCH   4  22
HETATM   22  N2  UNL     1      17.994  30.115  12.462  1.00  0.00    -0.225 N 
ATOM     23  H2  UNL     1      17.236  30.515  11.909  1.00  0.00     0.177 HD
BRANCH  22  24
HETATM   24  C10 UNL     1      18.100  30.498  13.856  1.00  0.00     0.143 C 
BRANCH  24  25
HETATM   25  C11 UNL     1      18.073  31.986  14.036  1.00  0.00     0.065 C 
BRANCH  25  26
HETATM   26  C12 UNL     1      19.382  32.661  13.957  1.00  0.00     0.065 C 
BRANCH  26  27
HETATM   27  N3  UNL     1      20.529  32.130  14.512  1.00  0.00    -0.370 N 
HETATM   28  C13 UNL     1      20.695  31.856  15.866  1.00  0.00     0.089 C 
HETATM   29  C14 UNL     1      22.006  32.299  16.470  1.00  0.00     0.212 C 
HETATM   30  O1  UNL     1      23.082  32.089  15.620  1.00  0.00    -0.385 OA
HETATM   31  C15 UNL     1      22.753  31.322  14.515  1.00  0.00     0.188 C 
HETATM   32  C16 UNL     1      21.709  32.031  13.697  1.00  0.00     0.153 C 
ENDBRANCH  26  27
ENDBRANCH  25  26
ENDBRANCH  24  25
ENDBRANCH  22  24
ENDBRANCH   4  22
BRANCH   7  33
HETATM   33  N5  UNL     1      22.185  28.727  11.444  1.00  0.00    -0.226 N 
ATOM     34  H5  UNL     1      22.638  29.332  10.759  1.00  0.00     0.177 HD
BRANCH  33  35
HETATM   35  C18 UNL     1      23.003  28.127  12.443  1.00  0.00     0.138 C 
BRANCH  35  36
HETATM   36  C19 UNL     1      24.473  28.231  12.080  1.00  0.00     0.020 C 
BRANCH  36  37
HETATM   37  C20 UNL     1      25.111  26.880  12.124  1.00  0.00     0.002 C 
BRANCH  37  38
HETATM   38  C21 UNL     1      24.552  25.944  11.065  1.00  0.00     0.000 C 
BRANCH  38  39
HETATM   39  C22 UNL     1      24.805  26.470   9.688  1.00  0.00     0.001 C 
BRANCH  39  40
HETATM   40  C23 UNL     1      23.721  26.074   8.740  1.00  0.00     0.011 C 
BRANCH  40  41
HETATM   41  C24 UNL     1      22.761  25.120   9.395  1.00  0.00     0.085 C 
HETATM   42 BR1  UNL     1      21.341  24.679   8.144  1.00  0.00    -0.097 Br
ENDBRANCH  40  41
ENDBRANCH  39  40
ENDBRANCH  38  39
ENDBRANCH  37  38
ENDBRANCH  36  37
ENDBRANCH  35  36
ENDBRANCH  33  35
ENDBRANCH   7  33
TORSDOF 15
ENDMDL
MODEL 4
REMARK VINA RESULT: -8.571042351      2.958      4.418
REMARK  15 active torsions:
REMARK  status: ('A' for Active; 'I' for Inactive)
REMARK    1  A    between atoms: C5_7  and  C6_8 
REMARK    2  A    between atoms: C7_12  and  C8_13 
REMARK    3  A    between atoms: C9_16  and  N2_17 
REMARK    4  A    between atoms: N2_17  and  C10_19 
REMARK    5  A    between atoms: C10_19  and  C11_20 
REMARK    6  A    between atoms: C11_20  and  C12_21 
REMARK    7  A    between atoms: C12_21  and  N3_22 
REMARK    8  A    between atoms: C17_30  and  N5_31 
REMARK    9  A    between atoms: N5_31  and  C18_33 
REMARK   10  A    between atoms: C18_33  and  C19_34 
REMARK   11  A    between atoms: C19_34  and  C20_35 
REMARK   12  A    between atoms: C20_35  and  C21_36 
REMARK   13  A    between atoms: C21_36  and  C22_37 
REMARK   14  A    between atoms: C22_37  and  C23_38 
REMARK   15  A    between atoms: C23_38  and  C24_39 
ROOT
HETATM    1  C8  UNL     1      20.983  30.996  14.992  1.00  0.00     0.150 A 
HETATM    2  N1  UNL     1      19.957  30.089  15.143  1.00  0.00    -0.175 N 
ATOM      3  H1  UNL     1      19.101  30.399  15.603  1.00  0.00     0.186 HD
HETATM    4  C9  UNL     1      20.024  28.835  14.723  1.00  0.00     0.694 A 
HETATM    5  N4  UNL     1      21.129  28.379  14.113  1.00  0.00    -0.022 N 
ATOM      6  H4  UNL     1      21.198  27.416  13.783  1.00  0.00     0.203 HD
HETATM    7  C17 UNL     1      22.129  29.243  13.957  1.00  0.00     0.694 A 
HETATM    8  N6  UNL     1      22.051  30.536  14.392  1.00  0.00    -0.175 N 
ATOM      9  H6  UNL     1      22.845  31.158  14.245  1.00  0.00     0.186 HD
ENDROOT
BRANCH   1  10
HETATM   10  C7  UNL     1      20.733  32.272  15.622  1.00  0.00     0.063 A 
HETATM   11  C1  UNL     1      21.663  32.615  16.627  1.00  0.00     0.132 A 
HETATM   12  F1  UNL     1      22.627  31.714  17.015  1.00  0.00    -0.205 F 
HETATM   13  C2  UNL     1      21.672  33.814  17.262  1.00  0.00     0.067 A 
HETATM   14  C3  UNL     1      20.746  34.750  16.929  1.00  0.00     0.037 A 
HETATM   15 CL1  UNL     1      20.732  36.324  17.740  1.00  0.00    -0.084 Cl
HETATM   16  C4  UNL     1      19.842  34.444  15.965  1.00  0.00     0.041 A 
HETATM   17  C5  UNL     1      19.806  33.198  15.281  1.00  0.00     0.066 A 
BRANCH  17  18
HETATM   18  C6  UNL     1      18.735  33.060  14.288  1.00  0.00     0.418 C 
HETATM   19  F2  UNL     1      17.780  32.122  14.525  1.00  0.00    -0.166 F 
HETATM   20  F3  UNL     1      19.347  32.876  13.024  1.00  0.00    -0.166 F 
HETATM   21  F4  UNL     1      18.057  34.271  14.154  1.00  0.00    -0.166 F 
ENDBRANCH  17  18
ENDBRANCH   1  10
BRANCH   4  22
HETATM   22  N2  UNL     1      18.993  28.048  14.915  1.00  0.00    -0.225 N 
ATOM     23  H2  UNL     1      18.940  27.529  15.792  1.00  0.00     0.177 HD
BRANCH  22  24
HETATM   24  C10 UNL     1      17.925  27.872  13.951  1.00  0.00     0.143 C 
BRANCH  24  25
HETATM   25  C11 UNL     1      18.248  28.503  12.630  1.00  0.00     0.065 C 
BRANCH  25  26
HETATM   26  C12 UNL     1      18.363  27.572  11.491  1.00  0.00     0.065 C 
BRANCH  26  27
HETATM   27  N3  UNL     1      18.941  26.324  11.605  1.00  0.00    -0.370 N 
HETATM   28  C13 UNL     1      20.299  26.066  11.439  1.00  0.00     0.089 C 
HETATM   29  C14 UNL     1      20.640  24.863  10.593  1.00  0.00     0.212 C 
HETATM   30  O1  UNL     1      19.791  23.791  10.824  1.00  0.00    -0.385 OA
HETATM   31  C15 UNL     1      18.973  23.980  11.926  1.00  0.00     0.188 C 
HETATM   32  C16 UNL     1      18.086  25.173  11.702  1.00  0.00     0.153 C 
ENDBRANCH  26  27
ENDBRANCH  25  26
ENDBRANCH  24  25
ENDBRANCH  22  24
ENDBRANCH   4  22
BRANCH   7  33
HETATM   33  N5  UNL     1      23.186  28.796  13.369  1.00  0.00    -0.226 N 
ATOM     34  H5  UNL     1      24.034  28.701  13.928  1.00  0.00     0.177 HD
BRANCH  33  35
HETATM   35  C18 UNL     1      23.252  28.426  11.996  1.00  0.00     0.138 C 
BRANCH  35  36
HETATM   36  C19 UNL     1      24.666  28.042  11.601  1.00  0.00     0.020 C 
BRANCH  36  37
HETATM   37  C20 UNL     1      24.890  26.584  11.839  1.00  0.00     0.002 C 
BRANCH  37  38
HETATM   38  C21 UNL     1      24.275  25.722  10.748  1.00  0.00     0.000 C 
BRANCH  38  39
HETATM   39  C22 UNL     1      24.490  26.322   9.396  1.00  0.00     0.001 C 
BRANCH  39  40
HETATM   40  C23 UNL     1      23.575  25.727   8.377  1.00  0.00     0.011 C 
BRANCH  40  41
HETATM   41  C24 UNL     1      23.755  24.236   8.305  1.00  0.00     0.085 C 
HETATM   42 BR1  UNL     1      24.741  23.786   6.693  1.00  0.00    -0.097 Br
ENDBRANCH  40  41
ENDBRANCH  39  40
ENDBRANCH  38  39
ENDBRANCH  37  38
ENDBRANCH  36  37
ENDBRANCH  35  36
ENDBRANCH  33  35
ENDBRANCH   7  33
TORSDOF 15
ENDMDL
MODEL 5
REMARK VINA RESULT: -8.547567419      1.484      3.772
REMARK  15 active torsions:
REMARK  status: ('A' for Active; 'I' for Inactive)
REMARK    1  A    between atoms: C5_7  and  C6_8 
REMARK    2  A    between atoms: C7_12  and  C8_13 
REMARK    3  A    between atoms: C9_16  and  N2_17 
REMARK    4  A    between atoms: N2_17  and  C10_19 
REMARK    5  A    between atoms: C10_19  and  C11_20 
REMARK    6  A    between atoms: C11_20  and  C12_21 
REMARK    7  A    between atoms: C12_21  and  N3_22 
REMARK    8  A    between atoms: C17_30  and  N5_31 
REMARK    9  A    between atoms: N5_31  and  C18_33 
REMARK   10  A    between atoms: C18_33  and  C19_34 
REMARK   11  A    between atoms: C19_34  and  C20_35 
REMARK   12  A    between atoms: C20_35  and  C21_36 
REMARK   13  A    between atoms: C21_36  and  C22_37 
REMARK   14  A    between atoms: C22_37  and  C23_38 
REMARK   15  A    between atoms: C23_38  and  C24_39 
ROOT
HETATM    1  C8  UNL     1      18.755  32.675  17.341  1.00  0.00     0.150 A 
HETATM    2  N1  UNL     1      19.996  33.270  17.429  1.00  0.00    -0.175 N 
ATOM      3  H1  UNL     1      20.040  34.270  17.622  1.00  0.00     0.186 HD
HETATM    4  C9  UNL     1      21.133  32.610  17.275  1.00  0.00     0.694 A 
HETATM    5  N4  UNL     1      21.128  31.292  17.020  1.00  0.00    -0.022 N 
ATOM      6  H4  UNL     1      21.994  30.768  16.898  1.00  0.00     0.203 HD
HETATM    7  C17 UNL     1      19.938  30.702  16.933  1.00  0.00     0.694 A 
HETATM    8  N6  UNL     1      18.769  31.390  17.095  1.00  0.00    -0.175 N 
ATOM      9  H6  UNL     1      17.883  30.889  17.021  1.00  0.00     0.186 HD
ENDROOT
BRANCH   1  10
HETATM   10  C7  UNL     1      17.653  33.605  17.433  1.00  0.00     0.063 A 
HETATM   11  C1  UNL     1      17.860  34.660  18.347  1.00  0.00     0.132 A 
HETATM   12  F1  UNL     1      18.980  34.677  19.144  1.00  0.00    -0.205 F 
HETATM   13  C2  UNL     1      16.997  35.697  18.502  1.00  0.00     0.067 A 
HETATM   14  C3  UNL     1      15.869  35.742  17.748  1.00  0.00     0.037 A 
HETATM   15 CL1  UNL     1      14.725  37.081  17.927  1.00  0.00    -0.084 Cl
HETATM   16  C4  UNL     1      15.650  34.739  16.861  1.00  0.00     0.041 A 
HETATM   17  C5  UNL     1      16.532  33.640  16.675  1.00  0.00     0.066 A 
BRANCH  17  18
HETATM   18  C6  UNL     1      16.100  32.652  15.680  1.00  0.00     0.418 C 
HETATM   19  F2  UNL     1      16.938  32.407  14.638  1.00  0.00    -0.166 F 
HETATM   20  F3  UNL     1      14.809  33.030  15.237  1.00  0.00    -0.166 F 
HETATM   21  F4  UNL     1      15.891  31.419  16.299  1.00  0.00    -0.166 F 
ENDBRANCH  17  18
ENDBRANCH   1  10
BRANCH   4  22
HETATM   22  N2  UNL     1      22.263  33.266  17.377  1.00  0.00    -0.225 N 
ATOM     23  H2  UNL     1      22.250  34.182  17.827  1.00  0.00     0.177 HD
BRANCH  22  24
HETATM   24  C10 UNL     1      23.531  32.765  16.884  1.00  0.00     0.143 C 
BRANCH  24  25
HETATM   25  C11 UNL     1      23.749  33.104  15.440  1.00  0.00     0.065 C 
BRANCH  25  26
HETATM   26  C12 UNL     1      23.458  32.022  14.481  1.00  0.00     0.065 C 
BRANCH  26  27
HETATM   27  N3  UNL     1      22.214  31.851  13.907  1.00  0.00    -0.370 N 
HETATM   28  C13 UNL     1      21.845  30.750  13.139  1.00  0.00     0.089 C 
HETATM   29  C14 UNL     1      21.105  31.059  11.861  1.00  0.00     0.212 C 
HETATM   30  O1  UNL     1      20.190  32.091  12.011  1.00  0.00    -0.385 OA
HETATM   31  C15 UNL     1      19.999  32.452  13.334  1.00  0.00     0.188 C 
HETATM   32  C16 UNL     1      21.292  32.952  13.917  1.00  0.00     0.153 C 
ENDBRANCH  26  27
ENDBRANCH  25  26
ENDBRANCH  24  25
ENDBRANCH  22  24
ENDBRANCH   4  22
BRANCH   7  33
HETATM   33  N5  UNL     1      19.943  29.436  16.688  1.00  0.00    -0.226 N 
ATOM     34  H5  UNL     1      19.818  28.801  17.476  1.00  0.00     0.177 HD
BRANCH  33  35
HETATM   35  C18 UNL     1      20.111  28.864  15.395  1.00  0.00     0.138 C 
BRANCH  35  36
HETATM   36  C19 UNL     1      18.781  28.413  14.820  1.00  0.00     0.020 C 
BRANCH  36  37
HETATM   37  C20 UNL     1      18.340  29.353  13.745  1.00  0.00     0.002 C 
BRANCH  37  38
HETATM   38  C21 UNL     1      18.175  28.657  12.404  1.00  0.00     0.000 C 
BRANCH  38  39
HETATM   39  C22 UNL     1      18.243  27.172  12.550  1.00  0.00     0.001 C 
BRANCH  39  40
HETATM   40  C23 UNL     1      19.113  26.553  11.505  1.00  0.00     0.011 C 
BRANCH  40  41
HETATM   41  C24 UNL     1      20.178  27.516  11.060  1.00  0.00     0.085 C 
HETATM   42 BR1  UNL     1      21.841  27.100  11.975  1.00  0.00    -0.097 Br
ENDBRANCH  40  41
ENDBRANCH  39  40
ENDBRANCH  38  39
ENDBRANCH  37  38
ENDBRANCH  36  37
ENDBRANCH  35  36
ENDBRANCH  33  35
ENDBRANCH   7  33
TORSDOF 15
ENDMDL
