MODEL 1
REMARK VINA RESULT: -8.763371294      0.000      0.000
REMARK  15 active torsions:
REMARK  status: ('A' for Active; 'I' for Inactive)
REMARK    1  A    between atoms: C2_2  and  C3_3 
REMARK    2  A    between atoms: C3_3  and  O1_4 
REMARK    3  A    between atoms: N1_6  and  O2_8 
REMARK    4  A    between atoms: N2_12  and  C6_13 
REMARK    5  A    between atoms: C6_13  and  C7_14 
REMARK    6  A    between atoms: C7_14  and  O3_15 
REMARK    7  A    between atoms: C7_14  and  C8_17 
REMARK    8  A    between atoms: C8_17  and  O4_18 
REMARK    9  A    between atoms: O4_18  and  C9_19 
REMARK   10  A    between atoms: C9_19  and  C10_20 
REMARK   11  A    between atoms: C10_20  and  C11_21 
REMARK   12  A    between atoms: C11_21  and  C12_22 
REMARK   13  A    between atoms: C12_22  and  N3_23 
REMARK   14  A    between atoms: N4_26  and  C15_27 
REMARK   15  A    between atoms: C15_27  and  C16_28 
ROOT
HETATM    1  C7  UNL     1      17.378  32.962  15.625  1.00  0.00     0.082 C 
ENDROOT
BRANCH   1   2
HETATM    2  C6  UNL     1      17.834  32.710  14.235  1.00  0.00     0.188 C 
BRANCH   2   3
HETATM    3  N2  UNL     1      18.582  31.543  13.948  1.00  0.00    -0.386 N 
HETATM    4  C5  UNL     1      19.855  31.919  13.414  1.00  0.00     0.123 C 
HETATM    5  C4  UNL     1      20.502  30.967  12.487  1.00  0.00     0.038 C 
HETATM    6  C2  UNL     1      20.279  29.568  13.075  1.00  0.00     0.036 C 
HETATM    7  C1  UNL     1      20.728  29.568  14.518  1.00  0.00     0.025 C 
HETATM    8  C25 UNL     1      18.812  29.302  12.930  1.00  0.00     0.006 C 
HETATM    9  C24 UNL     1      17.947  30.433  13.393  1.00  0.00     0.069 C 
HETATM   10  C26 UNL     1      18.535  29.017  11.471  1.00  0.00     0.016 C 
HETATM   11  C29 UNL     1      18.399  28.031  13.651  1.00  0.00     0.016 C 
HETATM   12  C27 UNL     1      18.036  27.608  11.368  1.00  0.00     0.001 C 
HETATM   13  C28 UNL     1      17.550  27.228  12.727  1.00  0.00     0.001 C 
BRANCH   6  14
HETATM   14  C3  UNL     1      21.122  28.636  12.303  1.00  0.00     0.145 C 
HETATM   15  N1  UNL     1      21.804  29.010  11.259  1.00  0.00    -0.250 N 
ATOM     16  H1  UNL     1      21.742  29.988  10.976  1.00  0.00     0.196 HD
BRANCH  14  17
HETATM   17  O1  UNL     1      21.247  27.295  12.642  1.00  0.00    -0.347 OA
ATOM     18  H1  UNL     1      22.044  26.938  13.015  1.00  0.00     0.219 HD
ENDBRANCH  14  17
BRANCH  15  19
HETATM   19  O2  UNL     1      22.588  28.191  10.524  1.00  0.00    -0.288 OA
ATOM     20  H2  UNL     1      22.485  28.041   9.592  1.00  0.00     0.244 HD
ENDBRANCH  15  19
ENDBRANCH   6  14
ENDBRANCH   2   3
ENDBRANCH   1   2
BRANCH   1  21
HETATM   21  O3  UNL     1      18.188  32.534  16.632  1.00  0.00    -0.361 OA
ATOM     22  H3  UNL     1      17.948  32.783  17.516  1.00  0.00     0.217 HD
ENDBRANCH   1  21
BRANCH   1  23
HETATM   23  C8  UNL     1      15.898  32.859  15.826  1.00  0.00     0.168 C 
BRANCH  23  24
HETATM   24  O4  UNL     1      15.285  33.327  16.854  1.00  0.00    -0.360 OA
BRANCH  24  25
HETATM   25  C9  UNL     1      15.188  34.310  17.667  1.00  0.00     0.174 C 
BRANCH  25  26
HETATM   26  C10 UNL     1      14.934  35.666  17.107  1.00  0.00     0.028 C 
BRANCH  26  27
HETATM   27  C11 UNL     1      16.211  36.429  16.733  1.00  0.00     0.021 C 
BRANCH  27  28
HETATM   28  C12 UNL     1      16.488  37.519  17.698  1.00  0.00     0.117 C 
BRANCH  28  29
HETATM   29  N3  UNL     1      17.829  37.445  18.261  1.00  0.00    -0.406 N 
HETATM   30  C13 UNL     1      18.780  38.257  17.574  1.00  0.00     0.137 C 
HETATM   31  C14 UNL     1      20.169  37.847  18.037  1.00  0.00     0.146 C 
HETATM   32  N4  UNL     1      20.486  36.524  17.624  1.00  0.00    -0.366 N 
HETATM   33  C22 UNL     1      19.375  35.667  17.718  1.00  0.00     0.083 C 
HETATM   34  C23 UNL     1      18.250  36.134  18.613  1.00  0.00     0.161 C 
BRANCH  32  35
HETATM   35  C15 UNL     1      21.782  36.059  17.864  1.00  0.00     0.101 C 
BRANCH  35  36
HETATM   36  C16 UNL     1      22.254  34.944  17.046  1.00  0.00    -0.021 A 
HETATM   37  C17 UNL     1      22.359  33.704  17.610  1.00  0.00     0.014 A 
HETATM   38  C18 UNL     1      22.799  32.640  16.855  1.00  0.00     0.020 A 
HETATM   39  C19 UNL     1      23.140  32.795  15.529  1.00  0.00     0.011 A 
HETATM   40 BR1  UNL     1      23.745  31.315  14.503  1.00  0.00    -0.051 Br
HETATM   41  C20 UNL     1      23.024  34.067  14.983  1.00  0.00     0.020 A 
HETATM   42  C21 UNL     1      22.587  35.115  15.741  1.00  0.00     0.014 A 
ENDBRANCH  35  36
ENDBRANCH  32  35
ENDBRANCH  28  29
ENDBRANCH  27  28
ENDBRANCH  26  27
ENDBRANCH  25  26
ENDBRANCH  24  25
ENDBRANCH  23  24
ENDBRANCH   1  23
TORSDOF 15
ENDMDL
MODEL 2
REMARK VINA RESULT: -8.409633169      1.050      1.375
REMARK  15 active torsions:
REMARK  status: ('A' for Active; 'I' for Inactive)
REMARK    1  A    between atoms: C2_2  and  C3_3 
REMARK    2  A    between atoms: C3_3  and  O1_4 
REMARK    3  A    between atoms: N1_6  and  O2_8 
REMARK    4  A    between atoms: N2_12  and  C6_13 
REMARK    5  A    between atoms: C6_13  and  C7_14 
REMARK    6  A    between atoms: C7_14  and  O3_15 
REMARK    7  A    between atoms: C7_14  and  C8_17 
REMARK    8  A    between atoms: C8_17  and  O4_18 
REMARK    9  A    between atoms: O4_18  and  C9_19 
REMARK   10  A    between atoms: C9_19  and  C10_20 
REMARK   11  A    between atoms: C10_20  and  C11_21 
REMARK   12  A    between atoms: C11_21  and  C12_22 
REMARK   13  A    between atoms: C12_22  and  N3_23 
REMARK   14  A    between atoms: N4_26  and  C15_27 
REMARK   15  A    between atoms: C15_27  and  C16_28 
ROOT
HETATM    1  C7  UNL     1      19.156  32.906  14.583  1.00  0.00     0.082 C 
ENDROOT
BRANCH   1   2
HETATM    2  C6  UNL     1      19.662  32.463  13.260  1.00  0.00     0.188 C 
BRANCH   2   3
HETATM    3  N2  UNL     1      20.049  31.113  13.077  1.00  0.00    -0.386 N 
HETATM    4  C5  UNL     1      21.331  31.072  12.445  1.00  0.00     0.123 C 
HETATM    5  C4  UNL     1      21.630  29.892  11.608  1.00  0.00     0.038 C 
HETATM    6  C2  UNL     1      21.089  28.674  12.366  1.00  0.00     0.036 C 
HETATM    7  C1  UNL     1      21.630  28.697  13.776  1.00  0.00     0.025 C 
HETATM    8  C25 UNL     1      19.597  28.803  12.321  1.00  0.00     0.006 C 
HETATM    9  C24 UNL     1      19.102  30.168  12.688  1.00  0.00     0.069 C 
HETATM   10  C26 UNL     1      19.144  28.459  10.920  1.00  0.00     0.016 C 
HETATM   11  C29 UNL     1      18.918  27.773  13.205  1.00  0.00     0.016 C 
HETATM   12  C27 UNL     1      18.282  27.237  11.007  1.00  0.00     0.001 C 
HETATM   13  C28 UNL     1      17.818  27.143  12.423  1.00  0.00     0.001 C 
BRANCH   6  14
HETATM   14  C3  UNL     1      21.593  27.474  11.671  1.00  0.00     0.145 C 
HETATM   15  N1  UNL     1      22.348  27.544  10.612  1.00  0.00    -0.250 N 
ATOM     16  H1  UNL     1      22.591  28.471  10.262  1.00  0.00     0.196 HD
BRANCH  14  17
HETATM   17  O1  UNL     1      21.297  26.188  12.104  1.00  0.00    -0.347 OA
ATOM     18  H1  UNL     1      21.678  25.818  12.891  1.00  0.00     0.219 HD
ENDBRANCH  14  17
BRANCH  15  19
HETATM   19  O2  UNL     1      22.831  26.473   9.946  1.00  0.00    -0.288 OA
ATOM     20  H2  UNL     1      23.705  26.117  10.060  1.00  0.00     0.244 HD
ENDBRANCH  15  19
ENDBRANCH   6  14
ENDBRANCH   2   3
ENDBRANCH   1   2
BRANCH   1  21
HETATM   21  O3  UNL     1      19.657  32.276  15.682  1.00  0.00    -0.361 OA
ATOM     22  H3  UNL     1      19.209  32.423  16.506  1.00  0.00     0.217 HD
ENDBRANCH   1  21
BRANCH   1  23
HETATM   23  C8  UNL     1      17.712  33.302  14.601  1.00  0.00     0.168 C 
BRANCH  23  24
HETATM   24  O4  UNL     1      16.822  32.717  15.321  1.00  0.00    -0.360 OA
BRANCH  24  25
HETATM   25  C9  UNL     1      15.820  32.881  16.098  1.00  0.00     0.174 C 
BRANCH  25  26
HETATM   26  C10 UNL     1      15.274  34.257  16.263  1.00  0.00     0.028 C 
BRANCH  26  27
HETATM   27  C11 UNL     1      15.407  34.807  17.689  1.00  0.00     0.021 C 
BRANCH  27  28
HETATM   28  C12 UNL     1      15.745  36.250  17.679  1.00  0.00     0.117 C 
BRANCH  28  29
HETATM   29  N3  UNL     1      17.088  36.517  18.174  1.00  0.00    -0.406 N 
HETATM   30  C13 UNL     1      17.778  37.524  17.437  1.00  0.00     0.137 C 
HETATM   31  C14 UNL     1      19.245  37.475  17.831  1.00  0.00     0.146 C 
HETATM   32  N4  UNL     1      19.856  36.262  17.410  1.00  0.00    -0.366 N 
HETATM   33  C22 UNL     1      18.996  35.162  17.564  1.00  0.00     0.083 C 
HETATM   34  C23 UNL     1      17.834  35.354  18.512  1.00  0.00     0.161 C 
BRANCH  32  35
HETATM   35  C15 UNL     1      21.237  36.132  17.588  1.00  0.00     0.101 C 
BRANCH  35  36
HETATM   36  C16 UNL     1      21.903  35.044  16.877  1.00  0.00    -0.021 A 
HETATM   37  C17 UNL     1      22.291  33.935  17.574  1.00  0.00     0.014 A 
HETATM   38  C18 UNL     1      22.916  32.896  16.922  1.00  0.00     0.020 A 
HETATM   39  C19 UNL     1      23.165  32.947  15.568  1.00  0.00     0.011 A 
HETATM   40 BR1  UNL     1      24.030  31.503  14.684  1.00  0.00    -0.051 Br
HETATM   41  C20 UNL     1      22.760  34.086  14.884  1.00  0.00     0.020 A 
HETATM   42  C21 UNL     1      22.140  35.111  15.542  1.00  0.00     0.014 A 
ENDBRANCH  35  36
ENDBRANCH  32  35
ENDBRANCH  28  29
ENDBRANCH  27  28
ENDBRANCH  26  27
ENDBRANCH  25  26
ENDBRANCH  24  25
ENDBRANCH  23  24
ENDBRANCH   1  23
TORSDOF 15
ENDMDL
MODEL 3
REMARK VINA RESULT: -8.355755888      2.376      7.393
REMARK  15 active torsions:
REMARK  status: ('A' for Active; 'I' for Inactive)
REMARK    1  A    between atoms: C2_2  and  C3_3 
REMARK    2  A    between atoms: C3_3  and  O1_4 
REMARK    3  A    between atoms: N1_6  and  O2_8 
REMARK    4  A    between atoms: N2_12  and  C6_13 
REMARK    5  A    between atoms: C6_13  and  C7_14 
REMARK    6  A    between atoms: C7_14  and  O3_15 
REMARK    7  A    between atoms: C7_14  and  C8_17 
REMARK    8  A    between atoms: C8_17  and  O4_18 
REMARK    9  A    between atoms: O4_18  and  C9_19 
REMARK   10  A    between atoms: C9_19  and  C10_20 
REMARK   11  A    between atoms: C10_20  and  C11_21 
REMARK   12  A    between atoms: C11_21  and  C12_22 
REMARK   13  A    between atoms: C12_22  and  N3_23 
REMARK   14  A    between atoms: N4_26  and  C15_27 
REMARK   15  A    between atoms: C15_27  and  C16_28 
ROOT
HETATM    1  C7  UNL     1      18.366  28.909  14.371  1.00  0.00     0.082 C 
ENDROOT
BRANCH   1   2
HETATM    2  C6  UNL     1      18.268  30.162  13.582  1.00  0.00     0.188 C 
BRANCH   2   3
HETATM    3  N2  UNL     1      18.350  31.411  14.243  1.00  0.00    -0.386 N 
HETATM    4  C5  UNL     1      19.329  31.331  15.283  1.00  0.00     0.123 C 
HETATM    5  C4  UNL     1      19.140  32.214  16.452  1.00  0.00     0.038 C 
HETATM    6  C2  UNL     1      18.689  33.572  15.902  1.00  0.00     0.036 C 
HETATM    7  C1  UNL     1      19.660  34.012  14.831  1.00  0.00     0.025 C 
HETATM    8  C25 UNL     1      17.307  33.350  15.367  1.00  0.00     0.006 C 
HETATM    9  C24 UNL     1      17.188  32.136  14.499  1.00  0.00     0.069 C 
HETATM   10  C26 UNL     1      16.369  33.223  16.547  1.00  0.00     0.016 C 
HETATM   11  C29 UNL     1      16.799  34.561  14.606  1.00  0.00     0.016 C 
HETATM   12  C27 UNL     1      15.398  34.362  16.482  1.00  0.00     0.001 C 
HETATM   13  C28 UNL     1      15.417  34.858  15.074  1.00  0.00     0.001 C 
BRANCH   6  14
HETATM   14  C3  UNL     1      18.735  34.529  17.024  1.00  0.00     0.145 C 
HETATM   15  N1  UNL     1      18.888  34.151  18.261  1.00  0.00    -0.250 N 
ATOM     16  H1  UNL     1      18.977  33.152  18.445  1.00  0.00     0.196 HD
BRANCH  14  17
HETATM   17  O1  UNL     1      18.622  35.900  16.833  1.00  0.00    -0.347 OA
ATOM     18  H1  UNL     1      17.897  36.403  17.185  1.00  0.00     0.219 HD
ENDBRANCH  14  17
BRANCH  15  19
HETATM   19  O2  UNL     1      18.936  34.992  19.317  1.00  0.00    -0.288 OA
ATOM     20  H2  UNL     1      18.243  35.597  19.555  1.00  0.00     0.244 HD
ENDBRANCH  15  19
ENDBRANCH   6  14
ENDBRANCH   2   3
ENDBRANCH   1   2
BRANCH   1  21
HETATM   21  O3  UNL     1      19.588  28.588  14.879  1.00  0.00    -0.361 OA
ATOM     22  H3  UNL     1      19.689  27.720  15.250  1.00  0.00     0.217 HD
ENDBRANCH   1  21
BRANCH   1  23
HETATM   23  C8  UNL     1      17.496  27.792  13.883  1.00  0.00     0.168 C 
BRANCH  23  24
HETATM   24  O4  UNL     1      17.312  27.525  12.639  1.00  0.00    -0.360 OA
BRANCH  24  25
HETATM   25  C9  UNL     1      17.873  27.210  11.534  1.00  0.00     0.174 C 
BRANCH  25  26
HETATM   26  C10 UNL     1      19.013  26.252  11.570  1.00  0.00     0.028 C 
BRANCH  26  27
HETATM   27  C11 UNL     1      20.354  26.872  11.158  1.00  0.00     0.021 C 
BRANCH  27  28
HETATM   28  C12 UNL     1      20.350  28.341  11.353  1.00  0.00     0.117 C 
BRANCH  28  29
HETATM   29  N3  UNL     1      21.660  28.864  11.718  1.00  0.00    -0.406 N 
HETATM   30  C13 UNL     1      22.273  28.162  12.798  1.00  0.00     0.137 C 
HETATM   31  C14 UNL     1      23.450  28.989  13.288  1.00  0.00     0.146 C 
HETATM   32  N4  UNL     1      23.020  30.212  13.873  1.00  0.00    -0.366 N 
HETATM   33  C22 UNL     1      21.942  30.776  13.170  1.00  0.00     0.083 C 
HETATM   34  C23 UNL     1      21.738  30.282  11.756  1.00  0.00     0.161 C 
BRANCH  32  35
HETATM   35  C15 UNL     1      23.985  31.016  14.486  1.00  0.00     0.101 C 
BRANCH  35  36
HETATM   36  C16 UNL     1      23.514  32.206  15.190  1.00  0.00    -0.021 A 
HETATM   37  C17 UNL     1      23.617  33.424  14.578  1.00  0.00     0.014 A 
HETATM   38  C18 UNL     1      23.176  34.557  15.223  1.00  0.00     0.020 A 
HETATM   39  C19 UNL     1      22.626  34.495  16.485  1.00  0.00     0.011 A 
HETATM   40 BR1  UNL     1      22.022  36.070  17.360  1.00  0.00    -0.051 Br
HETATM   41  C20 UNL     1      22.535  33.244  17.083  1.00  0.00     0.020 A 
HETATM   42  C21 UNL     1      22.976  32.127  16.433  1.00  0.00     0.014 A 
ENDBRANCH  35  36
ENDBRANCH  32  35
ENDBRANCH  28  29
ENDBRANCH  27  28
ENDBRANCH  26  27
ENDBRANCH  25  26
ENDBRANCH  24  25
ENDBRANCH  23  24
ENDBRANCH   1  23
TORSDOF 15
ENDMDL
MODEL 4
REMARK VINA RESULT: -8.085596371      1.386      2.429
REMARK  15 active torsions:
REMARK  status: ('A' for Active; 'I' for Inactive)
REMARK    1  A    between atoms: C2_2  and  C3_3 
REMARK    2  A    between atoms: C3_3  and  O1_4 
REMARK    3  A    between atoms: N1_6  and  O2_8 
REMARK    4  A    between atoms: N2_12  and  C6_13 
REMARK    5  A    between atoms: C6_13  and  C7_14 
REMARK    6  A    between atoms: C7_14  and  O3_15 
REMARK    7  A    between atoms: C7_14  and  C8_17 
REMARK    8  A    between atoms: C8_17  and  O4_18 
REMARK    9  A    between atoms: O4_18  and  C9_19 
REMARK   10  A    between atoms: C9_19  and  C10_20 
REMARK   11  A    between atoms: C10_20  and  C11_21 
REMARK   12  A    between atoms: C11_21  and  C12_22 
REMARK   13  A    between atoms: C12_22  and  N3_23 
REMARK   14  A    between atoms: N4_26  and  C15_27 
REMARK   15  A    between atoms: C15_27  and  C16_28 
ROOT
HETATM    1  C7  UNL     1      18.833  31.809  15.205  1.00  0.00     0.082 C 
ENDROOT
BRANCH   1   2
HETATM    2  C6  UNL     1      18.116  30.551  14.878  1.00  0.00     0.188 C 
BRANCH   2   3
HETATM    3  N2  UNL     1      18.532  29.780  13.765  1.00  0.00    -0.386 N 
HETATM    4  C5  UNL     1      17.768  28.572  13.717  1.00  0.00     0.123 C 
HETATM    5  C4  UNL     1      18.414  27.394  13.101  1.00  0.00     0.038 C 
HETATM    6  C2  UNL     1      19.155  27.904  11.860  1.00  0.00     0.036 C 
HETATM    7  C1  UNL     1      18.195  28.709  11.015  1.00  0.00     0.025 C 
HETATM    8  C25 UNL     1      20.291  28.730  12.382  1.00  0.00     0.006 C 
HETATM    9  C24 UNL     1      19.885  29.707  13.441  1.00  0.00     0.069 C 
HETATM   10  C26 UNL     1      21.334  27.785  12.936  1.00  0.00     0.016 C 
HETATM   11  C29 UNL     1      21.004  29.471  11.266  1.00  0.00     0.016 C 
HETATM   12  C27 UNL     1      22.578  27.949  12.119  1.00  0.00     0.001 C 
HETATM   13  C28 UNL     1      22.470  29.274  11.440  1.00  0.00     0.001 C 
BRANCH   6  14
HETATM   14  C3  UNL     1      19.594  26.718  11.101  1.00  0.00     0.145 C 
HETATM   15  N1  UNL     1      19.960  26.782   9.853  1.00  0.00    -0.250 N 
ATOM     16  H1  UNL     1      19.938  27.694   9.397  1.00  0.00     0.196 HD
BRANCH  14  17
HETATM   17  O1  UNL     1      19.647  25.452  11.670  1.00  0.00    -0.347 OA
ATOM     18  H1  UNL     1      18.905  24.859  11.657  1.00  0.00     0.219 HD
ENDBRANCH  14  17
BRANCH  15  19
HETATM   19  O2  UNL     1      20.368  25.722   9.121  1.00  0.00    -0.288 OA
ATOM     20  H2  UNL     1      20.235  25.631   8.185  1.00  0.00     0.244 HD
ENDBRANCH  15  19
ENDBRANCH   6  14
ENDBRANCH   2   3
ENDBRANCH   1   2
BRANCH   1  21
HETATM   21  O3  UNL     1      19.436  31.881  16.424  1.00  0.00    -0.361 OA
ATOM     22  H3  UNL     1      19.241  32.641  16.959  1.00  0.00     0.217 HD
ENDBRANCH   1  21
BRANCH   1  23
HETATM   23  C8  UNL     1      18.195  33.052  14.666  1.00  0.00     0.168 C 
BRANCH  23  24
HETATM   24  O4  UNL     1      17.130  33.576  15.158  1.00  0.00    -0.360 OA
BRANCH  24  25
HETATM   25  C9  UNL     1      16.179  33.438  16.002  1.00  0.00     0.174 C 
BRANCH  25  26
HETATM   26  C10 UNL     1      15.493  34.663  16.497  1.00  0.00     0.028 C 
BRANCH  26  27
HETATM   27  C11 UNL     1      15.718  34.937  17.990  1.00  0.00     0.021 C 
BRANCH  27  28
HETATM   28  C12 UNL     1      16.181  36.326  18.217  1.00  0.00     0.117 C 
BRANCH  28  29
HETATM   29  N3  UNL     1      17.578  36.394  18.625  1.00  0.00    -0.406 N 
HETATM   30  C13 UNL     1      18.257  37.552  18.142  1.00  0.00     0.137 C 
HETATM   31  C14 UNL     1      19.748  37.344  18.350  1.00  0.00     0.146 C 
HETATM   32  N4  UNL     1      20.245  36.290  17.535  1.00  0.00    -0.366 N 
HETATM   33  C22 UNL     1      19.337  35.220  17.453  1.00  0.00     0.083 C 
HETATM   34  C23 UNL     1      18.280  35.162  18.532  1.00  0.00     0.161 C 
BRANCH  32  35
HETATM   35  C15 UNL     1      21.625  36.072  17.522  1.00  0.00     0.101 C 
BRANCH  35  36
HETATM   36  C16 UNL     1      22.111  34.910  16.782  1.00  0.00    -0.021 A 
HETATM   37  C17 UNL     1      22.388  33.757  17.462  1.00  0.00     0.014 A 
HETATM   38  C18 UNL     1      22.843  32.650  16.782  1.00  0.00     0.020 A 
HETATM   39  C19 UNL     1      23.029  32.673  15.418  1.00  0.00     0.011 A 
HETATM   40 BR1  UNL     1      23.658  31.134  14.496  1.00  0.00    -0.051 Br
HETATM   41  C20 UNL     1      22.740  33.858  14.752  1.00  0.00     0.020 A 
HETATM   42  C21 UNL     1      22.289  34.951  15.437  1.00  0.00     0.014 A 
ENDBRANCH  35  36
ENDBRANCH  32  35
ENDBRANCH  28  29
ENDBRANCH  27  28
ENDBRANCH  26  27
ENDBRANCH  25  26
ENDBRANCH  24  25
ENDBRANCH  23  24
ENDBRANCH   1  23
TORSDOF 15
ENDMDL
MODEL 5
REMARK VINA RESULT: -8.052978252      1.271      2.375
REMARK  15 active torsions:
REMARK  status: ('A' for Active; 'I' for Inactive)
REMARK    1  A    between atoms: C2_2  and  C3_3 
REMARK    2  A    between atoms: C3_3  and  O1_4 
REMARK    3  A    between atoms: N1_6  and  O2_8 
REMARK    4  A    between atoms: N2_12  and  C6_13 
REMARK    5  A    between atoms: C6_13  and  C7_14 
REMARK    6  A    between atoms: C7_14  and  O3_15 
REMARK    7  A    between atoms: C7_14  and  C8_17 
REMARK    8  A    between atoms: C8_17  and  O4_18 
REMARK    9  A    between atoms: O4_18  and  C9_19 
REMARK   10  A    between atoms: C9_19  and  C10_20 
REMARK   11  A    between atoms: C10_20  and  C11_21 
REMARK   12  A    between atoms: C11_21  and  C12_22 
REMARK   13  A    between atoms: C12_22  and  N3_23 
REMARK   14  A    between atoms: N4_26  and  C15_27 
REMARK   15  A    between atoms: C15_27  and  C16_28 
ROOT
HETATM    1  C7  UNL     1      17.542  32.884  14.817  1.00  0.00     0.082 C 
ENDROOT
BRANCH   1   2
HETATM    2  C6  UNL     1      18.662  31.919  14.955  1.00  0.00     0.188 C 
BRANCH   2   3
HETATM    3  N2  UNL     1      18.837  30.909  13.979  1.00  0.00    -0.386 N 
HETATM    4  C5  UNL     1      17.874  29.873  14.196  1.00  0.00     0.123 C 
HETATM    5  C4  UNL     1      18.248  28.509  13.767  1.00  0.00     0.038 C 
HETATM    6  C2  UNL     1      18.952  28.656  12.413  1.00  0.00     0.036 C 
HETATM    7  C1  UNL     1      18.073  29.471  11.494  1.00  0.00     0.025 C 
HETATM    8  C25 UNL     1      20.255  29.332  12.710  1.00  0.00     0.006 C 
HETATM    9  C24 UNL     1      20.122  30.532  13.595  1.00  0.00     0.069 C 
HETATM   10  C26 UNL     1      21.165  28.317  13.365  1.00  0.00     0.016 C 
HETATM   11  C29 UNL     1      20.983  29.729  11.438  1.00  0.00     0.016 C 
HETATM   12  C27 UNL     1      22.341  28.107  12.461  1.00  0.00     0.001 C 
HETATM   13  C28 UNL     1      22.402  29.295  11.560  1.00  0.00     0.001 C 
BRANCH   6  14
HETATM   14  C3  UNL     1      19.109  27.299  11.859  1.00  0.00     0.145 C 
HETATM   15  N1  UNL     1      18.721  26.232  12.497  1.00  0.00    -0.250 N 
ATOM     16  H1  UNL     1      18.294  26.357  13.415  1.00  0.00     0.196 HD
BRANCH  14  17
HETATM   17  O1  UNL     1      19.681  27.068  10.614  1.00  0.00    -0.347 OA
ATOM     18  H1  UNL     1      19.160  26.985   9.824  1.00  0.00     0.219 HD
ENDBRANCH  14  17
BRANCH  15  19
HETATM   19  O2  UNL     1      18.845  24.972  12.027  1.00  0.00    -0.288 OA
ATOM     20  H2  UNL     1      18.193  24.290  12.137  1.00  0.00     0.244 HD
ENDBRANCH  15  19
ENDBRANCH   6  14
ENDBRANCH   2   3
ENDBRANCH   1   2
BRANCH   1  21
HETATM   21  O3  UNL     1      17.858  34.152  14.435  1.00  0.00    -0.361 OA
ATOM     22  H3  UNL     1      17.749  34.367  13.516  1.00  0.00     0.217 HD
ENDBRANCH   1  21
BRANCH   1  23
HETATM   23  C8  UNL     1      16.438  32.708  15.814  1.00  0.00     0.168 C 
BRANCH  23  24
HETATM   24  O4  UNL     1      15.734  33.680  16.274  1.00  0.00    -0.360 OA
BRANCH  24  25
HETATM   25  C9  UNL     1      15.188  34.187  17.313  1.00  0.00     0.174 C 
BRANCH  25  26
HETATM   26  C10 UNL     1      15.000  35.664  17.360  1.00  0.00     0.028 C 
BRANCH  26  27
HETATM   27  C11 UNL     1      16.172  36.456  16.768  1.00  0.00     0.021 C 
BRANCH  27  28
HETATM   28  C12 UNL     1      16.526  37.613  17.623  1.00  0.00     0.117 C 
BRANCH  28  29
HETATM   29  N3  UNL     1      17.840  37.480  18.236  1.00  0.00    -0.406 N 
HETATM   30  C13 UNL     1      18.823  38.346  17.672  1.00  0.00     0.137 C 
HETATM   31  C14 UNL     1      20.188  37.887  18.157  1.00  0.00     0.146 C 
HETATM   32  N4  UNL     1      20.521  36.607  17.636  1.00  0.00    -0.366 N 
HETATM   33  C22 UNL     1      19.406  35.751  17.600  1.00  0.00     0.083 C 
HETATM   34  C23 UNL     1      18.242  36.139  18.483  1.00  0.00     0.161 C 
BRANCH  32  35
HETATM   35  C15 UNL     1      21.804  36.113  17.891  1.00  0.00     0.101 C 
BRANCH  35  36
HETATM   36  C16 UNL     1      22.242  34.956  17.114  1.00  0.00    -0.021 A 
HETATM   37  C17 UNL     1      22.582  35.128  15.802  1.00  0.00     0.014 A 
HETATM   38  C18 UNL     1      23.000  34.051  15.053  1.00  0.00     0.020 A 
HETATM   39  C19 UNL     1      23.086  32.789  15.599  1.00  0.00     0.011 A 
HETATM   40 BR1  UNL     1      23.665  31.314  14.549  1.00  0.00    -0.051 Br
HETATM   41  C20 UNL     1      22.733  32.644  16.934  1.00  0.00     0.020 A 
HETATM   42  C21 UNL     1      22.319  33.720  17.668  1.00  0.00     0.014 A 
ENDBRANCH  35  36
ENDBRANCH  32  35
ENDBRANCH  28  29
ENDBRANCH  27  28
ENDBRANCH  26  27
ENDBRANCH  25  26
ENDBRANCH  24  25
ENDBRANCH  23  24
ENDBRANCH   1  23
TORSDOF 15
ENDMDL
