MODEL 1
REMARK VINA RESULT: -8.976223836      0.000      0.000
REMARK  12 active torsions:
REMARK  status: ('A' for Active; 'I' for Inactive)
REMARK    1  A    between atoms: O1_2  and  C2_3 
REMARK    2  A    between atoms: N1_5  and  C4_6 
REMARK    3  A    between atoms: N2_17  and  C15_18 
REMARK    4  A    between atoms: C15_18  and  C16_19 
REMARK    5  A    between atoms: C16_19  and  C17_20 
REMARK    6  A    between atoms: C17_20  and  C18_21 
REMARK    7  A    between atoms: C18_21  and  C19_22 
REMARK    8  A    between atoms: C19_22  and  C20_23 
REMARK       I    between atoms: C20_23  and  N3_25 
REMARK    9  A    between atoms: N3_25  and  C21_27 
REMARK   10  A    between atoms: C25_32  and  S1_33 
REMARK   11  A    between atoms: S1_33  and  N4_36 
REMARK   12  A    between atoms: N4_36  and  C26_38 
ROOT
HETATM    1  C18 UNL     1      21.742  37.486  16.138  1.00  0.00     0.009 C 
ENDROOT
BRANCH   1   2
HETATM    2  C17 UNL     1      21.752  38.928  16.538  1.00  0.00     0.002 C 
BRANCH   2   3
HETATM    3  C16 UNL     1      20.387  39.525  16.721  1.00  0.00     0.030 C 
BRANCH   3   4
HETATM    4  C15 UNL     1      19.994  39.319  18.168  1.00  0.00     0.276 C 
BRANCH   4   5
HETATM    5  N2  UNL     1      18.755  38.573  18.312  1.00  0.00     0.120 N 
HETATM    6  C2  UNL     1      19.081  37.172  18.197  1.00  0.00     0.376 C 
HETATM    7  C3  UNL     1      17.776  36.349  18.161  1.00  0.00     0.181 C 
HETATM    8  N1  UNL     1      17.126  36.703  16.957  1.00  0.00    -0.402 N 
HETATM    9  C13 UNL     1      16.744  38.068  16.955  1.00  0.00     0.147 C 
HETATM   10  C14 UNL     1      17.848  39.029  17.292  1.00  0.00     0.295 C 
BRANCH   6  11
HETATM   11  O1  UNL     1      19.868  36.784  19.255  1.00  0.00    -0.361 OA
HETATM   12  C1  UNL     1      19.729  35.421  19.482  1.00  0.00     0.204 C 
ENDBRANCH   6  11
BRANCH   8  13
HETATM   13  C4  UNL     1      16.151  35.850  16.415  1.00  0.00     0.083 C 
HETATM   14  C5  UNL     1      15.136  35.364  17.424  1.00  0.00     0.026 C 
HETATM   15  C6  UNL     1      15.010  33.893  17.187  1.00  0.00     0.007 C 
HETATM   16  C7  UNL     1      16.331  33.498  16.560  1.00  0.00    -0.008 C 
HETATM   17  C8  UNL     1      16.159  32.262  15.696  1.00  0.00     0.005 C 
HETATM   18  C12 UNL     1      16.578  34.668  15.634  1.00  0.00     0.012 C 
HETATM   19  C9  UNL     1      17.133  32.355  14.551  1.00  0.00     0.000 C 
HETATM   20  C10 UNL     1      18.369  33.167  14.952  1.00  0.00     0.000 C 
HETATM   21  C11 UNL     1      17.963  34.640  15.120  1.00  0.00     0.007 C 
ENDBRANCH   8  13
ENDBRANCH   4   5
ENDBRANCH   3   4
ENDBRANCH   2   3
ENDBRANCH   1   2
BRANCH   1  22
HETATM   22  C19 UNL     1      22.562  36.687  17.097  1.00  0.00     0.103 C 
BRANCH  22  23
HETATM   23  C20 UNL     1      22.556  35.221  16.718  1.00  0.00     0.222 C 
HETATM   24  O2  UNL     1      22.129  34.457  17.592  1.00  0.00    -0.273 OA
HETATM   25  N3  UNL     1      23.012  34.824  15.461  1.00  0.00    -0.327 N 
ATOM     26  H3  UNL     1      23.337  35.557  14.830  1.00  0.00     0.169 HD
BRANCH  25  27
HETATM   27  C21 UNL     1      23.062  33.504  14.990  1.00  0.00     0.036 A 
HETATM   28  C22 UNL     1      23.999  32.596  15.325  1.00  0.00     0.031 A 
HETATM   29  C23 UNL     1      23.960  31.292  14.805  1.00  0.00     0.028 A 
HETATM   30  C24 UNL     1      22.973  30.893  13.939  1.00  0.00     0.057 A 
HETATM   31 CL1  UNL     1      22.956  29.254  13.309  1.00  0.00    -0.083 Cl
HETATM   32  C25 UNL     1      21.989  31.824  13.578  1.00  0.00     0.103 A 
HETATM   33  C29 UNL     1      22.063  33.075  14.103  1.00  0.00     0.056 A 
BRANCH  32  34
HETATM   34  S1  UNL     1      20.782  31.247  12.475  1.00  0.00     0.260 S 
HETATM   35  O3  UNL     1      20.032  32.389  11.847  1.00  0.00    -0.200 OA
HETATM   36  O4  UNL     1      21.462  30.514  11.341  1.00  0.00    -0.200 OA
BRANCH  34  37
HETATM   37  N4  UNL     1      19.658  30.224  13.237  1.00  0.00    -0.311 N 
ATOM     38  H4  UNL     1      19.463  30.269  14.237  1.00  0.00     0.172 HD
BRANCH  37  39
HETATM   39  C26 UNL     1      19.003  29.292  12.360  1.00  0.00     0.093 A 
HETATM   40  C27 UNL     1      17.505  29.576  12.059  1.00  0.00     0.028 A 
HETATM   41  C28 UNL     1      17.924  28.447  12.968  1.00  0.00     0.028 A 
ENDBRANCH  37  39
ENDBRANCH  34  37
ENDBRANCH  32  34
ENDBRANCH  25  27
ENDBRANCH  22  23
ENDBRANCH   1  22
TORSDOF 12
ENDMDL
MODEL 2
REMARK VINA RESULT: -8.742409083      2.308      5.511
REMARK  12 active torsions:
REMARK  status: ('A' for Active; 'I' for Inactive)
REMARK    1  A    between atoms: O1_2  and  C2_3 
REMARK    2  A    between atoms: N1_5  and  C4_6 
REMARK    3  A    between atoms: N2_17  and  C15_18 
REMARK    4  A    between atoms: C15_18  and  C16_19 
REMARK    5  A    between atoms: C16_19  and  C17_20 
REMARK    6  A    between atoms: C17_20  and  C18_21 
REMARK    7  A    between atoms: C18_21  and  C19_22 
REMARK    8  A    between atoms: C19_22  and  C20_23 
REMARK       I    between atoms: C20_23  and  N3_25 
REMARK    9  A    between atoms: N3_25  and  C21_27 
REMARK   10  A    between atoms: C25_32  and  S1_33 
REMARK   11  A    between atoms: S1_33  and  N4_36 
REMARK   12  A    between atoms: N4_36  and  C26_38 
ROOT
HETATM    1  C18 UNL     1      15.615  32.750  15.891  1.00  0.00     0.009 C 
ENDROOT
BRANCH   1   2
HETATM    2  C17 UNL     1      15.383  34.226  15.972  1.00  0.00     0.002 C 
BRANCH   2   3
HETATM    3  C16 UNL     1      15.089  34.729  17.355  1.00  0.00     0.030 C 
BRANCH   3   4
HETATM    4  C15 UNL     1      15.421  36.205  17.380  1.00  0.00     0.276 C 
BRANCH   4   5
HETATM    5  N2  UNL     1      16.705  36.479  18.005  1.00  0.00     0.120 N 
HETATM    6  C2  UNL     1      17.567  37.031  16.988  1.00  0.00     0.376 C 
HETATM    7  C3  UNL     1      18.996  37.170  17.556  1.00  0.00     0.181 C 
HETATM    8  N1  UNL     1      19.452  35.852  17.788  1.00  0.00    -0.402 N 
HETATM    9  C13 UNL     1      18.681  35.204  18.785  1.00  0.00     0.147 C 
HETATM   10  C14 UNL     1      17.197  35.244  18.557  1.00  0.00     0.295 C 
BRANCH   6  11
HETATM   11  O1  UNL     1      17.089  38.253  16.579  1.00  0.00    -0.361 OA
HETATM   12  C1  UNL     1      17.992  39.256  16.907  1.00  0.00     0.204 C 
ENDBRANCH   6  11
BRANCH   8  13
HETATM   13  C4  UNL     1      20.829  35.601  17.896  1.00  0.00     0.083 C 
HETATM   14  C5  UNL     1      21.689  36.837  17.755  1.00  0.00     0.026 C 
HETATM   15  C6  UNL     1      22.787  36.454  16.814  1.00  0.00     0.007 C 
HETATM   16  C7  UNL     1      22.202  35.325  15.992  1.00  0.00    -0.008 C 
HETATM   17  C8  UNL     1      23.305  34.419  15.473  1.00  0.00     0.005 C 
HETATM   18  C12 UNL     1      21.442  34.555  17.049  1.00  0.00     0.012 C 
HETATM   19  C9  UNL     1      22.758  33.018  15.394  1.00  0.00     0.000 C 
HETATM   20  C10 UNL     1      21.244  33.037  15.157  1.00  0.00     0.000 C 
HETATM   21  C11 UNL     1      20.548  33.558  16.424  1.00  0.00     0.007 C 
ENDBRANCH   8  13
ENDBRANCH   4   5
ENDBRANCH   3   4
ENDBRANCH   2   3
ENDBRANCH   1   2
BRANCH   1  22
HETATM   22  C19 UNL     1      17.061  32.449  16.114  1.00  0.00     0.103 C 
BRANCH  22  23
HETATM   23  C20 UNL     1      17.638  31.686  14.941  1.00  0.00     0.222 C 
HETATM   24  O2  UNL     1      17.765  32.344  13.902  1.00  0.00    -0.273 OA
HETATM   25  N3  UNL     1      17.980  30.341  15.085  1.00  0.00    -0.327 N 
ATOM     26  H3  UNL     1      17.826  29.916  15.999  1.00  0.00     0.169 HD
BRANCH  25  27
HETATM   27  C21 UNL     1      18.516  29.524  14.080  1.00  0.00     0.036 A 
HETATM   28  C22 UNL     1      17.834  28.582  13.399  1.00  0.00     0.031 A 
HETATM   29  C23 UNL     1      18.458  27.817  12.402  1.00  0.00     0.028 A 
HETATM   30  C24 UNL     1      19.782  27.993  12.083  1.00  0.00     0.057 A 
HETATM   31 CL1  UNL     1      20.530  27.017  10.830  1.00  0.00    -0.083 Cl
HETATM   32  C25 UNL     1      20.508  28.967  12.782  1.00  0.00     0.103 A 
HETATM   33  C29 UNL     1      19.867  29.687  13.738  1.00  0.00     0.056 A 
BRANCH  32  34
HETATM   34  S1  UNL     1      22.175  29.125  12.328  1.00  0.00     0.260 S 
HETATM   35  O3  UNL     1      22.308  29.728  10.957  1.00  0.00    -0.200 OA
HETATM   36  O4  UNL     1      22.855  30.083  13.279  1.00  0.00    -0.200 OA
BRANCH  34  37
HETATM   37  N4  UNL     1      22.983  27.629  12.335  1.00  0.00    -0.311 N 
ATOM     38  H4  UNL     1      22.749  26.880  12.987  1.00  0.00     0.172 HD
BRANCH  37  39
HETATM   39  C26 UNL     1      24.022  27.503  11.350  1.00  0.00     0.093 A 
HETATM   40  C27 UNL     1      24.627  26.082  11.176  1.00  0.00     0.028 A 
HETATM   41  C28 UNL     1      25.395  27.183  11.863  1.00  0.00     0.028 A 
ENDBRANCH  37  39
ENDBRANCH  34  37
ENDBRANCH  32  34
ENDBRANCH  25  27
ENDBRANCH  22  23
ENDBRANCH   1  22
TORSDOF 12
ENDMDL
MODEL 3
REMARK VINA RESULT: -8.380112272      3.212      8.455
REMARK  12 active torsions:
REMARK  status: ('A' for Active; 'I' for Inactive)
REMARK    1  A    between atoms: O1_2  and  C2_3 
REMARK    2  A    between atoms: N1_5  and  C4_6 
REMARK    3  A    between atoms: N2_17  and  C15_18 
REMARK    4  A    between atoms: C15_18  and  C16_19 
REMARK    5  A    between atoms: C16_19  and  C17_20 
REMARK    6  A    between atoms: C17_20  and  C18_21 
REMARK    7  A    between atoms: C18_21  and  C19_22 
REMARK    8  A    between atoms: C19_22  and  C20_23 
REMARK       I    between atoms: C20_23  and  N3_25 
REMARK    9  A    between atoms: N3_25  and  C21_27 
REMARK   10  A    between atoms: C25_32  and  S1_33 
REMARK   11  A    between atoms: S1_33  and  N4_36 
REMARK   12  A    between atoms: N4_36  and  C26_38 
ROOT
HETATM    1  C18 UNL     1      15.378  34.088  15.703  1.00  0.00     0.009 C 
ENDROOT
BRANCH   1   2
HETATM    2  C17 UNL     1      16.427  33.035  15.877  1.00  0.00     0.002 C 
BRANCH   2   3
HETATM    3  C16 UNL     1      17.728  33.345  15.195  1.00  0.00     0.030 C 
BRANCH   3   4
HETATM    4  C15 UNL     1      18.741  33.657  16.275  1.00  0.00     0.276 C 
BRANCH   4   5
HETATM    5  N2  UNL     1      19.844  32.709  16.299  1.00  0.00     0.120 N 
HETATM    6  C2  UNL     1      20.526  32.813  15.032  1.00  0.00     0.376 C 
HETATM    7  C3  UNL     1      21.592  31.701  14.938  1.00  0.00     0.181 C 
HETATM    8  N1  UNL     1      20.879  30.481  14.903  1.00  0.00    -0.402 N 
HETATM    9  C13 UNL     1      20.168  30.260  16.110  1.00  0.00     0.147 C 
HETATM   10  C14 UNL     1      19.293  31.401  16.541  1.00  0.00     0.295 C 
BRANCH   6  11
HETATM   11  O1  UNL     1      21.110  34.052  14.913  1.00  0.00    -0.361 OA
HETATM   12  C1  UNL     1      22.492  33.928  14.853  1.00  0.00     0.204 C 
ENDBRANCH   6  11
BRANCH   8  13
HETATM   13  C4  UNL     1      21.499  29.325  14.402  1.00  0.00     0.083 C 
HETATM   14  C5  UNL     1      22.935  29.537  13.979  1.00  0.00     0.026 C 
HETATM   15  C6  UNL     1      23.059  28.881  12.641  1.00  0.00     0.007 C 
HETATM   16  C7  UNL     1      21.651  28.896  12.083  1.00  0.00    -0.008 C 
HETATM   17  C8  UNL     1      21.460  27.759  11.094  1.00  0.00     0.005 C 
HETATM   18  C12 UNL     1      20.842  28.564  13.317  1.00  0.00     0.012 C 
HETATM   19  C9  UNL     1      20.026  27.308  11.175  1.00  0.00     0.000 C 
HETATM   20  C10 UNL     1      19.115  28.463  11.605  1.00  0.00     0.000 C 
HETATM   21  C11 UNL     1      19.404  28.804  13.075  1.00  0.00     0.007 C 
ENDBRANCH   8  13
ENDBRANCH   4   5
ENDBRANCH   3   4
ENDBRANCH   2   3
ENDBRANCH   1   2
BRANCH   1  22
HETATM   22  C19 UNL     1      14.835  34.490  17.035  1.00  0.00     0.103 C 
BRANCH  22  23
HETATM   23  C20 UNL     1      15.781  35.441  17.736  1.00  0.00     0.222 C 
HETATM   24  O2  UNL     1      16.039  35.152  18.910  1.00  0.00    -0.273 OA
HETATM   25  N3  UNL     1      16.290  36.547  17.054  1.00  0.00    -0.327 N 
ATOM     26  H3  UNL     1      15.999  36.671  16.084  1.00  0.00     0.169 HD
BRANCH  25  27
HETATM   27  C21 UNL     1      17.167  37.502  17.586  1.00  0.00     0.036 A 
HETATM   28  C22 UNL     1      16.793  38.610  18.256  1.00  0.00     0.031 A 
HETATM   29  C23 UNL     1      17.749  39.506  18.760  1.00  0.00     0.028 A 
HETATM   30  C24 UNL     1      19.094  39.293  18.591  1.00  0.00     0.057 A 
HETATM   31 CL1  UNL     1      20.262  40.436  19.235  1.00  0.00    -0.083 Cl
HETATM   32  C25 UNL     1      19.502  38.146  17.896  1.00  0.00     0.103 A 
HETATM   33  C29 UNL     1      18.547  37.304  17.424  1.00  0.00     0.056 A 
BRANCH  32  34
HETATM   34  S1  UNL     1      21.216  37.951  17.716  1.00  0.00     0.260 S 
HETATM   35  O3  UNL     1      21.904  37.947  19.053  1.00  0.00    -0.200 OA
HETATM   36  O4  UNL     1      21.495  36.601  17.094  1.00  0.00    -0.200 OA
BRANCH  34  37
HETATM   37  N4  UNL     1      21.903  39.181  16.765  1.00  0.00    -0.311 N 
ATOM     38  H4  UNL     1      22.700  39.736  17.076  1.00  0.00     0.172 HD
BRANCH  37  39
HETATM   39  C26 UNL     1      21.272  39.378  15.489  1.00  0.00     0.093 A 
HETATM   40  C27 UNL     1      21.779  40.590  14.658  1.00  0.00     0.028 A 
HETATM   41  C28 UNL     1      20.433  40.613  15.341  1.00  0.00     0.028 A 
ENDBRANCH  37  39
ENDBRANCH  34  37
ENDBRANCH  32  34
ENDBRANCH  25  27
ENDBRANCH  22  23
ENDBRANCH   1  22
TORSDOF 12
ENDMDL
MODEL 4
REMARK VINA RESULT: -8.377874625      2.669      5.392
REMARK  12 active torsions:
REMARK  status: ('A' for Active; 'I' for Inactive)
REMARK    1  A    between atoms: O1_2  and  C2_3 
REMARK    2  A    between atoms: N1_5  and  C4_6 
REMARK    3  A    between atoms: N2_17  and  C15_18 
REMARK    4  A    between atoms: C15_18  and  C16_19 
REMARK    5  A    between atoms: C16_19  and  C17_20 
REMARK    6  A    between atoms: C17_20  and  C18_21 
REMARK    7  A    between atoms: C18_21  and  C19_22 
REMARK    8  A    between atoms: C19_22  and  C20_23 
REMARK       I    between atoms: C20_23  and  N3_25 
REMARK    9  A    between atoms: N3_25  and  C21_27 
REMARK   10  A    between atoms: C25_32  and  S1_33 
REMARK   11  A    between atoms: S1_33  and  N4_36 
REMARK   12  A    between atoms: N4_36  and  C26_38 
ROOT
HETATM    1  C18 UNL     1      16.697  33.559  15.478  1.00  0.00     0.009 C 
ENDROOT
BRANCH   1   2
HETATM    2  C17 UNL     1      15.334  34.059  15.841  1.00  0.00     0.002 C 
BRANCH   2   3
HETATM    3  C16 UNL     1      15.188  34.460  17.280  1.00  0.00     0.030 C 
BRANCH   3   4
HETATM    4  C15 UNL     1      15.357  35.962  17.350  1.00  0.00     0.276 C 
BRANCH   4   5
HETATM    5  N2  UNL     1      16.616  36.356  17.962  1.00  0.00     0.120 N 
HETATM    6  C2  UNL     1      17.473  36.838  16.905  1.00  0.00     0.376 C 
HETATM    7  C3  UNL     1      18.884  37.098  17.476  1.00  0.00     0.181 C 
HETATM    8  N1  UNL     1      19.391  35.832  17.849  1.00  0.00    -0.402 N 
HETATM    9  C13 UNL     1      18.630  35.256  18.897  1.00  0.00     0.147 C 
HETATM   10  C14 UNL     1      17.151  35.207  18.645  1.00  0.00     0.295 C 
BRANCH   6  11
HETATM   11  O1  UNL     1      16.951  37.989  16.365  1.00  0.00    -0.361 OA
HETATM   12  C1  UNL     1      17.454  39.101  17.027  1.00  0.00     0.204 C 
ENDBRANCH   6  11
BRANCH   8  13
HETATM   13  C4  UNL     1      20.776  35.655  18.003  1.00  0.00     0.083 C 
HETATM   14  C5  UNL     1      21.566  36.943  17.960  1.00  0.00     0.026 C 
HETATM   15  C6  UNL     1      22.720  36.674  17.049  1.00  0.00     0.007 C 
HETATM   16  C7  UNL     1      22.235  35.558  16.146  1.00  0.00    -0.008 C 
HETATM   17  C8  UNL     1      23.409  34.747  15.630  1.00  0.00     0.005 C 
HETATM   18  C12 UNL     1      21.482  34.691  17.130  1.00  0.00     0.012 C 
HETATM   19  C9  UNL     1      22.951  33.323  15.457  1.00  0.00     0.000 C 
HETATM   20  C10 UNL     1      21.449  33.267  15.157  1.00  0.00     0.000 C 
HETATM   21  C11 UNL     1      20.674  33.679  16.419  1.00  0.00     0.007 C 
ENDBRANCH   8  13
ENDBRANCH   4   5
ENDBRANCH   3   4
ENDBRANCH   2   3
ENDBRANCH   1   2
BRANCH   1  22
HETATM   22  C19 UNL     1      16.719  32.066  15.519  1.00  0.00     0.103 C 
BRANCH  22  23
HETATM   23  C20 UNL     1      17.808  31.520  14.620  1.00  0.00     0.222 C 
HETATM   24  O2  UNL     1      18.265  32.329  13.804  1.00  0.00    -0.273 OA
HETATM   25  N3  UNL     1      18.219  30.194  14.749  1.00  0.00    -0.327 N 
ATOM     26  H3  UNL     1      17.760  29.631  15.466  1.00  0.00     0.169 HD
BRANCH  25  27
HETATM   27  C21 UNL     1      19.209  29.567  13.979  1.00  0.00     0.036 A 
HETATM   28  C22 UNL     1      20.526  29.850  14.029  1.00  0.00     0.031 A 
HETATM   29  C23 UNL     1      21.444  29.161  13.221  1.00  0.00     0.028 A 
HETATM   30  C24 UNL     1      21.041  28.177  12.353  1.00  0.00     0.057 A 
HETATM   31 CL1  UNL     1      22.218  27.336  11.357  1.00  0.00    -0.083 Cl
HETATM   32  C25 UNL     1      19.675  27.869  12.287  1.00  0.00     0.103 A 
HETATM   33  C29 UNL     1      18.819  28.559  13.084  1.00  0.00     0.056 A 
BRANCH  32  34
HETATM   34  S1  UNL     1      19.243  26.623  11.161  1.00  0.00     0.260 S 
HETATM   35  O3  UNL     1      20.092  25.398  11.358  1.00  0.00    -0.200 OA
HETATM   36  O4  UNL     1      17.817  26.195  11.424  1.00  0.00    -0.200 OA
BRANCH  34  37
HETATM   37  N4  UNL     1      19.408  27.134   9.548  1.00  0.00    -0.311 N 
ATOM     38  H4  UNL     1      20.317  27.295   9.112  1.00  0.00     0.172 HD
BRANCH  37  39
HETATM   39  C26 UNL     1      18.168  27.320   8.846  1.00  0.00     0.093 A 
HETATM   40  C27 UNL     1      17.766  26.188   7.860  1.00  0.00     0.028 A 
HETATM   41  C28 UNL     1      18.262  27.523   7.363  1.00  0.00     0.028 A 
ENDBRANCH  37  39
ENDBRANCH  34  37
ENDBRANCH  32  34
ENDBRANCH  25  27
ENDBRANCH  22  23
ENDBRANCH   1  22
TORSDOF 12
ENDMDL
MODEL 5
REMARK VINA RESULT: -8.318072383      2.945      5.329
REMARK  12 active torsions:
REMARK  status: ('A' for Active; 'I' for Inactive)
REMARK    1  A    between atoms: O1_2  and  C2_3 
REMARK    2  A    between atoms: N1_5  and  C4_6 
REMARK    3  A    between atoms: N2_17  and  C15_18 
REMARK    4  A    between atoms: C15_18  and  C16_19 
REMARK    5  A    between atoms: C16_19  and  C17_20 
REMARK    6  A    between atoms: C17_20  and  C18_21 
REMARK    7  A    between atoms: C18_21  and  C19_22 
REMARK    8  A    between atoms: C19_22  and  C20_23 
REMARK       I    between atoms: C20_23  and  N3_25 
REMARK    9  A    between atoms: N3_25  and  C21_27 
REMARK   10  A    between atoms: C25_32  and  S1_33 
REMARK   11  A    between atoms: S1_33  and  N4_36 
REMARK   12  A    between atoms: N4_36  and  C26_38 
ROOT
HETATM    1  C18 UNL     1      23.150  32.098  13.997  1.00  0.00     0.009 C 
ENDROOT
BRANCH   1   2
HETATM    2  C17 UNL     1      24.068  33.166  14.503  1.00  0.00     0.002 C 
BRANCH   2   3
HETATM    3  C16 UNL     1      23.512  33.964  15.647  1.00  0.00     0.030 C 
BRANCH   3   4
HETATM    4  C15 UNL     1      23.069  32.982  16.710  1.00  0.00     0.276 C 
BRANCH   4   5
HETATM    5  N2  UNL     1      21.853  33.401  17.387  1.00  0.00     0.120 N 
HETATM    6  C2  UNL     1      20.744  33.051  16.532  1.00  0.00     0.376 C 
HETATM    7  C3  UNL     1      19.444  33.637  17.122  1.00  0.00     0.181 C 
HETATM    8  N1  UNL     1      19.578  35.041  17.038  1.00  0.00    -0.402 N 
HETATM    9  C13 UNL     1      20.639  35.511  17.852  1.00  0.00     0.147 C 
HETATM   10  C14 UNL     1      21.953  34.815  17.634  1.00  0.00     0.295 C 
BRANCH   6  11
HETATM   11  O1  UNL     1      20.650  31.684  16.420  1.00  0.00    -0.361 OA
HETATM   12  C1  UNL     1      19.322  31.286  16.496  1.00  0.00     0.204 C 
ENDBRANCH   6  11
BRANCH   8  13
HETATM   13  C4  UNL     1      18.434  35.855  17.090  1.00  0.00     0.083 C 
HETATM   14  C5  UNL     1      18.154  36.428  18.461  1.00  0.00     0.026 C 
HETATM   15  C6  UNL     1      16.693  36.209  18.694  1.00  0.00     0.007 C 
HETATM   16  C7  UNL     1      16.345  35.023  17.819  1.00  0.00    -0.008 C 
HETATM   17  C8  UNL     1      14.877  35.062  17.431  1.00  0.00     0.005 C 
HETATM   18  C12 UNL     1      17.150  35.329  16.576  1.00  0.00     0.012 C 
HETATM   19  C9  UNL     1      14.741  34.456  16.060  1.00  0.00     0.000 C 
HETATM   20  C10 UNL     1      15.846  33.423  15.809  1.00  0.00     0.000 C 
HETATM   21  C11 UNL     1      17.191  34.154  15.681  1.00  0.00     0.007 C 
ENDBRANCH   8  13
ENDBRANCH   4   5
ENDBRANCH   3   4
ENDBRANCH   2   3
ENDBRANCH   1   2
BRANCH   1  22
HETATM   22  C19 UNL     1      21.933  32.717  13.393  1.00  0.00     0.103 C 
BRANCH  22  23
HETATM   23  C20 UNL     1      21.030  31.658  12.799  1.00  0.00     0.222 C 
HETATM   24  O2  UNL     1      20.464  31.983  11.749  1.00  0.00    -0.273 OA
HETATM   25  N3  UNL     1      20.886  30.426  13.438  1.00  0.00    -0.327 N 
ATOM     26  H3  UNL     1      21.412  30.284  14.301  1.00  0.00     0.169 HD
BRANCH  25  27
HETATM   27  C21 UNL     1      20.081  29.366  12.997  1.00  0.00     0.036 A 
HETATM   28  C22 UNL     1      18.775  29.210  13.289  1.00  0.00     0.031 A 
HETATM   29  C23 UNL     1      18.049  28.116  12.792  1.00  0.00     0.028 A 
HETATM   30  C24 UNL     1      18.637  27.166  11.994  1.00  0.00     0.057 A 
HETATM   31 CL1  UNL     1      17.697  25.810  11.391  1.00  0.00    -0.083 Cl
HETATM   32  C25 UNL     1      19.995  27.311  11.680  1.00  0.00     0.103 A 
HETATM   33  C29 UNL     1      20.661  28.383  12.181  1.00  0.00     0.056 A 
BRANCH  32  34
HETATM   34  S1  UNL     1      20.667  26.067  10.676  1.00  0.00     0.260 S 
HETATM   35  O3  UNL     1      20.712  24.751  11.402  1.00  0.00    -0.200 OA
HETATM   36  O4  UNL     1      19.765  25.859   9.481  1.00  0.00    -0.200 OA
BRANCH  34  37
HETATM   37  N4  UNL     1      22.241  26.445  10.157  1.00  0.00    -0.311 N 
ATOM     38  H4  UNL     1      22.428  26.946   9.288  1.00  0.00     0.172 HD
BRANCH  37  39
HETATM   39  C26 UNL     1      23.287  26.003  11.038  1.00  0.00     0.093 A 
HETATM   40  C27 UNL     1      24.065  27.121  11.786  1.00  0.00     0.028 A 
HETATM   41  C28 UNL     1      24.689  26.360  10.643  1.00  0.00     0.028 A 
ENDBRANCH  37  39
ENDBRANCH  34  37
ENDBRANCH  32  34
ENDBRANCH  25  27
ENDBRANCH  22  23
ENDBRANCH   1  22
TORSDOF 12
ENDMDL
