MODEL 1
REMARK VINA RESULT: -8.394571293      0.000      0.000
REMARK  11 active torsions:
REMARK  status: ('A' for Active; 'I' for Inactive)
REMARK    1  A    between atoms: C2_2  and  C3_3 
REMARK    2  A    between atoms: C3_3  and  C4_4 
REMARK    3  A    between atoms: C4_4  and  C5_5 
REMARK       I    between atoms: C5_5  and  N1_7 
REMARK    4  A    between atoms: N1_7  and  C6_8 
REMARK    5  A    between atoms: C6_8  and  C7_9 
REMARK    6  A    between atoms: C7_9  and  C8_10 
REMARK       I    between atoms: C8_10  and  N2_12 
REMARK    7  A    between atoms: N2_12  and  C9_14 
REMARK    8  A    between atoms: C10_15  and  C11_16 
REMARK    9  A    between atoms: C10_15  and  C25_34 
REMARK   10  A    between atoms: C12_18  and  C13_19 
REMARK   11  A    between atoms: N3_39  and  C30_40 
ROOT
HETATM    1  C9  UNL     1      19.828  31.737  16.066  1.00  0.00     0.101 C 
HETATM    2  C10 UNL     1      20.555  32.673  15.240  1.00  0.00    -0.001 C 
ENDROOT
BRANCH   2   3
HETATM    3  C11 UNL     1      20.918  33.917  16.041  1.00  0.00     0.036 A 
HETATM    4  S1  UNL     1      20.455  35.539  15.905  1.00  0.00    -0.091 SA
HETATM    5  C12 UNL     1      21.475  36.250  17.072  1.00  0.00     0.004 A 
HETATM    6  C23 UNL     1      22.158  35.185  17.551  1.00  0.00     0.041 A 
HETATM    7  C24 UNL     1      21.877  33.967  17.025  1.00  0.00     0.052 A 
HETATM    8 CL1  UNL     1      22.666  32.514  17.762  1.00  0.00    -0.083 Cl
BRANCH   5   9
HETATM    9  C13 UNL     1      21.631  37.689  17.437  1.00  0.00     0.082 C 
HETATM   10  C14 UNL     1      21.160  38.619  16.379  1.00  0.00     0.026 C 
HETATM   11  C15 UNL     1      22.133  39.738  16.041  1.00  0.00     0.007 C 
HETATM   12  C16 UNL     1      22.680  40.350  17.300  1.00  0.00    -0.008 C 
HETATM   13  C17 UNL     1      21.599  40.935  18.169  1.00  0.00     0.037 C 
HETATM   14  C20 UNL     1      23.405  39.331  18.140  1.00  0.00    -0.006 C 
HETATM   15  C18 UNL     1      21.663  40.205  19.512  1.00  0.00     0.132 C 
HETATM   16  C19 UNL     1      23.093  39.710  19.554  1.00  0.00     0.037 C 
HETATM   17  O3  UNL     1      20.747  39.130  19.433  1.00  0.00    -0.315 OA
HETATM   18  C22 UNL     1      20.867  37.974  18.700  1.00  0.00     0.273 C 
HETATM   19  O4  UNL     1      20.227  37.004  19.175  1.00  0.00    -0.264 OA
HETATM   20  C21 UNL     1      23.095  37.910  17.770  1.00  0.00     0.030 C 
ENDBRANCH   5   9
ENDBRANCH   2   3
BRANCH   2  21
HETATM   21  C25 UNL     1      21.525  32.296  14.182  1.00  0.00     0.119 C 
HETATM   22  C26 UNL     1      20.687  32.142  12.914  1.00  0.00     0.030 C 
HETATM   23  C27 UNL     1      21.028  31.012  12.041  1.00  0.00     0.007 C 
HETATM   24  C28 UNL     1      21.930  29.950  12.508  1.00  0.00     0.044 C 
HETATM   25  C29 UNL     1      22.072  29.932  13.972  1.00  0.00     0.059 C 
HETATM   26  N3  UNL     1      22.310  31.187  14.530  1.00  0.00    -0.385 N 
BRANCH  26  27
HETATM   27  C30 UNL     1      23.652  31.436  14.905  1.00  0.00     0.118 C 
HETATM   28  C31 UNL     1      24.205  32.777  14.518  1.00  0.00     0.026 C 
ENDBRANCH  26  27
ENDBRANCH   2  21
BRANCH   1  29
HETATM   29  N2  UNL     1      18.521  32.129  16.534  1.00  0.00    -0.336 N 
HETATM   30  C8  UNL     1      17.411  31.930  15.666  1.00  0.00     0.227 C 
HETATM   31  O2  UNL     1      17.591  31.445  14.506  1.00  0.00    -0.273 OA
ATOM     32  H2  UNL     1      18.396  32.537  17.461  1.00  0.00     0.168 HD
BRANCH  30  33
HETATM   33  C7  UNL     1      15.987  32.234  16.018  1.00  0.00     0.162 C 
BRANCH  33  34
HETATM   34  C6  UNL     1      15.917  33.784  16.074  1.00  0.00     0.168 C 
BRANCH  34  35
HETATM   35  N1  UNL     1      16.565  34.462  16.999  1.00  0.00    -0.387 NA
HETATM   36  C5  UNL     1      17.263  35.164  17.985  1.00  0.00     0.290 C 
HETATM   37  O1  UNL     1      18.237  34.754  18.642  1.00  0.00    -0.257 OA
BRANCH  36  38
HETATM   38  C4  UNL     1      16.825  36.567  18.357  1.00  0.00     0.119 C 
BRANCH  38  39
HETATM   39  C3  UNL     1      16.808  37.292  17.011  1.00  0.00     0.010 C 
BRANCH  39  40
HETATM   40  C2  UNL     1      17.528  38.596  17.110  1.00  0.00    -0.004 C 
HETATM   41  C1  UNL     1      17.284  39.133  18.526  1.00  0.00     0.005 C 
ENDBRANCH  39  40
ENDBRANCH  38  39
ENDBRANCH  36  38
ENDBRANCH  34  35
ENDBRANCH  33  34
ENDBRANCH  30  33
ENDBRANCH   1  29
TORSDOF 11
ENDMDL
MODEL 2
REMARK VINA RESULT: -8.258884437      3.163      8.261
REMARK  11 active torsions:
REMARK  status: ('A' for Active; 'I' for Inactive)
REMARK    1  A    between atoms: C2_2  and  C3_3 
REMARK    2  A    between atoms: C3_3  and  C4_4 
REMARK    3  A    between atoms: C4_4  and  C5_5 
REMARK       I    between atoms: C5_5  and  N1_7 
REMARK    4  A    between atoms: N1_7  and  C6_8 
REMARK    5  A    between atoms: C6_8  and  C7_9 
REMARK    6  A    between atoms: C7_9  and  C8_10 
REMARK       I    between atoms: C8_10  and  N2_12 
REMARK    7  A    between atoms: N2_12  and  C9_14 
REMARK    8  A    between atoms: C10_15  and  C11_16 
REMARK    9  A    between atoms: C10_15  and  C25_34 
REMARK   10  A    between atoms: C12_18  and  C13_19 
REMARK   11  A    between atoms: N3_39  and  C30_40 
ROOT
HETATM    1  C9  UNL     1      18.797  34.081  15.196  1.00  0.00     0.101 C 
HETATM    2  C10 UNL     1      19.999  33.286  15.302  1.00  0.00    -0.001 C 
ENDROOT
BRANCH   2   3
HETATM    3  C11 UNL     1      19.802  31.936  14.624  1.00  0.00     0.036 A 
HETATM    4  S1  UNL     1      19.455  31.499  13.027  1.00  0.00    -0.091 SA
HETATM    5  C12 UNL     1      19.224  29.819  13.210  1.00  0.00     0.004 A 
HETATM    6  C23 UNL     1      19.433  29.637  14.534  1.00  0.00     0.041 A 
HETATM    7  C24 UNL     1      19.736  30.729  15.280  1.00  0.00     0.052 A 
HETATM    8 CL1  UNL     1      20.173  30.482  17.019  1.00  0.00    -0.083 Cl
BRANCH   5   9
HETATM    9  C13 UNL     1      18.826  28.805  12.189  1.00  0.00     0.082 C 
HETATM   10  C14 UNL     1      17.941  29.352  11.130  1.00  0.00     0.026 C 
HETATM   11  C15 UNL     1      16.707  28.510  10.840  1.00  0.00     0.007 C 
HETATM   12  C16 UNL     1      17.080  27.056  10.742  1.00  0.00    -0.008 C 
HETATM   13  C17 UNL     1      18.077  26.795   9.644  1.00  0.00     0.037 C 
HETATM   14  C20 UNL     1      17.703  26.558  12.019  1.00  0.00    -0.006 C 
HETATM   15  C18 UNL     1      19.317  26.188  10.305  1.00  0.00     0.132 C 
HETATM   16  C19 UNL     1      18.757  25.592  11.579  1.00  0.00     0.037 C 
HETATM   17  O3  UNL     1      20.196  27.261  10.580  1.00  0.00    -0.315 OA
HETATM   18  C22 UNL     1      20.058  28.238  11.537  1.00  0.00     0.273 C 
HETATM   19  O4  UNL     1      21.147  28.731  11.920  1.00  0.00    -0.264 OA
HETATM   20  C21 UNL     1      18.174  27.653  12.932  1.00  0.00     0.030 C 
ENDBRANCH   5   9
ENDBRANCH   2   3
BRANCH   2  21
HETATM   21  C25 UNL     1      21.381  33.825  15.250  1.00  0.00     0.119 C 
HETATM   22  C26 UNL     1      22.048  33.089  14.090  1.00  0.00     0.030 C 
HETATM   23  C27 UNL     1      23.438  32.665  14.301  1.00  0.00     0.007 C 
HETATM   24  C28 UNL     1      24.039  32.706  15.642  1.00  0.00     0.044 C 
HETATM   25  C29 UNL     1      23.031  32.786  16.710  1.00  0.00     0.059 C 
HETATM   26  N3  UNL     1      22.044  33.746  16.483  1.00  0.00    -0.385 N 
BRANCH  26  27
HETATM   27  C30 UNL     1      22.190  34.947  17.217  1.00  0.00     0.118 C 
HETATM   28  C31 UNL     1      21.929  36.217  16.460  1.00  0.00     0.026 C 
ENDBRANCH  26  27
ENDBRANCH   2  21
BRANCH   1  29
HETATM   29  N2  UNL     1      17.621  33.617  15.891  1.00  0.00    -0.336 N 
HETATM   30  C8  UNL     1      16.379  34.249  15.603  1.00  0.00     0.227 C 
HETATM   31  O2  UNL     1      16.333  35.212  14.774  1.00  0.00    -0.273 OA
ATOM     32  H2  UNL     1      17.678  32.857  16.569  1.00  0.00     0.168 HD
BRANCH  30  33
HETATM   33  C7  UNL     1      15.062  33.853  16.196  1.00  0.00     0.162 C 
BRANCH  33  34
HETATM   34  C6  UNL     1      15.172  34.243  17.695  1.00  0.00     0.168 C 
BRANCH  34  35
HETATM   35  N1  UNL     1      16.133  35.037  18.122  1.00  0.00    -0.387 NA
HETATM   36  C5  UNL     1      17.162  35.864  18.580  1.00  0.00     0.290 C 
HETATM   37  O1  UNL     1      18.267  35.501  19.021  1.00  0.00    -0.257 OA
BRANCH  36  38
HETATM   38  C4  UNL     1      16.967  37.367  18.590  1.00  0.00     0.119 C 
BRANCH  38  39
HETATM   39  C3  UNL     1      17.139  37.748  17.119  1.00  0.00     0.010 C 
BRANCH  39  40
HETATM   40  C2  UNL     1      17.894  39.029  16.995  1.00  0.00    -0.004 C 
HETATM   41  C1  UNL     1      16.857  40.159  16.986  1.00  0.00     0.005 C 
ENDBRANCH  39  40
ENDBRANCH  38  39
ENDBRANCH  36  38
ENDBRANCH  34  35
ENDBRANCH  33  34
ENDBRANCH  30  33
ENDBRANCH   1  29
TORSDOF 11
ENDMDL
MODEL 3
REMARK VINA RESULT: -8.246078634      3.648     10.406
REMARK  11 active torsions:
REMARK  status: ('A' for Active; 'I' for Inactive)
REMARK    1  A    between atoms: C2_2  and  C3_3 
REMARK    2  A    between atoms: C3_3  and  C4_4 
REMARK    3  A    between atoms: C4_4  and  C5_5 
REMARK       I    between atoms: C5_5  and  N1_7 
REMARK    4  A    between atoms: N1_7  and  C6_8 
REMARK    5  A    between atoms: C6_8  and  C7_9 
REMARK    6  A    between atoms: C7_9  and  C8_10 
REMARK       I    between atoms: C8_10  and  N2_12 
REMARK    7  A    between atoms: N2_12  and  C9_14 
REMARK    8  A    between atoms: C10_15  and  C11_16 
REMARK    9  A    between atoms: C10_15  and  C25_34 
REMARK   10  A    between atoms: C12_18  and  C13_19 
REMARK   11  A    between atoms: N3_39  and  C30_40 
ROOT
HETATM    1  C9  UNL     1      20.051  31.176  16.820  1.00  0.00     0.101 C 
HETATM    2  C10 UNL     1      19.033  31.826  16.028  1.00  0.00    -0.001 C 
ENDROOT
BRANCH   2   3
HETATM    3  C11 UNL     1      18.786  31.050  14.740  1.00  0.00     0.036 A 
HETATM    4  S1  UNL     1      18.259  29.470  14.443  1.00  0.00    -0.091 SA
HETATM    5  C12 UNL     1      18.455  29.393  12.750  1.00  0.00     0.004 A 
HETATM    6  C23 UNL     1      18.929  30.625  12.454  1.00  0.00     0.041 A 
HETATM    7  C24 UNL     1      19.104  31.496  13.480  1.00  0.00     0.052 A 
HETATM    8 CL1  UNL     1      19.585  33.195  13.085  1.00  0.00    -0.083 Cl
BRANCH   5   9
HETATM    9  C13 UNL     1      18.228  28.242  11.826  1.00  0.00     0.082 C 
HETATM   10  C14 UNL     1      17.861  26.987  12.528  1.00  0.00     0.026 C 
HETATM   11  C15 UNL     1      18.646  25.761  12.086  1.00  0.00     0.007 C 
HETATM   12  C16 UNL     1      18.731  25.711  10.586  1.00  0.00    -0.008 C 
HETATM   13  C17 UNL     1      17.374  25.638   9.939  1.00  0.00     0.037 C 
HETATM   14  C20 UNL     1      19.411  26.935  10.029  1.00  0.00    -0.006 C 
HETATM   15  C18 UNL     1      17.245  26.868   9.037  1.00  0.00     0.132 C 
HETATM   16  C19 UNL     1      18.688  27.225   8.751  1.00  0.00     0.037 C 
HETATM   17  O3  UNL     1      16.608  27.870   9.806  1.00  0.00    -0.315 OA
HETATM   18  C22 UNL     1      17.133  28.586  10.855  1.00  0.00     0.273 C 
HETATM   19  O4  UNL     1      16.600  29.711  11.018  1.00  0.00    -0.264 OA
HETATM   20  C21 UNL     1      19.490  28.078  10.999  1.00  0.00     0.030 C 
ENDBRANCH   5   9
ENDBRANCH   2   3
BRANCH   2  21
HETATM   21  C25 UNL     1      17.848  32.530  16.580  1.00  0.00     0.119 C 
HETATM   22  C26 UNL     1      16.656  31.954  15.817  1.00  0.00     0.030 C 
HETATM   23  C27 UNL     1      15.618  32.911  15.415  1.00  0.00     0.007 C 
HETATM   24  C28 UNL     1      15.857  34.358  15.501  1.00  0.00     0.044 C 
HETATM   25  C29 UNL     1      17.287  34.689  15.602  1.00  0.00     0.059 C 
HETATM   26  N3  UNL     1      17.976  33.926  16.544  1.00  0.00    -0.385 N 
BRANCH  26  27
HETATM   27  C30 UNL     1      18.251  34.581  17.768  1.00  0.00     0.118 C 
HETATM   28  C31 UNL     1      19.139  35.788  17.682  1.00  0.00     0.026 C 
ENDBRANCH  26  27
ENDBRANCH   2  21
BRANCH   1  29
HETATM   29  N2  UNL     1      21.391  31.133  16.288  1.00  0.00    -0.336 N 
HETATM   30  C8  UNL     1      22.125  32.351  16.222  1.00  0.00     0.227 C 
HETATM   31  O2  UNL     1      21.588  33.438  16.601  1.00  0.00    -0.273 OA
ATOM     32  H2  UNL     1      21.801  30.255  15.968  1.00  0.00     0.168 HD
BRANCH  30  33
HETATM   33  C7  UNL     1      23.541  32.469  15.746  1.00  0.00     0.162 C 
BRANCH  33  34
HETATM   34  C6  UNL     1      23.486  32.076  14.245  1.00  0.00     0.168 C 
BRANCH  34  35
HETATM   35  N1  UNL     1      22.976  30.923  13.862  1.00  0.00    -0.387 NA
HETATM   36  C5  UNL     1      22.431  29.696  13.475  1.00  0.00     0.290 C 
HETATM   37  O1  UNL     1      21.867  28.867  14.211  1.00  0.00    -0.257 OA
BRANCH  36  38
HETATM   38  C4  UNL     1      22.524  29.259  12.026  1.00  0.00     0.119 C 
BRANCH  38  39
HETATM   39  C3  UNL     1      23.138  27.862  12.126  1.00  0.00     0.010 C 
BRANCH  39  40
HETATM   40  C2  UNL     1      24.228  27.697  11.120  1.00  0.00    -0.004 C 
HETATM   41  C1  UNL     1      25.418  27.064  11.853  1.00  0.00     0.005 C 
ENDBRANCH  39  40
ENDBRANCH  38  39
ENDBRANCH  36  38
ENDBRANCH  34  35
ENDBRANCH  33  34
ENDBRANCH  30  33
ENDBRANCH   1  29
TORSDOF 11
ENDMDL
MODEL 4
REMARK VINA RESULT: -7.988430559      3.579      7.067
REMARK  11 active torsions:
REMARK  status: ('A' for Active; 'I' for Inactive)
REMARK    1  A    between atoms: C2_2  and  C3_3 
REMARK    2  A    between atoms: C3_3  and  C4_4 
REMARK    3  A    between atoms: C4_4  and  C5_5 
REMARK       I    between atoms: C5_5  and  N1_7 
REMARK    4  A    between atoms: N1_7  and  C6_8 
REMARK    5  A    between atoms: C6_8  and  C7_9 
REMARK    6  A    between atoms: C7_9  and  C8_10 
REMARK       I    between atoms: C8_10  and  N2_12 
REMARK    7  A    between atoms: N2_12  and  C9_14 
REMARK    8  A    between atoms: C10_15  and  C11_16 
REMARK    9  A    between atoms: C10_15  and  C25_34 
REMARK   10  A    between atoms: C12_18  and  C13_19 
REMARK   11  A    between atoms: N3_39  and  C30_40 
ROOT
HETATM    1  C9  UNL     1      20.486  28.801  11.980  1.00  0.00     0.101 C 
HETATM    2  C10 UNL     1      19.183  28.726  12.600  1.00  0.00    -0.001 C 
ENDROOT
BRANCH   2   3
HETATM    3  C11 UNL     1      18.879  30.015  13.352  1.00  0.00     0.036 A 
HETATM    4  S1  UNL     1      17.892  30.354  14.684  1.00  0.00    -0.091 SA
HETATM    5  C12 UNL     1      18.002  32.056  14.723  1.00  0.00     0.004 A 
HETATM    6  C23 UNL     1      18.825  32.320  13.683  1.00  0.00     0.041 A 
HETATM    7  C24 UNL     1      19.289  31.268  12.963  1.00  0.00     0.052 A 
HETATM    8 CL1  UNL     1      20.513  31.591  11.669  1.00  0.00    -0.083 Cl
BRANCH   5   9
HETATM    9  C13 UNL     1      17.316  33.024  15.630  1.00  0.00     0.082 C 
HETATM   10  C14 UNL     1      16.011  32.532  16.138  1.00  0.00     0.026 C 
HETATM   11  C15 UNL     1      14.869  33.530  16.018  1.00  0.00     0.007 C 
HETATM   12  C16 UNL     1      15.316  34.891  16.476  1.00  0.00    -0.008 C 
HETATM   13  C17 UNL     1      15.771  34.890  17.911  1.00  0.00     0.037 C 
HETATM   14  C20 UNL     1      16.474  35.396  15.655  1.00  0.00    -0.006 C 
HETATM   15  C18 UNL     1      17.230  35.350  17.915  1.00  0.00     0.132 C 
HETATM   16  C19 UNL     1      17.335  36.140  16.627  1.00  0.00     0.037 C 
HETATM   17  O3  UNL     1      18.023  34.180  17.868  1.00  0.00    -0.315 OA
HETATM   18  C22 UNL     1      18.204  33.327  16.805  1.00  0.00     0.273 C 
HETATM   19  O4  UNL     1      19.294  32.704  16.834  1.00  0.00    -0.264 OA
HETATM   20  C21 UNL     1      17.170  34.327  14.865  1.00  0.00     0.030 C 
ENDBRANCH   5   9
ENDBRANCH   2   3
BRANCH   2  21
HETATM   21  C25 UNL     1      18.004  28.040  12.016  1.00  0.00     0.119 C 
HETATM   22  C26 UNL     1      18.117  26.591  12.487  1.00  0.00     0.030 C 
HETATM   23  C27 UNL     1      17.781  25.557  11.500  1.00  0.00     0.007 C 
HETATM   24  C28 UNL     1      17.621  25.900  10.080  1.00  0.00     0.044 C 
HETATM   25  C29 UNL     1      18.225  27.198   9.741  1.00  0.00     0.059 C 
HETATM   26  N3  UNL     1      17.896  28.221  10.630  1.00  0.00    -0.385 N 
BRANCH  26  27
HETATM   27  C30 UNL     1      16.910  29.126  10.170  1.00  0.00     0.118 C 
HETATM   28  C31 UNL     1      15.803  29.439  11.135  1.00  0.00     0.026 C 
ENDBRANCH  26  27
ENDBRANCH   2  21
BRANCH   1  29
HETATM   29  N2  UNL     1      21.639  28.869  12.844  1.00  0.00    -0.336 N 
HETATM   30  C8  UNL     1      22.928  28.885  12.242  1.00  0.00     0.227 C 
HETATM   31  O2  UNL     1      23.040  28.813  10.979  1.00  0.00    -0.273 OA
ATOM     32  H2  UNL     1      21.532  28.905  13.858  1.00  0.00     0.168 HD
BRANCH  30  33
HETATM   33  C7  UNL     1      24.219  29.005  12.993  1.00  0.00     0.162 C 
BRANCH  33  34
HETATM   34  C6  UNL     1      23.843  29.740  14.308  1.00  0.00     0.168 C 
BRANCH  34  35
HETATM   35  N1  UNL     1      23.736  31.052  14.347  1.00  0.00    -0.387 NA
HETATM   36  C5  UNL     1      23.643  32.446  14.388  1.00  0.00     0.290 C 
HETATM   37  O1  UNL     1      24.583  33.257  14.322  1.00  0.00    -0.257 OA
BRANCH  36  38
HETATM   38  C4  UNL     1      22.285  33.101  14.554  1.00  0.00     0.119 C 
BRANCH  38  39
HETATM   39  C3  UNL     1      22.636  34.502  15.057  1.00  0.00     0.010 C 
BRANCH  39  40
HETATM   40  C2  UNL     1      21.492  35.087  15.815  1.00  0.00    -0.004 C 
HETATM   41  C1  UNL     1      21.867  35.031  17.301  1.00  0.00     0.005 C 
ENDBRANCH  39  40
ENDBRANCH  38  39
ENDBRANCH  36  38
ENDBRANCH  34  35
ENDBRANCH  33  34
ENDBRANCH  30  33
ENDBRANCH   1  29
TORSDOF 11
ENDMDL
MODEL 5
REMARK VINA RESULT: -7.860743576      2.676      5.947
REMARK  11 active torsions:
REMARK  status: ('A' for Active; 'I' for Inactive)
REMARK    1  A    between atoms: C2_2  and  C3_3 
REMARK    2  A    between atoms: C3_3  and  C4_4 
REMARK    3  A    between atoms: C4_4  and  C5_5 
REMARK       I    between atoms: C5_5  and  N1_7 
REMARK    4  A    between atoms: N1_7  and  C6_8 
REMARK    5  A    between atoms: C6_8  and  C7_9 
REMARK    6  A    between atoms: C7_9  and  C8_10 
REMARK       I    between atoms: C8_10  and  N2_12 
REMARK    7  A    between atoms: N2_12  and  C9_14 
REMARK    8  A    between atoms: C10_15  and  C11_16 
REMARK    9  A    between atoms: C10_15  and  C25_34 
REMARK   10  A    between atoms: C12_18  and  C13_19 
REMARK   11  A    between atoms: N3_39  and  C30_40 
ROOT
HETATM    1  C9  UNL     1      22.870  30.419  13.758  1.00  0.00     0.101 C 
HETATM    2  C10 UNL     1      21.631  29.816  14.195  1.00  0.00    -0.001 C 
ENDROOT
BRANCH   2   3
HETATM    3  C11 UNL     1      20.591  30.891  14.481  1.00  0.00     0.036 A 
HETATM    4  S1  UNL     1      19.740  31.312  15.882  1.00  0.00    -0.091 SA
HETATM    5  C12 UNL     1      18.668  32.479  15.252  1.00  0.00     0.004 A 
HETATM    6  C23 UNL     1      19.010  32.516  13.943  1.00  0.00     0.041 A 
HETATM    7  C24 UNL     1      20.010  31.696  13.531  1.00  0.00     0.052 A 
HETATM    8 CL1  UNL     1      20.587  31.845  11.822  1.00  0.00    -0.083 Cl
BRANCH   5   9
HETATM    9  C13 UNL     1      17.578  33.230  15.944  1.00  0.00     0.082 C 
HETATM   10  C14 UNL     1      16.453  32.365  16.380  1.00  0.00     0.026 C 
HETATM   11  C15 UNL     1      15.073  32.888  16.010  1.00  0.00     0.007 C 
HETATM   12  C16 UNL     1      14.972  34.356  16.320  1.00  0.00    -0.008 C 
HETATM   13  C17 UNL     1      15.193  34.648  17.780  1.00  0.00     0.037 C 
HETATM   14  C20 UNL     1      16.000  35.153  15.560  1.00  0.00    -0.006 C 
HETATM   15  C18 UNL     1      16.401  35.584  17.869  1.00  0.00     0.132 C 
HETATM   16  C19 UNL     1      16.418  36.237  16.503  1.00  0.00     0.037 C 
HETATM   17  O3  UNL     1      17.536  34.763  18.063  1.00  0.00    -0.315 OA
HETATM   18  C22 UNL     1      18.139  33.931  17.150  1.00  0.00     0.273 C 
HETATM   19  O4  UNL     1      19.358  33.731  17.374  1.00  0.00    -0.264 OA
HETATM   20  C21 UNL     1      17.116  34.323  14.997  1.00  0.00     0.030 C 
ENDBRANCH   5   9
ENDBRANCH   2   3
BRANCH   2  21
HETATM   21  C25 UNL     1      21.091  28.528  13.693  1.00  0.00     0.119 C 
HETATM   22  C26 UNL     1      22.144  28.013  12.714  1.00  0.00     0.030 C 
HETATM   23  C27 UNL     1      21.641  27.400  11.479  1.00  0.00     0.007 C 
HETATM   24  C28 UNL     1      20.228  27.535  11.097  1.00  0.00     0.044 C 
HETATM   25  C29 UNL     1      19.553  28.632  11.807  1.00  0.00     0.059 C 
HETATM   26  N3  UNL     1      19.790  28.644  13.181  1.00  0.00    -0.385 N 
BRANCH  26  27
HETATM   27  C30 UNL     1      18.734  28.146  13.980  1.00  0.00     0.118 C 
HETATM   28  C31 UNL     1      17.465  27.804  13.255  1.00  0.00     0.026 C 
ENDBRANCH  26  27
ENDBRANCH   2  21
BRANCH   1  29
HETATM   29  N2  UNL     1      23.594  31.229  14.706  1.00  0.00    -0.336 N 
HETATM   30  C8  UNL     1      23.553  32.642  14.550  1.00  0.00     0.227 C 
HETATM   31  O2  UNL     1      22.913  33.156  13.580  1.00  0.00    -0.273 OA
ATOM     32  H2  UNL     1      24.121  30.800  15.468  1.00  0.00     0.168 HD
BRANCH  30  33
HETATM   33  C7  UNL     1      24.205  33.623  15.476  1.00  0.00     0.162 C 
BRANCH  33  34
HETATM   34  C6  UNL     1      23.222  34.823  15.535  1.00  0.00     0.168 C 
BRANCH  34  35
HETATM   35  N1  UNL     1      22.721  35.235  16.682  1.00  0.00    -0.387 NA
HETATM   36  C5  UNL     1      22.190  35.654  17.905  1.00  0.00     0.290 C 
HETATM   37  O1  UNL     1      22.001  34.951  18.913  1.00  0.00    -0.257 OA
BRANCH  36  38
HETATM   38  C4  UNL     1      21.757  37.096  18.078  1.00  0.00     0.119 C 
BRANCH  38  39
HETATM   39  C3  UNL     1      20.331  37.098  17.527  1.00  0.00     0.010 C 
BRANCH  39  40
HETATM   40  C2  UNL     1      19.405  37.790  18.471  1.00  0.00    -0.004 C 
HETATM   41  C1  UNL     1      18.689  38.885  17.672  1.00  0.00     0.005 C 
ENDBRANCH  39  40
ENDBRANCH  38  39
ENDBRANCH  36  38
ENDBRANCH  34  35
ENDBRANCH  33  34
ENDBRANCH  30  33
ENDBRANCH   1  29
TORSDOF 11
ENDMDL
