MODEL 1
REMARK VINA RESULT: -8.998687888      0.000      0.000
REMARK  12 active torsions:
REMARK  status: ('A' for Active; 'I' for Inactive)
REMARK    1  A    between atoms: C2_2  and  C3_3 
REMARK    2  A    between atoms: C2_2  and  N4_30 
REMARK    3  A    between atoms: C3_3  and  N1_4 
REMARK    4  A    between atoms: C7_8  and  C8_9 
REMARK       I    between atoms: C8_9  and  N2_11 
REMARK    5  A    between atoms: N2_11  and  C9_13 
REMARK    6  A    between atoms: C9_13  and  C10_14 
REMARK    7  A    between atoms: C13_17  and  O2_18 
REMARK    8  A    between atoms: O2_18  and  C14_19 
REMARK    9  A    between atoms: C14_19  and  C15_20 
REMARK   10  A    between atoms: C15_20  and  N3_21 
REMARK       I    between atoms: N4_30  and  C22_32 
REMARK   11  A    between atoms: C22_32  and  C23_34 
REMARK   12  A    between atoms: C23_34  and  C24_35 
ROOT
HETATM    1  N1  UNL     1      17.950  34.042  16.327  1.00  0.00     0.104 N 
HETATM    2  C4  UNL     1      17.184  34.815  15.418  1.00  0.00     0.273 C 
HETATM    3  C5  UNL     1      16.129  33.894  14.824  1.00  0.00     0.033 C 
HETATM    4  C6  UNL     1      15.953  32.819  15.840  1.00  0.00     0.047 C 
HETATM    5  C7  UNL     1      17.273  32.772  16.526  1.00  0.00     0.314 C 
ENDROOT
BRANCH   5   6
HETATM    6  C8  UNL     1      18.152  31.669  16.137  1.00  0.00     0.251 C 
HETATM    7  O1  UNL     1      19.346  31.589  16.602  1.00  0.00    -0.271 OA
HETATM    8  N2  UNL     1      17.755  30.654  15.251  1.00  0.00    -0.355 N 
ATOM      9  H2  UNL     1      16.809  30.685  14.869  1.00  0.00     0.162 HD
BRANCH   8  10
HETATM   10  C9  UNL     1      18.626  29.567  14.853  1.00  0.00     0.161 C 
BRANCH  10  11
HETATM   11  C10 UNL     1      18.239  29.078  13.526  1.00  0.00    -0.039 A 
HETATM   12  C11 UNL     1      17.697  29.885  12.558  1.00  0.00     0.011 A 
HETATM   13  C12 UNL     1      17.349  29.359  11.312  1.00  0.00     0.039 A 
HETATM   14  C13 UNL     1      17.538  28.040  11.027  1.00  0.00     0.090 A 
HETATM   15  C20 UNL     1      18.091  27.209  12.012  1.00  0.00     0.068 A 
HETATM   16 CL1  UNL     1      18.364  25.502  11.719  1.00  0.00    -0.081 Cl
HETATM   17  C21 UNL     1      18.429  27.742  13.236  1.00  0.00     0.035 A 
BRANCH  14  18
HETATM   18  O2  UNL     1      17.233  27.432   9.846  1.00  0.00    -0.348 OA
BRANCH  18  19
HETATM   19  C14 UNL     1      18.030  27.528   8.695  1.00  0.00     0.206 C 
BRANCH  19  20
HETATM   20  C15 UNL     1      18.511  26.218   8.191  1.00  0.00     0.299 C 
BRANCH  20  21
HETATM   21  N3  UNL     1      18.890  26.106   6.840  1.00  0.00     0.094 N 
HETATM   22  C16 UNL     1      20.140  25.400   6.692  1.00  0.00     0.298 C 
HETATM   23  C17 UNL     1      20.696  25.609   5.313  1.00  0.00     0.198 C 
HETATM   24  O3  UNL     1      19.716  25.132   4.411  1.00  0.00    -0.388 OA
HETATM   25  C18 UNL     1      18.586  25.910   4.477  1.00  0.00     0.198 C 
HETATM   26  C19 UNL     1      17.961  25.697   5.870  1.00  0.00     0.298 C 
ENDBRANCH  20  21
ENDBRANCH  19  20
ENDBRANCH  18  19
ENDBRANCH  14  18
ENDBRANCH  10  11
ENDBRANCH   8  10
ENDBRANCH   5   6
BRANCH   1  27
HETATM   27  C3  UNL     1      18.249  34.675  17.562  1.00  0.00     0.298 C 
BRANCH  27  28
HETATM   28  C2  UNL     1      19.591  35.281  17.747  1.00  0.00     0.108 C 
HETATM   29  C1  UNL     1      19.736  35.784  19.166  1.00  0.00     0.034 C 
BRANCH  28  30
HETATM   30  N4  UNL     1      20.728  34.460  17.434  1.00  0.00    -0.355 N 
HETATM   31  C22 UNL     1      21.717  34.879  16.486  1.00  0.00     0.218 C 
HETATM   32  O4  UNL     1      21.556  35.985  15.941  1.00  0.00    -0.274 OA
ATOM     33  H4  UNL     1      20.833  33.558  17.898  1.00  0.00     0.162 HD
BRANCH  31  34
HETATM   34  C23 UNL     1      22.850  34.030  16.190  1.00  0.00     0.107 C 
BRANCH  34  35
HETATM   35  C24 UNL     1      22.478  32.773  15.385  1.00  0.00    -0.006 C 
HETATM   36  C25 UNL     1      23.461  31.685  15.569  1.00  0.00     0.005 C 
HETATM   37  C26 UNL     1      24.005  31.000  14.379  1.00  0.00     0.000 C 
HETATM   38  C27 UNL     1      23.220  29.798  13.910  1.00  0.00     0.000 C 
HETATM   39  C28 UNL     1      21.788  30.057  13.636  1.00  0.00     0.000 C 
HETATM   40  C29 UNL     1      21.562  30.792  12.339  1.00  0.00     0.000 C 
HETATM   41  C30 UNL     1      20.544  31.886  12.446  1.00  0.00     0.000 C 
HETATM   42  C31 UNL     1      20.630  32.711  13.684  1.00  0.00     0.000 C 
HETATM   43  C32 UNL     1      22.076  33.122  13.996  1.00  0.00     0.005 C 
ENDBRANCH  34  35
ENDBRANCH  31  34
ENDBRANCH  28  30
ENDBRANCH  27  28
ENDBRANCH   1  27
TORSDOF 12
ENDMDL
MODEL 2
REMARK VINA RESULT: -8.790005764      4.276      7.046
REMARK  12 active torsions:
REMARK  status: ('A' for Active; 'I' for Inactive)
REMARK    1  A    between atoms: C2_2  and  C3_3 
REMARK    2  A    between atoms: C2_2  and  N4_30 
REMARK    3  A    between atoms: C3_3  and  N1_4 
REMARK    4  A    between atoms: C7_8  and  C8_9 
REMARK       I    between atoms: C8_9  and  N2_11 
REMARK    5  A    between atoms: N2_11  and  C9_13 
REMARK    6  A    between atoms: C9_13  and  C10_14 
REMARK    7  A    between atoms: C13_17  and  O2_18 
REMARK    8  A    between atoms: O2_18  and  C14_19 
REMARK    9  A    between atoms: C14_19  and  C15_20 
REMARK   10  A    between atoms: C15_20  and  N3_21 
REMARK       I    between atoms: N4_30  and  C22_32 
REMARK   11  A    between atoms: C22_32  and  C23_34 
REMARK   12  A    between atoms: C23_34  and  C24_35 
ROOT
HETATM    1  N1  UNL     1      20.545  40.140  16.482  1.00  0.00     0.104 N 
HETATM    2  C4  UNL     1      21.095  41.382  16.074  1.00  0.00     0.273 C 
HETATM    3  C5  UNL     1      22.118  41.084  14.988  1.00  0.00     0.033 C 
HETATM    4  C6  UNL     1      21.685  39.780  14.411  1.00  0.00     0.047 C 
HETATM    5  C7  UNL     1      20.973  39.121  15.540  1.00  0.00     0.314 C 
ENDROOT
BRANCH   5   6
HETATM    6  C8  UNL     1      21.722  38.076  16.238  1.00  0.00     0.251 C 
HETATM    7  O1  UNL     1      22.527  38.374  17.193  1.00  0.00    -0.271 OA
HETATM    8  N2  UNL     1      21.611  36.713  15.915  1.00  0.00    -0.355 N 
ATOM      9  H2  UNL     1      20.973  36.441  15.166  1.00  0.00     0.162 HD
BRANCH   8  10
HETATM   10  C9  UNL     1      22.358  35.676  16.595  1.00  0.00     0.161 C 
BRANCH  10  11
HETATM   11  C10 UNL     1      22.219  34.406  15.874  1.00  0.00    -0.039 A 
HETATM   12  C11 UNL     1      22.777  34.178  14.643  1.00  0.00     0.011 A 
HETATM   13  C12 UNL     1      22.608  32.947  14.007  1.00  0.00     0.039 A 
HETATM   14  C13 UNL     1      21.890  31.946  14.590  1.00  0.00     0.090 A 
HETATM   15  C20 UNL     1      21.317  32.172  15.849  1.00  0.00     0.068 A 
HETATM   16 CL1  UNL     1      20.380  30.933  16.662  1.00  0.00    -0.081 Cl
HETATM   17  C21 UNL     1      21.491  33.392  16.464  1.00  0.00     0.035 A 
BRANCH  14  18
HETATM   18  O2  UNL     1      21.668  30.712  14.055  1.00  0.00    -0.348 OA
BRANCH  18  19
HETATM   19  C14 UNL     1      22.694  29.840  13.661  1.00  0.00     0.206 C 
BRANCH  19  20
HETATM   20  C15 UNL     1      22.665  29.497  12.218  1.00  0.00     0.299 C 
BRANCH  20  21
HETATM   21  N3  UNL     1      23.228  28.277  11.796  1.00  0.00     0.094 N 
HETATM   22  C16 UNL     1      24.561  28.094  12.319  1.00  0.00     0.298 C 
HETATM   23  C17 UNL     1      25.263  26.994  11.579  1.00  0.00     0.198 C 
HETATM   24  O3  UNL     1      24.472  25.832  11.744  1.00  0.00    -0.388 OA
HETATM   25  C18 UNL     1      23.260  25.985  11.118  1.00  0.00     0.198 C 
HETATM   26  C19 UNL     1      22.487  27.087  11.871  1.00  0.00     0.298 C 
ENDBRANCH  20  21
ENDBRANCH  19  20
ENDBRANCH  18  19
ENDBRANCH  14  18
ENDBRANCH  10  11
ENDBRANCH   8  10
ENDBRANCH   5   6
BRANCH   1  27
HETATM   27  C3  UNL     1      19.137  40.128  16.663  1.00  0.00     0.298 C 
BRANCH  27  28
HETATM   28  C2  UNL     1      18.577  39.468  17.869  1.00  0.00     0.108 C 
HETATM   29  C1  UNL     1      17.235  40.077  18.210  1.00  0.00     0.034 C 
BRANCH  28  30
HETATM   30  N4  UNL     1      18.433  38.039  17.823  1.00  0.00    -0.355 N 
HETATM   31  C22 UNL     1      19.277  37.176  18.595  1.00  0.00     0.218 C 
HETATM   32  O4  UNL     1      20.143  37.710  19.309  1.00  0.00    -0.274 OA
ATOM     33  H4  UNL     1      17.713  37.630  17.228  1.00  0.00     0.162 HD
BRANCH  31  34
HETATM   34  C23 UNL     1      19.110  35.741  18.528  1.00  0.00     0.107 C 
BRANCH  34  35
HETATM   35  C24 UNL     1      17.937  35.303  17.634  1.00  0.00    -0.006 C 
HETATM   36  C25 UNL     1      16.629  35.668  18.217  1.00  0.00     0.005 C 
HETATM   37  C26 UNL     1      15.569  34.644  18.301  1.00  0.00     0.000 C 
HETATM   38  C27 UNL     1      14.663  34.549  17.097  1.00  0.00     0.000 C 
HETATM   39  C28 UNL     1      15.360  34.337  15.807  1.00  0.00     0.000 C 
HETATM   40  C29 UNL     1      15.850  32.922  15.631  1.00  0.00     0.000 C 
HETATM   41  C30 UNL     1      17.234  32.839  15.065  1.00  0.00     0.000 C 
HETATM   42  C31 UNL     1      18.204  33.825  15.620  1.00  0.00     0.000 C 
HETATM   43  C32 UNL     1      18.120  33.908  17.151  1.00  0.00     0.005 C 
ENDBRANCH  34  35
ENDBRANCH  31  34
ENDBRANCH  28  30
ENDBRANCH  27  28
ENDBRANCH   1  27
TORSDOF 12
ENDMDL
MODEL 3
REMARK VINA RESULT: -8.695445020      3.495      7.209
REMARK  12 active torsions:
REMARK  status: ('A' for Active; 'I' for Inactive)
REMARK    1  A    between atoms: C2_2  and  C3_3 
REMARK    2  A    between atoms: C2_2  and  N4_30 
REMARK    3  A    between atoms: C3_3  and  N1_4 
REMARK    4  A    between atoms: C7_8  and  C8_9 
REMARK       I    between atoms: C8_9  and  N2_11 
REMARK    5  A    between atoms: N2_11  and  C9_13 
REMARK    6  A    between atoms: C9_13  and  C10_14 
REMARK    7  A    between atoms: C13_17  and  O2_18 
REMARK    8  A    between atoms: O2_18  and  C14_19 
REMARK    9  A    between atoms: C14_19  and  C15_20 
REMARK   10  A    between atoms: C15_20  and  N3_21 
REMARK       I    between atoms: N4_30  and  C22_32 
REMARK   11  A    between atoms: C22_32  and  C23_34 
REMARK   12  A    between atoms: C23_34  and  C24_35 
ROOT
HETATM    1  N1  UNL     1      20.463  40.470  16.327  1.00  0.00     0.104 N 
HETATM    2  C4  UNL     1      21.012  41.724  15.955  1.00  0.00     0.273 C 
HETATM    3  C5  UNL     1      22.155  41.445  14.990  1.00  0.00     0.033 C 
HETATM    4  C6  UNL     1      21.829  40.118  14.394  1.00  0.00     0.047 C 
HETATM    5  C7  UNL     1      21.023  39.452  15.454  1.00  0.00     0.314 C 
ENDROOT
BRANCH   5   6
HETATM    6  C8  UNL     1      21.727  38.445  16.247  1.00  0.00     0.251 C 
HETATM    7  O1  UNL     1      22.515  38.794  17.199  1.00  0.00    -0.271 OA
HETATM    8  N2  UNL     1      21.590  37.065  16.022  1.00  0.00    -0.355 N 
ATOM      9  H2  UNL     1      20.965  36.753  15.278  1.00  0.00     0.162 HD
BRANCH   8  10
HETATM   10  C9  UNL     1      22.294  36.063  16.797  1.00  0.00     0.161 C 
BRANCH  10  11
HETATM   11  C10 UNL     1      22.322  34.794  16.063  1.00  0.00    -0.039 A 
HETATM   12  C11 UNL     1      23.026  34.615  14.900  1.00  0.00     0.011 A 
HETATM   13  C12 UNL     1      23.013  33.381  14.248  1.00  0.00     0.039 A 
HETATM   14  C13 UNL     1      22.305  32.329  14.746  1.00  0.00     0.090 A 
HETATM   15  C20 UNL     1      21.582  32.504  15.934  1.00  0.00     0.068 A 
HETATM   16 CL1  UNL     1      20.648  31.197  16.637  1.00  0.00    -0.081 Cl
HETATM   17  C21 UNL     1      21.604  33.727  16.567  1.00  0.00     0.035 A 
BRANCH  14  18
HETATM   18  O2  UNL     1      22.228  31.087  14.187  1.00  0.00    -0.348 OA
BRANCH  18  19
HETATM   19  C14 UNL     1      21.696  30.841  12.913  1.00  0.00     0.206 C 
BRANCH  19  20
HETATM   20  C15 UNL     1      20.255  31.170  12.794  1.00  0.00     0.299 C 
BRANCH  20  21
HETATM   21  N3  UNL     1      19.369  30.189  12.308  1.00  0.00     0.094 N 
HETATM   22  C16 UNL     1      19.879  28.855  12.521  1.00  0.00     0.298 C 
HETATM   23  C17 UNL     1      19.116  27.868  11.689  1.00  0.00     0.198 C 
HETATM   24  O3  UNL     1      17.761  27.978  12.080  1.00  0.00    -0.388 OA
HETATM   25  C18 UNL     1      17.263  29.212  11.740  1.00  0.00     0.198 C 
HETATM   26  C19 UNL     1      17.998  30.258  12.602  1.00  0.00     0.298 C 
ENDBRANCH  20  21
ENDBRANCH  19  20
ENDBRANCH  18  19
ENDBRANCH  14  18
ENDBRANCH  10  11
ENDBRANCH   8  10
ENDBRANCH   5   6
BRANCH   1  27
HETATM   27  C3  UNL     1      19.046  40.411  16.356  1.00  0.00     0.298 C 
BRANCH  27  28
HETATM   28  C2  UNL     1      18.379  39.825  17.547  1.00  0.00     0.108 C 
HETATM   29  C1  UNL     1      16.981  40.385  17.680  1.00  0.00     0.034 C 
BRANCH  28  30
HETATM   30  N4  UNL     1      18.307  38.391  17.614  1.00  0.00    -0.355 N 
HETATM   31  C22 UNL     1      19.095  37.645  18.549  1.00  0.00     0.218 C 
HETATM   32  O4  UNL     1      19.847  38.284  19.305  1.00  0.00    -0.274 OA
ATOM     33  H4  UNL     1      17.680  37.894  16.982  1.00  0.00     0.162 HD
BRANCH  31  34
HETATM   34  C23 UNL     1      19.002  36.202  18.593  1.00  0.00     0.107 C 
BRANCH  34  35
HETATM   35  C24 UNL     1      17.897  35.632  17.688  1.00  0.00    -0.006 C 
HETATM   36  C25 UNL     1      16.548  35.874  18.240  1.00  0.00     0.005 C 
HETATM   37  C26 UNL     1      15.595  34.750  18.326  1.00  0.00     0.000 C 
HETATM   38  C27 UNL     1      14.726  34.543  17.107  1.00  0.00     0.000 C 
HETATM   39  C28 UNL     1      15.466  34.380  15.835  1.00  0.00     0.000 C 
HETATM   40  C29 UNL     1      16.099  33.018  15.694  1.00  0.00     0.000 C 
HETATM   41  C30 UNL     1      17.495  33.065  15.155  1.00  0.00     0.000 C 
HETATM   42  C31 UNL     1      18.350  34.153  15.708  1.00  0.00     0.000 C 
HETATM   43  C32 UNL     1      18.229  34.254  17.235  1.00  0.00     0.005 C 
ENDBRANCH  34  35
ENDBRANCH  31  34
ENDBRANCH  28  30
ENDBRANCH  27  28
ENDBRANCH   1  27
TORSDOF 12
ENDMDL
MODEL 4
REMARK VINA RESULT: -8.673945088      4.183      7.015
REMARK  12 active torsions:
REMARK  status: ('A' for Active; 'I' for Inactive)
REMARK    1  A    between atoms: C2_2  and  C3_3 
REMARK    2  A    between atoms: C2_2  and  N4_30 
REMARK    3  A    between atoms: C3_3  and  N1_4 
REMARK    4  A    between atoms: C7_8  and  C8_9 
REMARK       I    between atoms: C8_9  and  N2_11 
REMARK    5  A    between atoms: N2_11  and  C9_13 
REMARK    6  A    between atoms: C9_13  and  C10_14 
REMARK    7  A    between atoms: C13_17  and  O2_18 
REMARK    8  A    between atoms: O2_18  and  C14_19 
REMARK    9  A    between atoms: C14_19  and  C15_20 
REMARK   10  A    between atoms: C15_20  and  N3_21 
REMARK       I    between atoms: N4_30  and  C22_32 
REMARK   11  A    between atoms: C22_32  and  C23_34 
REMARK   12  A    between atoms: C23_34  and  C24_35 
ROOT
HETATM    1  N1  UNL     1      21.416  38.403  17.881  1.00  0.00     0.104 N 
HETATM    2  C4  UNL     1      21.790  39.395  18.823  1.00  0.00     0.273 C 
HETATM    3  C5  UNL     1      23.213  39.084  19.261  1.00  0.00     0.033 C 
HETATM    4  C6  UNL     1      23.793  38.306  18.131  1.00  0.00     0.047 C 
HETATM    5  C7  UNL     1      22.605  37.653  17.515  1.00  0.00     0.314 C 
ENDROOT
BRANCH   5   6
HETATM    6  C8  UNL     1      22.423  36.237  17.834  1.00  0.00     0.251 C 
HETATM    7  O1  UNL     1      22.097  35.871  19.020  1.00  0.00    -0.271 OA
HETATM    8  N2  UNL     1      22.591  35.214  16.886  1.00  0.00    -0.355 N 
ATOM      9  H2  UNL     1      22.842  35.472  15.931  1.00  0.00     0.162 HD
BRANCH   8  10
HETATM   10  C9  UNL     1      22.422  33.810  17.199  1.00  0.00     0.161 C 
BRANCH  10  11
HETATM   11  C10 UNL     1      22.375  33.025  15.962  1.00  0.00    -0.039 A 
HETATM   12  C11 UNL     1      23.403  32.218  15.545  1.00  0.00     0.011 A 
HETATM   13  C12 UNL     1      23.297  31.495  14.356  1.00  0.00     0.039 A 
HETATM   14  C13 UNL     1      22.177  31.570  13.583  1.00  0.00     0.090 A 
HETATM   15  C20 UNL     1      21.123  32.394  14.002  1.00  0.00     0.068 A 
HETATM   16 CL1  UNL     1      19.650  32.542  13.061  1.00  0.00    -0.081 Cl
HETATM   17  C21 UNL     1      21.241  33.102  15.178  1.00  0.00     0.035 A 
BRANCH  14  18
HETATM   18  O2  UNL     1      21.976  30.907  12.410  1.00  0.00    -0.348 OA
BRANCH  18  19
HETATM   19  C14 UNL     1      21.721  29.529  12.331  1.00  0.00     0.206 C 
BRANCH  19  20
HETATM   20  C15 UNL     1      22.213  28.902  11.080  1.00  0.00     0.299 C 
BRANCH  20  21
HETATM   21  N3  UNL     1      23.221  27.922  11.161  1.00  0.00     0.094 N 
HETATM   22  C16 UNL     1      24.137  28.184  12.245  1.00  0.00     0.298 C 
HETATM   23  C17 UNL     1      25.379  27.357  12.088  1.00  0.00     0.198 C 
HETATM   24  O3  UNL     1      24.961  26.006  12.071  1.00  0.00    -0.388 OA
HETATM   25  C18 UNL     1      24.204  25.752  10.954  1.00  0.00     0.198 C 
HETATM   26  C19 UNL     1      22.896  26.558  11.092  1.00  0.00     0.298 C 
ENDBRANCH  20  21
ENDBRANCH  19  20
ENDBRANCH  18  19
ENDBRANCH  14  18
ENDBRANCH  10  11
ENDBRANCH   8  10
ENDBRANCH   5   6
BRANCH   1  27
HETATM   27  C3  UNL     1      20.726  38.881  16.736  1.00  0.00     0.298 C 
BRANCH  27  28
HETATM   28  C2  UNL     1      19.446  39.608  16.926  1.00  0.00     0.108 C 
HETATM   29  C1  UNL     1      19.291  40.662  15.853  1.00  0.00     0.034 C 
BRANCH  28  30
HETATM   30  N4  UNL     1      18.246  38.818  16.970  1.00  0.00    -0.355 N 
HETATM   31  C22 UNL     1      17.554  38.575  18.200  1.00  0.00     0.218 C 
HETATM   32  O4  UNL     1      18.029  39.075  19.234  1.00  0.00    -0.274 OA
ATOM     33  H4  UNL     1      17.880  38.422  16.105  1.00  0.00     0.162 HD
BRANCH  31  34
HETATM   34  C23 UNL     1      16.349  37.774  18.214  1.00  0.00     0.107 C 
BRANCH  34  35
HETATM   35  C24 UNL     1      16.474  36.468  17.411  1.00  0.00    -0.006 C 
HETATM   36  C25 UNL     1      15.154  35.914  17.044  1.00  0.00     0.005 C 
HETATM   37  C26 UNL     1      14.876  34.488  17.307  1.00  0.00     0.000 C 
HETATM   38  C27 UNL     1      15.244  33.540  16.190  1.00  0.00     0.000 C 
HETATM   39  C28 UNL     1      16.652  33.625  15.739  1.00  0.00     0.000 C 
HETATM   40  C29 UNL     1      17.616  32.972  16.698  1.00  0.00     0.000 C 
HETATM   41  C30 UNL     1      18.858  33.775  16.932  1.00  0.00     0.000 C 
HETATM   42  C31 UNL     1      18.642  35.242  17.085  1.00  0.00     0.000 C 
HETATM   43  C32 UNL     1      17.470  35.551  18.027  1.00  0.00     0.005 C 
ENDBRANCH  34  35
ENDBRANCH  31  34
ENDBRANCH  28  30
ENDBRANCH  27  28
ENDBRANCH   1  27
TORSDOF 12
ENDMDL
MODEL 5
REMARK VINA RESULT: -8.561251871      3.024     10.763
REMARK  12 active torsions:
REMARK  status: ('A' for Active; 'I' for Inactive)
REMARK    1  A    between atoms: C2_2  and  C3_3 
REMARK    2  A    between atoms: C2_2  and  N4_30 
REMARK    3  A    between atoms: C3_3  and  N1_4 
REMARK    4  A    between atoms: C7_8  and  C8_9 
REMARK       I    between atoms: C8_9  and  N2_11 
REMARK    5  A    between atoms: N2_11  and  C9_13 
REMARK    6  A    between atoms: C9_13  and  C10_14 
REMARK    7  A    between atoms: C13_17  and  O2_18 
REMARK    8  A    between atoms: O2_18  and  C14_19 
REMARK    9  A    between atoms: C14_19  and  C15_20 
REMARK   10  A    between atoms: C15_20  and  N3_21 
REMARK       I    between atoms: N4_30  and  C22_32 
REMARK   11  A    between atoms: C22_32  and  C23_34 
REMARK   12  A    between atoms: C23_34  and  C24_35 
ROOT
HETATM    1  N1  UNL     1      20.681  29.608  12.120  1.00  0.00     0.104 N 
HETATM    2  C4  UNL     1      21.404  28.516  11.576  1.00  0.00     0.273 C 
HETATM    3  C5  UNL     1      22.627  28.305  12.455  1.00  0.00     0.033 C 
HETATM    4  C6  UNL     1      22.244  28.878  13.777  1.00  0.00     0.047 C 
HETATM    5  C7  UNL     1      21.240  29.919  13.424  1.00  0.00     0.314 C 
ENDROOT
BRANCH   5   6
HETATM    6  C8  UNL     1      21.723  31.300  13.446  1.00  0.00     0.251 C 
HETATM    7  O1  UNL     1      21.189  32.191  12.693  1.00  0.00    -0.271 OA
HETATM    8  N2  UNL     1      22.777  31.725  14.272  1.00  0.00    -0.355 N 
ATOM      9  H2  UNL     1      23.218  31.043  14.888  1.00  0.00     0.162 HD
BRANCH   8  10
HETATM   10  C9  UNL     1      23.266  33.089  14.289  1.00  0.00     0.161 C 
BRANCH  10  11
HETATM   11  C10 UNL     1      22.750  33.789  15.470  1.00  0.00    -0.039 A 
HETATM   12  C11 UNL     1      22.570  33.179  16.684  1.00  0.00     0.011 A 
HETATM   13  C12 UNL     1      22.075  33.900  17.772  1.00  0.00     0.039 A 
HETATM   14  C13 UNL     1      21.760  35.221  17.656  1.00  0.00     0.090 A 
HETATM   15  C20 UNL     1      21.942  35.852  16.417  1.00  0.00     0.068 A 
HETATM   16 CL1  UNL     1      21.560  37.548  16.191  1.00  0.00    -0.081 Cl
HETATM   17  C21 UNL     1      22.431  35.127  15.353  1.00  0.00     0.035 A 
BRANCH  14  18
HETATM   18  O2  UNL     1      21.273  36.012  18.654  1.00  0.00    -0.348 OA
BRANCH  18  19
HETATM   19  C14 UNL     1      20.061  35.768  19.316  1.00  0.00     0.206 C 
BRANCH  19  20
HETATM   20  C15 UNL     1      18.870  36.256  18.581  1.00  0.00     0.299 C 
BRANCH  20  21
HETATM   21  N3  UNL     1      17.970  35.317  18.040  1.00  0.00     0.094 N 
HETATM   22  C16 UNL     1      16.600  35.749  18.175  1.00  0.00     0.298 C 
HETATM   23  C17 UNL     1      15.666  34.600  17.934  1.00  0.00     0.198 C 
HETATM   24  O3  UNL     1      15.939  34.129  16.629  1.00  0.00    -0.388 OA
HETATM   25  C18 UNL     1      17.204  33.597  16.567  1.00  0.00     0.198 C 
HETATM   26  C19 UNL     1      18.201  34.755  16.774  1.00  0.00     0.298 C 
ENDBRANCH  20  21
ENDBRANCH  19  20
ENDBRANCH  18  19
ENDBRANCH  14  18
ENDBRANCH  10  11
ENDBRANCH   8  10
ENDBRANCH   5   6
BRANCH   1  27
HETATM   27  C3  UNL     1      19.274  29.436  12.181  1.00  0.00     0.298 C 
BRANCH  27  28
HETATM   28  C2  UNL     1      18.727  28.064  12.332  1.00  0.00     0.108 C 
HETATM   29  C1  UNL     1      18.018  27.937  13.662  1.00  0.00     0.034 C 
BRANCH  28  30
HETATM   30  N4  UNL     1      17.847  27.595  11.297  1.00  0.00    -0.355 N 
HETATM   31  C22 UNL     1      18.144  26.415  10.540  1.00  0.00     0.218 C 
HETATM   32  O4  UNL     1      19.194  25.808  10.812  1.00  0.00    -0.274 OA
ATOM     33  H4  UNL     1      16.992  28.113  11.098  1.00  0.00     0.162 HD
BRANCH  31  34
HETATM   34  C23 UNL     1      17.240  25.967   9.503  1.00  0.00     0.107 C 
BRANCH  34  35
HETATM   35  C24 UNL     1      17.889  25.905   8.110  1.00  0.00    -0.006 C 
HETATM   36  C25 UNL     1      18.421  27.216   7.687  1.00  0.00     0.005 C 
HETATM   37  C26 UNL     1      18.081  27.730   6.344  1.00  0.00     0.000 C 
HETATM   38  C27 UNL     1      19.030  27.330   5.239  1.00  0.00     0.000 C 
HETATM   39  C28 UNL     1      19.243  25.871   5.097  1.00  0.00     0.000 C 
HETATM   40  C29 UNL     1      18.081  25.169   4.441  1.00  0.00     0.000 C 
HETATM   41  C30 UNL     1      17.715  23.878   5.106  1.00  0.00     0.000 C 
HETATM   42  C31 UNL     1      17.733  23.907   6.595  1.00  0.00     0.000 C 
HETATM   43  C32 UNL     1      17.034  25.155   7.151  1.00  0.00     0.005 C 
ENDBRANCH  34  35
ENDBRANCH  31  34
ENDBRANCH  28  30
ENDBRANCH  27  28
ENDBRANCH   1  27
TORSDOF 12
ENDMDL
