MODEL 1
REMARK VINA RESULT: -7.939267335      0.000      0.000
REMARK  14 active torsions:
REMARK  status: ('A' for Active; 'I' for Inactive)
REMARK    1  A    between atoms: C2_2  and  C4_4 
REMARK    2  A    between atoms: C6_6  and  O1_7 
REMARK    3  A    between atoms: O1_7  and  C7_8 
REMARK    4  A    between atoms: C7_8  and  C8_9 
REMARK    5  A    between atoms: C8_9  and  C9_10 
REMARK    6  A    between atoms: C9_10  and  O2_11 
REMARK    7  A    between atoms: O2_11  and  C10_12 
REMARK    8  A    between atoms: C12_17  and  O3_18 
REMARK    9  A    between atoms: C23_31  and  C25_33 
REMARK   10  A    between atoms: C25_33  and  O5_34 
REMARK   11  A    between atoms: O5_34  and  C26_35 
REMARK   12  A    between atoms: C26_35  and  C27_37 
REMARK   13  A    between atoms: C27_37  and  C28_38 
REMARK   14  A    between atoms: C28_38  and  C29_39 
ROOT
HETATM    1  C4  UNL     1      17.542  35.156  18.253  1.00  0.00     0.025 C 
HETATM    2  C5  UNL     1      16.708  36.416  18.195  1.00  0.00     0.042 C 
HETATM    3  C6  UNL     1      16.320  36.637  16.714  1.00  0.00     0.127 C 
HETATM    4  C13 UNL     1      17.161  35.602  16.004  1.00  0.00     0.024 C 
HETATM    5  C14 UNL     1      16.568  35.061  14.752  1.00  0.00     0.008 C 
HETATM    6  C15 UNL     1      17.301  33.874  14.248  1.00  0.00     0.006 C 
HETATM    7  C16 UNL     1      18.542  33.533  15.061  1.00  0.00    -0.000 C 
HETATM    8  C17 UNL     1      18.272  33.478  16.526  1.00  0.00    -0.001 C 
HETATM    9  C18 UNL     1      17.958  32.115  17.074  1.00  0.00     0.006 C 
HETATM   10  C19 UNL     1      17.846  31.062  16.002  1.00  0.00     0.006 C 
HETATM   11  C20 UNL     1      19.018  31.057  15.070  1.00  0.00    -0.005 C 
HETATM   12  C21 UNL     1      20.221  30.598  15.841  1.00  0.00     0.006 C 
HETATM   13  C22 UNL     1      21.162  31.747  15.810  1.00  0.00     0.012 C 
HETATM   14  C23 UNL     1      20.804  32.544  14.534  1.00  0.00    -0.014 C 
HETATM   15  C24 UNL     1      21.397  33.883  14.757  1.00  0.00     0.018 C 
HETATM   16  C30 UNL     1      19.331  32.421  14.475  1.00  0.00    -0.027 C 
HETATM   17  C31 UNL     1      18.920  32.317  13.014  1.00  0.00     0.016 C 
HETATM   18  C32 UNL     1      17.246  34.473  16.984  1.00  0.00    -0.027 C 
HETATM   19  C33 UNL     1      15.868  33.845  17.115  1.00  0.00     0.016 C 
ENDROOT
BRANCH   3  20
HETATM   20  O1  UNL     1      16.734  37.865  16.358  1.00  0.00    -0.385 OA
BRANCH  20  21
HETATM   21  C7  UNL     1      17.168  38.800  17.167  1.00  0.00     0.170 C 
BRANCH  21  22
HETATM   22  C8  UNL     1      16.716  40.206  17.114  1.00  0.00     0.052 C 
BRANCH  22  23
HETATM   23  C9  UNL     1      15.497  40.626  17.834  1.00  0.00     0.174 C 
BRANCH  23  24
HETATM   24  O2  UNL     1      15.694  40.991  19.168  1.00  0.00    -0.339 OA
BRANCH  24  25
HETATM   25  C10 UNL     1      15.053  40.210  20.089  1.00  0.00     0.471 C 
HETATM   26  N1  UNL     1      16.012  39.602  21.005  1.00  0.00    -0.020 N 
HETATM   27  C11 UNL     1      15.268  39.383  22.234  1.00  0.00     0.298 C 
ATOM     28  H12 UNL     1      16.460  38.762  20.637  1.00  0.00     0.283 HD
ATOM     29  H11 UNL     1      16.866  40.144  21.130  1.00  0.00     0.283 HD
HETATM   30  C12 UNL     1      14.109  40.309  22.066  1.00  0.00     0.287 C 
HETATM   31  O4  UNL     1      14.292  41.032  20.910  1.00  0.00    -0.307 OA
BRANCH  30  32
HETATM   32  O3  UNL     1      12.878  39.622  22.008  1.00  0.00    -0.369 OA
ATOM     33  H3  UNL     1      12.616  39.278  22.853  1.00  0.00     0.212 HD
ENDBRANCH  30  32
ENDBRANCH  24  25
ENDBRANCH  23  24
ENDBRANCH  22  23
ENDBRANCH  21  22
ENDBRANCH  20  21
ENDBRANCH   3  20
BRANCH   1  34
HETATM   34  C2  UNL     1      18.949  35.444  18.585  1.00  0.00    -0.088 C 
HETATM   35  C1  UNL     1      19.466  34.958  19.729  1.00  0.00     0.014 C 
HETATM   36  C3  UNL     1      19.855  36.273  17.763  1.00  0.00     0.043 C 
ENDBRANCH   1  34
BRANCH  14  37
HETATM   37  C25 UNL     1      21.599  31.852  13.462  1.00  0.00     0.188 C 
BRANCH  37  38
HETATM   38  O5  UNL     1      22.211  30.652  13.865  1.00  0.00    -0.321 OA
BRANCH  38  39
HETATM   39  C26 UNL     1      22.100  29.486  13.159  1.00  0.00     0.259 C 
HETATM   40  O6  UNL     1      22.920  28.566  13.358  1.00  0.00    -0.265 OA
BRANCH  39  41
HETATM   41  C27 UNL     1      20.989  29.353  12.165  1.00  0.00     0.121 C 
BRANCH  41  42
HETATM   42  C28 UNL     1      20.024  28.260  12.640  1.00  0.00     0.123 C 
BRANCH  42  43
HETATM   43  C29 UNL     1      18.620  28.655  12.364  1.00  0.00     0.172 C 
HETATM   44  O7  UNL     1      17.682  28.376  13.152  1.00  0.00    -0.648 OA
HETATM   45  O8  UNL     1      18.361  29.350  11.195  1.00  0.00    -0.648 OA
ENDBRANCH  42  43
ENDBRANCH  41  42
ENDBRANCH  39  41
ENDBRANCH  38  39
ENDBRANCH  37  38
ENDBRANCH  14  37
TORSDOF 14
ENDMDL
MODEL 2
REMARK VINA RESULT: -7.927176593      1.151      1.893
REMARK  14 active torsions:
REMARK  status: ('A' for Active; 'I' for Inactive)
REMARK    1  A    between atoms: C2_2  and  C4_4 
REMARK    2  A    between atoms: C6_6  and  O1_7 
REMARK    3  A    between atoms: O1_7  and  C7_8 
REMARK    4  A    between atoms: C7_8  and  C8_9 
REMARK    5  A    between atoms: C8_9  and  C9_10 
REMARK    6  A    between atoms: C9_10  and  O2_11 
REMARK    7  A    between atoms: O2_11  and  C10_12 
REMARK    8  A    between atoms: C12_17  and  O3_18 
REMARK    9  A    between atoms: C23_31  and  C25_33 
REMARK   10  A    between atoms: C25_33  and  O5_34 
REMARK   11  A    between atoms: O5_34  and  C26_35 
REMARK   12  A    between atoms: C26_35  and  C27_37 
REMARK   13  A    between atoms: C27_37  and  C28_38 
REMARK   14  A    between atoms: C28_38  and  C29_39 
ROOT
HETATM    1  C4  UNL     1      17.599  35.070  18.221  1.00  0.00     0.025 C 
HETATM    2  C5  UNL     1      16.765  36.331  18.177  1.00  0.00     0.042 C 
HETATM    3  C6  UNL     1      16.367  36.561  16.699  1.00  0.00     0.127 C 
HETATM    4  C13 UNL     1      17.202  35.530  15.977  1.00  0.00     0.024 C 
HETATM    5  C14 UNL     1      16.600  34.996  14.726  1.00  0.00     0.008 C 
HETATM    6  C15 UNL     1      17.329  33.812  14.211  1.00  0.00     0.006 C 
HETATM    7  C16 UNL     1      18.576  33.465  15.012  1.00  0.00    -0.000 C 
HETATM    8  C17 UNL     1      18.316  33.402  16.479  1.00  0.00    -0.001 C 
HETATM    9  C18 UNL     1      18.006  32.036  17.021  1.00  0.00     0.006 C 
HETATM   10  C19 UNL     1      17.885  30.989  15.944  1.00  0.00     0.006 C 
HETATM   11  C20 UNL     1      19.051  30.989  15.004  1.00  0.00    -0.005 C 
HETATM   12  C21 UNL     1      20.259  30.525  15.763  1.00  0.00     0.006 C 
HETATM   13  C22 UNL     1      21.200  31.674  15.732  1.00  0.00     0.012 C 
HETATM   14  C23 UNL     1      20.833  32.479  14.463  1.00  0.00    -0.014 C 
HETATM   15  C24 UNL     1      21.428  33.817  14.690  1.00  0.00     0.018 C 
HETATM   16  C30 UNL     1      19.360  32.356  14.414  1.00  0.00    -0.027 C 
HETATM   17  C31 UNL     1      18.938  32.261  12.956  1.00  0.00     0.016 C 
HETATM   18  C32 UNL     1      17.294  34.395  16.950  1.00  0.00    -0.027 C 
HETATM   19  C33 UNL     1      15.917  33.766  17.088  1.00  0.00     0.016 C 
ENDROOT
BRANCH   3  20
HETATM   20  O1  UNL     1      16.778  37.790  16.348  1.00  0.00    -0.385 OA
BRANCH  20  21
HETATM   21  C7  UNL     1      17.224  38.719  17.158  1.00  0.00     0.170 C 
BRANCH  21  22
HETATM   22  C8  UNL     1      16.795  40.132  17.102  1.00  0.00     0.052 C 
BRANCH  22  23
HETATM   23  C9  UNL     1      15.596  40.579  17.839  1.00  0.00     0.174 C 
BRANCH  23  24
HETATM   24  O2  UNL     1      15.822  40.952  19.166  1.00  0.00    -0.339 OA
BRANCH  24  25
HETATM   25  C10 UNL     1      15.172  40.199  20.104  1.00  0.00     0.471 C 
HETATM   26  N1  UNL     1      16.114  39.674  21.086  1.00  0.00    -0.020 N 
HETATM   27  C11 UNL     1      15.331  39.495  22.297  1.00  0.00     0.298 C 
ATOM     28  H12 UNL     1      16.602  38.832  20.781  1.00  0.00     0.283 HD
ATOM     29  H11 UNL     1      16.945  40.252  21.213  1.00  0.00     0.283 HD
HETATM   30  C12 UNL     1      14.149  40.371  22.037  1.00  0.00     0.287 C 
HETATM   31  O4  UNL     1      14.353  41.037  20.850  1.00  0.00    -0.307 OA
BRANCH  30  32
HETATM   32  O3  UNL     1      12.944  39.639  21.971  1.00  0.00    -0.369 OA
ATOM     33  H3  UNL     1      12.179  40.200  22.016  1.00  0.00     0.212 HD
ENDBRANCH  30  32
ENDBRANCH  24  25
ENDBRANCH  23  24
ENDBRANCH  22  23
ENDBRANCH  21  22
ENDBRANCH  20  21
ENDBRANCH   3  20
BRANCH   1  34
HETATM   34  C2  UNL     1      19.009  35.356  18.545  1.00  0.00    -0.088 C 
HETATM   35  C1  UNL     1      19.503  34.960  19.732  1.00  0.00     0.014 C 
HETATM   36  C3  UNL     1      19.941  36.091  17.666  1.00  0.00     0.043 C 
ENDBRANCH   1  34
BRANCH  14  37
HETATM   37  C25 UNL     1      21.620  31.792  13.381  1.00  0.00     0.188 C 
BRANCH  37  38
HETATM   38  O5  UNL     1      22.068  30.500  13.709  1.00  0.00    -0.321 OA
BRANCH  38  39
HETATM   39  C26 UNL     1      21.969  29.439  12.853  1.00  0.00     0.259 C 
HETATM   40  O6  UNL     1      21.170  29.495  11.895  1.00  0.00    -0.265 OA
BRANCH  39  41
HETATM   41  C27 UNL     1      22.830  28.239  13.094  1.00  0.00     0.121 C 
BRANCH  41  42
HETATM   42  C28 UNL     1      23.417  27.771  11.758  1.00  0.00     0.123 C 
BRANCH  42  43
HETATM   43  C29 UNL     1      23.751  26.326  11.819  1.00  0.00     0.172 C 
HETATM   44  O7  UNL     1      24.889  25.918  12.160  1.00  0.00    -0.648 OA
HETATM   45  O8  UNL     1      22.760  25.418  11.484  1.00  0.00    -0.648 OA
ENDBRANCH  42  43
ENDBRANCH  41  42
ENDBRANCH  39  41
ENDBRANCH  38  39
ENDBRANCH  37  38
ENDBRANCH  14  37
TORSDOF 14
ENDMDL
MODEL 3
REMARK VINA RESULT: -7.861410548      2.308      3.413
REMARK  14 active torsions:
REMARK  status: ('A' for Active; 'I' for Inactive)
REMARK    1  A    between atoms: C2_2  and  C4_4 
REMARK    2  A    between atoms: C6_6  and  O1_7 
REMARK    3  A    between atoms: O1_7  and  C7_8 
REMARK    4  A    between atoms: C7_8  and  C8_9 
REMARK    5  A    between atoms: C8_9  and  C9_10 
REMARK    6  A    between atoms: C9_10  and  O2_11 
REMARK    7  A    between atoms: O2_11  and  C10_12 
REMARK    8  A    between atoms: C12_17  and  O3_18 
REMARK    9  A    between atoms: C23_31  and  C25_33 
REMARK   10  A    between atoms: C25_33  and  O5_34 
REMARK   11  A    between atoms: O5_34  and  C26_35 
REMARK   12  A    between atoms: C26_35  and  C27_37 
REMARK   13  A    between atoms: C27_37  and  C28_38 
REMARK   14  A    between atoms: C28_38  and  C29_39 
ROOT
HETATM    1  C4  UNL     1      17.587  35.006  18.204  1.00  0.00     0.025 C 
HETATM    2  C5  UNL     1      16.769  36.277  18.166  1.00  0.00     0.042 C 
HETATM    3  C6  UNL     1      16.386  36.527  16.688  1.00  0.00     0.127 C 
HETATM    4  C13 UNL     1      17.215  35.493  15.962  1.00  0.00     0.024 C 
HETATM    5  C14 UNL     1      16.617  34.979  14.701  1.00  0.00     0.008 C 
HETATM    6  C15 UNL     1      17.336  33.791  14.180  1.00  0.00     0.006 C 
HETATM    7  C16 UNL     1      18.571  33.421  14.988  1.00  0.00    -0.000 C 
HETATM    8  C17 UNL     1      18.299  33.346  16.452  1.00  0.00    -0.001 C 
HETATM    9  C18 UNL     1      17.968  31.979  16.978  1.00  0.00     0.006 C 
HETATM   10  C19 UNL     1      17.843  30.944  15.889  1.00  0.00     0.006 C 
HETATM   11  C20 UNL     1      19.017  30.940  14.959  1.00  0.00    -0.005 C 
HETATM   12  C21 UNL     1      20.212  30.453  15.724  1.00  0.00     0.006 C 
HETATM   13  C22 UNL     1      21.168  31.591  15.712  1.00  0.00     0.012 C 
HETATM   14  C23 UNL     1      20.821  32.412  14.448  1.00  0.00    -0.014 C 
HETATM   15  C24 UNL     1      21.431  33.740  14.693  1.00  0.00     0.018 C 
HETATM   16  C30 UNL     1      19.347  32.309  14.386  1.00  0.00    -0.027 C 
HETATM   17  C31 UNL     1      18.937  32.233  12.923  1.00  0.00     0.016 C 
HETATM   18  C32 UNL     1      17.285  34.347  16.925  1.00  0.00    -0.027 C 
HETATM   19  C33 UNL     1      15.899  33.734  17.044  1.00  0.00     0.016 C 
ENDROOT
BRANCH   3  20
HETATM   20  O1  UNL     1      16.816  37.754  16.352  1.00  0.00    -0.385 OA
BRANCH  20  21
HETATM   21  C7  UNL     1      17.066  38.740  17.179  1.00  0.00     0.170 C 
BRANCH  21  22
HETATM   22  C8  UNL     1      18.425  39.254  17.455  1.00  0.00     0.052 C 
BRANCH  22  23
HETATM   23  C9  UNL     1      18.815  39.632  18.828  1.00  0.00     0.174 C 
BRANCH  23  24
HETATM   24  O2  UNL     1      19.856  38.880  19.376  1.00  0.00    -0.339 OA
BRANCH  24  25
HETATM   25  C10 UNL     1      21.110  39.220  18.950  1.00  0.00     0.471 C 
HETATM   26  N1  UNL     1      21.559  40.449  19.595  1.00  0.00    -0.020 N 
HETATM   27  C11 UNL     1      23.009  40.354  19.611  1.00  0.00     0.298 C 
ATOM     28  H12 UNL     1      21.205  41.299  19.157  1.00  0.00     0.283 HD
ATOM     29  H11 UNL     1      21.145  40.609  20.513  1.00  0.00     0.283 HD
HETATM   30  C12 UNL     1      23.229  38.890  19.412  1.00  0.00     0.287 C 
HETATM   31  O4  UNL     1      22.005  38.262  19.410  1.00  0.00    -0.307 OA
BRANCH  30  32
HETATM   32  O3  UNL     1      23.910  38.610  18.208  1.00  0.00    -0.369 OA
ATOM     33  H3  UNL     1      24.049  37.679  18.080  1.00  0.00     0.212 HD
ENDBRANCH  30  32
ENDBRANCH  24  25
ENDBRANCH  23  24
ENDBRANCH  22  23
ENDBRANCH  21  22
ENDBRANCH  20  21
ENDBRANCH   3  20
BRANCH   1  34
HETATM   34  C2  UNL     1      18.998  35.271  18.543  1.00  0.00    -0.088 C 
HETATM   35  C1  UNL     1      19.436  35.006  19.787  1.00  0.00     0.014 C 
HETATM   36  C3  UNL     1      19.990  35.852  17.615  1.00  0.00     0.043 C 
ENDBRANCH   1  34
BRANCH  14  37
HETATM   37  C25 UNL     1      21.609  31.727  13.366  1.00  0.00     0.188 C 
BRANCH  37  38
HETATM   38  O5  UNL     1      22.235  30.532  13.761  1.00  0.00    -0.321 OA
BRANCH  38  39
HETATM   39  C26 UNL     1      22.147  29.373  13.041  1.00  0.00     0.259 C 
HETATM   40  O6  UNL     1      22.968  28.456  13.249  1.00  0.00    -0.265 OA
BRANCH  39  41
HETATM   41  C27 UNL     1      21.059  29.242  12.022  1.00  0.00     0.121 C 
BRANCH  41  42
HETATM   42  C28 UNL     1      20.055  28.186  12.498  1.00  0.00     0.123 C 
BRANCH  42  43
HETATM   43  C29 UNL     1      18.669  28.607  12.172  1.00  0.00     0.172 C 
HETATM   44  O7  UNL     1      18.399  29.269  11.140  1.00  0.00    -0.648 OA
HETATM   45  O8  UNL     1      17.660  28.248  13.050  1.00  0.00    -0.648 OA
ENDBRANCH  42  43
ENDBRANCH  41  42
ENDBRANCH  39  41
ENDBRANCH  38  39
ENDBRANCH  37  38
ENDBRANCH  14  37
TORSDOF 14
ENDMDL
MODEL 4
REMARK VINA RESULT: -7.860224821      2.556      3.866
REMARK  14 active torsions:
REMARK  status: ('A' for Active; 'I' for Inactive)
REMARK    1  A    between atoms: C2_2  and  C4_4 
REMARK    2  A    between atoms: C6_6  and  O1_7 
REMARK    3  A    between atoms: O1_7  and  C7_8 
REMARK    4  A    between atoms: C7_8  and  C8_9 
REMARK    5  A    between atoms: C8_9  and  C9_10 
REMARK    6  A    between atoms: C9_10  and  O2_11 
REMARK    7  A    between atoms: O2_11  and  C10_12 
REMARK    8  A    between atoms: C12_17  and  O3_18 
REMARK    9  A    between atoms: C23_31  and  C25_33 
REMARK   10  A    between atoms: C25_33  and  O5_34 
REMARK   11  A    between atoms: O5_34  and  C26_35 
REMARK   12  A    between atoms: C26_35  and  C27_37 
REMARK   13  A    between atoms: C27_37  and  C28_38 
REMARK   14  A    between atoms: C28_38  and  C29_39 
ROOT
HETATM    1  C4  UNL     1      17.595  34.984  18.193  1.00  0.00     0.025 C 
HETATM    2  C5  UNL     1      16.777  36.255  18.164  1.00  0.00     0.042 C 
HETATM    3  C6  UNL     1      16.379  36.505  16.689  1.00  0.00     0.127 C 
HETATM    4  C13 UNL     1      17.201  35.471  15.955  1.00  0.00     0.024 C 
HETATM    5  C14 UNL     1      16.589  34.957  14.700  1.00  0.00     0.008 C 
HETATM    6  C15 UNL     1      17.303  33.770  14.172  1.00  0.00     0.006 C 
HETATM    7  C16 UNL     1      18.547  33.400  14.967  1.00  0.00    -0.000 C 
HETATM    8  C17 UNL     1      18.289  33.325  16.433  1.00  0.00    -0.001 C 
HETATM    9  C18 UNL     1      17.963  31.957  16.963  1.00  0.00     0.006 C 
HETATM   10  C19 UNL     1      17.827  30.923  15.875  1.00  0.00     0.006 C 
HETATM   11  C20 UNL     1      18.992  30.918  14.932  1.00  0.00    -0.005 C 
HETATM   12  C21 UNL     1      20.195  30.432  15.685  1.00  0.00     0.006 C 
HETATM   13  C22 UNL     1      21.150  31.569  15.664  1.00  0.00     0.012 C 
HETATM   14  C23 UNL     1      20.791  32.391  14.404  1.00  0.00    -0.014 C 
HETATM   15  C24 UNL     1      21.403  33.719  14.643  1.00  0.00     0.018 C 
HETATM   16  C30 UNL     1      19.316  32.287  14.357  1.00  0.00    -0.027 C 
HETATM   17  C31 UNL     1      18.891  32.212  12.898  1.00  0.00     0.016 C 
HETATM   18  C32 UNL     1      17.280  34.325  16.917  1.00  0.00    -0.027 C 
HETATM   19  C33 UNL     1      15.895  33.713  17.050  1.00  0.00     0.016 C 
ENDROOT
BRANCH   3  20
HETATM   20  O1  UNL     1      16.805  37.733  16.349  1.00  0.00    -0.385 OA
BRANCH  20  21
HETATM   21  C7  UNL     1      17.052  38.722  17.173  1.00  0.00     0.170 C 
BRANCH  21  22
HETATM   22  C8  UNL     1      18.410  39.233  17.458  1.00  0.00     0.052 C 
BRANCH  22  23
HETATM   23  C9  UNL     1      18.797  39.595  18.837  1.00  0.00     0.174 C 
BRANCH  23  24
HETATM   24  O2  UNL     1      19.849  38.849  19.371  1.00  0.00    -0.339 OA
BRANCH  24  25
HETATM   25  C10 UNL     1      21.100  39.234  18.973  1.00  0.00     0.471 C 
HETATM   26  N1  UNL     1      21.522  40.434  19.687  1.00  0.00    -0.020 N 
HETATM   27  C11 UNL     1      22.973  40.365  19.709  1.00  0.00     0.298 C 
ATOM     28  H12 UNL     1      21.154  41.300  19.294  1.00  0.00     0.283 HD
ATOM     29  H11 UNL     1      21.099  40.536  20.610  1.00  0.00     0.283 HD
HETATM   30  C12 UNL     1      23.221  38.918  19.432  1.00  0.00     0.287 C 
HETATM   31  O4  UNL     1      22.009  38.269  19.387  1.00  0.00    -0.307 OA
BRANCH  30  32
HETATM   32  O3  UNL     1      23.915  38.716  18.220  1.00  0.00    -0.369 OA
ATOM     33  H3  UNL     1      23.330  38.516  17.499  1.00  0.00     0.212 HD
ENDBRANCH  30  32
ENDBRANCH  24  25
ENDBRANCH  23  24
ENDBRANCH  22  23
ENDBRANCH  21  22
ENDBRANCH  20  21
ENDBRANCH   3  20
BRANCH   1  34
HETATM   34  C2  UNL     1      19.010  35.249  18.518  1.00  0.00    -0.088 C 
HETATM   35  C1  UNL     1      19.456  34.995  19.761  1.00  0.00     0.014 C 
HETATM   36  C3  UNL     1      19.995  35.818  17.576  1.00  0.00     0.043 C 
ENDBRANCH   1  34
BRANCH  14  37
HETATM   37  C25 UNL     1      21.568  31.706  13.314  1.00  0.00     0.188 C 
BRANCH  37  38
HETATM   38  O5  UNL     1      22.116  30.463  13.674  1.00  0.00    -0.321 OA
BRANCH  38  39
HETATM   39  C26 UNL     1      22.005  29.346  12.893  1.00  0.00     0.259 C 
HETATM   40  O6  UNL     1      21.052  29.249  12.092  1.00  0.00    -0.265 OA
BRANCH  39  41
HETATM   41  C27 UNL     1      23.037  28.271  13.026  1.00  0.00     0.121 C 
BRANCH  41  42
HETATM   42  C28 UNL     1      23.359  27.714  11.634  1.00  0.00     0.123 C 
BRANCH  42  43
HETATM   43  C29 UNL     1      23.745  26.284  11.727  1.00  0.00     0.172 C 
HETATM   44  O7  UNL     1      24.873  25.924  12.144  1.00  0.00    -0.648 OA
HETATM   45  O8  UNL     1      22.815  25.335  11.335  1.00  0.00    -0.648 OA
ENDBRANCH  42  43
ENDBRANCH  41  42
ENDBRANCH  39  41
ENDBRANCH  38  39
ENDBRANCH  37  38
ENDBRANCH  14  37
TORSDOF 14
ENDMDL
MODEL 5
REMARK VINA RESULT: -7.712478383      2.356      3.022
REMARK  14 active torsions:
REMARK  status: ('A' for Active; 'I' for Inactive)
REMARK    1  A    between atoms: C2_2  and  C4_4 
REMARK    2  A    between atoms: C6_6  and  O1_7 
REMARK    3  A    between atoms: O1_7  and  C7_8 
REMARK    4  A    between atoms: C7_8  and  C8_9 
REMARK    5  A    between atoms: C8_9  and  C9_10 
REMARK    6  A    between atoms: C9_10  and  O2_11 
REMARK    7  A    between atoms: O2_11  and  C10_12 
REMARK    8  A    between atoms: C12_17  and  O3_18 
REMARK    9  A    between atoms: C23_31  and  C25_33 
REMARK   10  A    between atoms: C25_33  and  O5_34 
REMARK   11  A    between atoms: O5_34  and  C26_35 
REMARK   12  A    between atoms: C26_35  and  C27_37 
REMARK   13  A    between atoms: C27_37  and  C28_38 
REMARK   14  A    between atoms: C28_38  and  C29_39 
ROOT
HETATM    1  C4  UNL     1      17.524  35.028  18.275  1.00  0.00     0.025 C 
HETATM    2  C5  UNL     1      16.693  36.291  18.246  1.00  0.00     0.042 C 
HETATM    3  C6  UNL     1      16.315  36.553  16.769  1.00  0.00     0.127 C 
HETATM    4  C13 UNL     1      17.159  35.536  16.036  1.00  0.00     0.024 C 
HETATM    5  C14 UNL     1      16.572  35.030  14.766  1.00  0.00     0.008 C 
HETATM    6  C15 UNL     1      17.307  33.855  14.236  1.00  0.00     0.006 C 
HETATM    7  C16 UNL     1      18.542  33.489  15.047  1.00  0.00    -0.000 C 
HETATM    8  C17 UNL     1      18.262  33.395  16.508  1.00  0.00    -0.001 C 
HETATM    9  C18 UNL     1      17.942  32.019  17.017  1.00  0.00     0.006 C 
HETATM   10  C19 UNL     1      17.834  30.995  15.916  1.00  0.00     0.006 C 
HETATM   11  C20 UNL     1      19.013  31.013  14.992  1.00  0.00    -0.005 C 
HETATM   12  C21 UNL     1      20.209  30.530  15.758  1.00  0.00     0.006 C 
HETATM   13  C22 UNL     1      21.153  31.678  15.764  1.00  0.00     0.012 C 
HETATM   14  C23 UNL     1      20.804  32.510  14.508  1.00  0.00    -0.014 C 
HETATM   15  C24 UNL     1      21.399  33.841  14.770  1.00  0.00     0.018 C 
HETATM   16  C30 UNL     1      19.332  32.391  14.436  1.00  0.00    -0.027 C 
HETATM   17  C31 UNL     1      18.930  32.328  12.970  1.00  0.00     0.016 C 
HETATM   18  C32 UNL     1      17.236  34.380  16.986  1.00  0.00    -0.027 C 
HETATM   19  C33 UNL     1      15.855  33.752  17.092  1.00  0.00     0.016 C 
ENDROOT
BRANCH   3  20
HETATM   20  O1  UNL     1      16.734  37.789  16.449  1.00  0.00    -0.385 OA
BRANCH  20  21
HETATM   21  C7  UNL     1      16.718  38.838  17.233  1.00  0.00     0.170 C 
BRANCH  21  22
HETATM   22  C8  UNL     1      16.878  40.226  16.750  1.00  0.00     0.052 C 
BRANCH  22  23
HETATM   23  C9  UNL     1      18.219  40.841  16.676  1.00  0.00     0.174 C 
BRANCH  23  24
HETATM   24  O2  UNL     1      19.178  40.089  15.995  1.00  0.00    -0.339 OA
BRANCH  24  25
HETATM   25  C10 UNL     1      20.134  39.509  16.782  1.00  0.00     0.471 C 
HETATM   26  N1  UNL     1      21.468  39.773  16.253  1.00  0.00    -0.020 N 
HETATM   27  C11 UNL     1      22.346  39.722  17.409  1.00  0.00     0.298 C 
ATOM     28  H12 UNL     1      21.743  39.147  15.496  1.00  0.00     0.283 HD
ATOM     29  H11 UNL     1      21.537  40.639  15.719  1.00  0.00     0.283 HD
HETATM   30  C12 UNL     1      21.386  39.908  18.539  1.00  0.00     0.287 C 
HETATM   31  O4  UNL     1      20.138  40.151  18.014  1.00  0.00    -0.307 OA
BRANCH  30  32
HETATM   32  O3  UNL     1      21.335  38.782  19.388  1.00  0.00    -0.369 OA
ATOM     33  H3  UNL     1      20.563  38.783  19.941  1.00  0.00     0.212 HD
ENDBRANCH  30  32
ENDBRANCH  24  25
ENDBRANCH  23  24
ENDBRANCH  22  23
ENDBRANCH  21  22
ENDBRANCH  20  21
ENDBRANCH   3  20
BRANCH   1  34
HETATM   34  C2  UNL     1      18.930  35.304  18.624  1.00  0.00    -0.088 C 
HETATM   35  C1  UNL     1      19.405  34.890  19.813  1.00  0.00     0.014 C 
HETATM   36  C3  UNL     1      19.878  36.047  17.769  1.00  0.00     0.043 C 
ENDBRANCH   1  34
BRANCH  14  37
HETATM   37  C25 UNL     1      21.605  31.845  13.422  1.00  0.00     0.188 C 
BRANCH  37  38
HETATM   38  O5  UNL     1      22.252  30.659  13.811  1.00  0.00    -0.321 OA
BRANCH  38  39
HETATM   39  C26 UNL     1      22.119  29.481  13.130  1.00  0.00     0.259 C 
HETATM   40  O6  UNL     1      22.918  28.548  13.353  1.00  0.00    -0.265 OA
BRANCH  39  41
HETATM   41  C27 UNL     1      21.010  29.349  12.134  1.00  0.00     0.121 C 
BRANCH  41  42
HETATM   42  C28 UNL     1      20.064  28.231  12.587  1.00  0.00     0.123 C 
BRANCH  42  43
HETATM   43  C29 UNL     1      18.653  28.608  12.320  1.00  0.00     0.172 C 
HETATM   44  O7  UNL     1      17.719  28.284  13.094  1.00  0.00    -0.648 OA
HETATM   45  O8  UNL     1      18.383  29.340  11.176  1.00  0.00    -0.648 OA
ENDBRANCH  42  43
ENDBRANCH  41  42
ENDBRANCH  39  41
ENDBRANCH  38  39
ENDBRANCH  37  38
ENDBRANCH  14  37
TORSDOF 14
ENDMDL
