MODEL 1
REMARK VINA RESULT: -9.146183251      0.000      0.000
REMARK  13 active torsions:
REMARK  status: ('A' for Active; 'I' for Inactive)
REMARK    1  A    between atoms: C5_6  and  O1_7 
REMARK    2  A    between atoms: O1_7  and  C6_8 
REMARK    3  A    between atoms: C6_8  and  C7_9 
REMARK    4  A    between atoms: C7_9  and  C8_10 
REMARK    5  A    between atoms: C8_10  and  C9_11 
REMARK    6  A    between atoms: C9_11  and  C10_12 
REMARK    7  A    between atoms: C10_12  and  C11_13 
REMARK    8  A    between atoms: C11_13  and  C12_14 
REMARK    9  A    between atoms: C12_14  and  N2_15 
REMARK   10  A    between atoms: C24_34  and  C25_35 
REMARK   11  A    between atoms: C25_35  and  N5_36 
REMARK       I    between atoms: N5_36  and  C26_38 
REMARK   12  A    between atoms: C26_38  and  C27_40 
REMARK   13  A    between atoms: C32_45  and  O4_46 
ROOT
HETATM    1  N1  UNL     1      23.582  33.049  15.673  1.00  0.00    -0.191 NA
HETATM    2  C1  UNL     1      23.056  32.319  14.957  1.00  0.00     0.099 C 
HETATM    3  C2  UNL     1      22.388  31.428  14.068  1.00  0.00     0.045 A 
HETATM    4  C3  UNL     1      21.527  31.914  13.113  1.00  0.00     0.025 A 
HETATM    5  C4  UNL     1      20.872  31.084  12.244  1.00  0.00     0.039 A 
HETATM    6  C5  UNL     1      21.080  29.701  12.324  1.00  0.00     0.076 A 
HETATM    7  C24 UNL     1      21.971  29.200  13.311  1.00  0.00    -0.006 A 
HETATM    8  C33 UNL     1      22.611  30.049  14.164  1.00  0.00     0.034 A 
ENDROOT
BRANCH   7   9
HETATM    9  C25 UNL     1      22.179  27.748  13.325  1.00  0.00     0.164 C 
BRANCH   9  10
HETATM   10  N5  UNL     1      22.788  27.200  12.148  1.00  0.00    -0.356 N 
HETATM   11  C26 UNL     1      24.215  27.172  11.949  1.00  0.00     0.224 C 
HETATM   12  O3  UNL     1      24.909  27.645  12.863  1.00  0.00    -0.273 OA
ATOM     13  H5  UNL     1      22.186  26.814  11.421  1.00  0.00     0.162 HD
BRANCH  11  14
HETATM   14  C27 UNL     1      24.795  26.611  10.719  1.00  0.00     0.106 C 
HETATM   15  C28 UNL     1      24.514  25.119  10.595  1.00  0.00     0.017 C 
HETATM   16  C29 UNL     1      23.139  24.851  10.028  1.00  0.00     0.001 C 
HETATM   17  C30 UNL     1      22.965  25.490   8.679  1.00  0.00     0.002 C 
HETATM   18  C31 UNL     1      24.139  26.376   8.318  1.00  0.00     0.032 C 
HETATM   19  C32 UNL     1      24.480  27.321   9.456  1.00  0.00     0.131 C 
BRANCH  19  20
HETATM   20  O4  UNL     1      23.494  28.263   9.654  1.00  0.00    -0.395 OA
ATOM     21  H4  UNL     1      23.788  29.124   9.382  1.00  0.00     0.210 HD
ENDBRANCH  19  20
ENDBRANCH  11  14
ENDBRANCH   9  10
ENDBRANCH   7   9
BRANCH   6  22
HETATM   22  O1  UNL     1      20.511  28.808  11.548  1.00  0.00    -0.350 OA
BRANCH  22  23
HETATM   23  C6  UNL     1      19.632  28.269  10.765  1.00  0.00     0.179 C 
BRANCH  23  24
HETATM   24  C7  UNL     1      18.461  27.478  11.317  1.00  0.00     0.054 C 
BRANCH  24  25
HETATM   25  C8  UNL     1      18.327  27.378  12.758  1.00  0.00    -0.025 C 
BRANCH  25  26
HETATM   26  C9  UNL     1      17.884  28.437  13.644  1.00  0.00    -0.004 C 
BRANCH  26  27
HETATM   27  C10 UNL     1      17.538  29.798  13.347  1.00  0.00    -0.003 C 
BRANCH  27  28
HETATM   28  C11 UNL     1      17.874  31.022  14.038  1.00  0.00     0.003 C 
BRANCH  28  29
HETATM   29  C12 UNL     1      18.079  31.144  15.492  1.00  0.00     0.300 C 
BRANCH  29  30
HETATM   30  N2  UNL     1      17.556  32.377  16.030  1.00  0.00     0.093 N 
HETATM   31  C13 UNL     1      17.110  33.274  14.978  1.00  0.00     0.273 C 
HETATM   32  C14 UNL     1      15.977  34.177  15.463  1.00  0.00     0.032 C 
HETATM   33  C15 UNL     1      16.385  35.638  15.429  1.00  0.00     0.029 C 
HETATM   34  C16 UNL     1      16.038  36.320  16.733  1.00  0.00     0.232 C 
HETATM   35  N3  UNL     1      17.018  37.352  17.015  1.00  0.00    -0.075 N 
HETATM   36  C17 UNL     1      17.376  37.359  18.434  1.00  0.00     0.233 C 
ATOM     37  H32 UNL     1      17.840  37.263  16.419  1.00  0.00     0.277 HD
ATOM     38  H31 UNL     1      16.699  38.269  16.703  1.00  0.00     0.277 HD
HETATM   39  C18 UNL     1      18.644  38.108  18.690  1.00  0.00     0.055 C 
HETATM   40  C19 UNL     1      19.702  37.890  17.665  1.00  0.00     0.234 C 
HETATM   41  N4  UNL     1      20.923  37.313  18.211  1.00  0.00    -0.073 N 
HETATM   42  C20 UNL     1      20.768  35.910  18.542  1.00  0.00     0.258 C 
ATOM     43  H42 UNL     1      21.713  37.458  17.583  1.00  0.00     0.277 HD
ATOM     44  H41 UNL     1      21.254  37.846  19.015  1.00  0.00     0.277 HD
HETATM   45  C21 UNL     1      21.153  34.996  17.402  1.00  0.00     0.195 C 
HETATM   46  O2  UNL     1      20.051  34.819  16.572  1.00  0.00    -0.388 OA
HETATM   47  C22 UNL     1      19.752  33.484  16.332  1.00  0.00     0.198 C 
HETATM   48  C23 UNL     1      18.470  33.038  16.936  1.00  0.00     0.298 C 
ENDBRANCH  29  30
ENDBRANCH  28  29
ENDBRANCH  27  28
ENDBRANCH  26  27
ENDBRANCH  25  26
ENDBRANCH  24  25
ENDBRANCH  23  24
ENDBRANCH  22  23
ENDBRANCH   6  22
TORSDOF 13
ENDMDL
MODEL 2
REMARK VINA RESULT: -9.137448341      1.844      5.633
REMARK  13 active torsions:
REMARK  status: ('A' for Active; 'I' for Inactive)
REMARK    1  A    between atoms: C5_6  and  O1_7 
REMARK    2  A    between atoms: O1_7  and  C6_8 
REMARK    3  A    between atoms: C6_8  and  C7_9 
REMARK    4  A    between atoms: C7_9  and  C8_10 
REMARK    5  A    between atoms: C8_10  and  C9_11 
REMARK    6  A    between atoms: C9_11  and  C10_12 
REMARK    7  A    between atoms: C10_12  and  C11_13 
REMARK    8  A    between atoms: C11_13  and  C12_14 
REMARK    9  A    between atoms: C12_14  and  N2_15 
REMARK   10  A    between atoms: C24_34  and  C25_35 
REMARK   11  A    between atoms: C25_35  and  N5_36 
REMARK       I    between atoms: N5_36  and  C26_38 
REMARK   12  A    between atoms: C26_38  and  C27_40 
REMARK   13  A    between atoms: C32_45  and  O4_46 
ROOT
HETATM    1  N1  UNL     1      24.263  24.523   6.556  1.00  0.00    -0.191 NA
HETATM    2  C1  UNL     1      24.008  25.027   7.558  1.00  0.00     0.099 C 
HETATM    3  C2  UNL     1      23.713  25.659   8.800  1.00  0.00     0.045 A 
HETATM    4  C3  UNL     1      24.436  26.751   9.214  1.00  0.00     0.025 A 
HETATM    5  C4  UNL     1      24.176  27.381  10.402  1.00  0.00     0.039 A 
HETATM    6  C5  UNL     1      23.145  26.903  11.221  1.00  0.00     0.076 A 
HETATM    7  C24 UNL     1      22.397  25.775  10.792  1.00  0.00    -0.006 A 
HETATM    8  C33 UNL     1      22.677  25.167   9.605  1.00  0.00     0.034 A 
ENDROOT
BRANCH   7   9
HETATM    9  C25 UNL     1      21.306  25.341  11.672  1.00  0.00     0.164 C 
BRANCH   9  10
HETATM   10  N5  UNL     1      20.276  26.312  11.903  1.00  0.00    -0.356 N 
HETATM   11  C26 UNL     1      19.011  26.286  11.214  1.00  0.00     0.224 C 
HETATM   12  O3  UNL     1      18.844  25.362  10.401  1.00  0.00    -0.273 OA
ATOM     13  H5  UNL     1      20.447  27.052  12.583  1.00  0.00     0.162 HD
BRANCH  11  14
HETATM   14  C27 UNL     1      17.988  27.311  11.474  1.00  0.00     0.106 C 
HETATM   15  C28 UNL     1      17.475  27.241  12.906  1.00  0.00     0.017 C 
HETATM   16  C29 UNL     1      18.393  27.962  13.868  1.00  0.00     0.001 C 
HETATM   17  C30 UNL     1      18.568  29.405  13.485  1.00  0.00     0.002 C 
HETATM   18  C31 UNL     1      17.927  29.717  12.150  1.00  0.00     0.032 C 
HETATM   19  C32 UNL     1      18.336  28.703  11.097  1.00  0.00     0.131 C 
BRANCH  19  20
HETATM   20  O4  UNL     1      19.672  28.806  10.776  1.00  0.00    -0.395 OA
ATOM     21  H4  UNL     1      19.858  29.641  10.365  1.00  0.00     0.210 HD
ENDBRANCH  19  20
ENDBRANCH  11  14
ENDBRANCH   9  10
ENDBRANCH   7   9
BRANCH   6  22
HETATM   22  O1  UNL     1      22.802  27.421  12.378  1.00  0.00    -0.350 OA
BRANCH  22  23
HETATM   23  C6  UNL     1      22.571  28.320  13.282  1.00  0.00     0.179 C 
BRANCH  23  24
HETATM   24  C7  UNL     1      22.086  29.709  12.908  1.00  0.00     0.054 C 
BRANCH  24  25
HETATM   25  C8  UNL     1      21.947  30.688  13.969  1.00  0.00    -0.025 C 
BRANCH  25  26
HETATM   26  C9  UNL     1      22.932  30.973  14.995  1.00  0.00    -0.004 C 
BRANCH  26  27
HETATM   27  C10 UNL     1      23.580  32.211  15.324  1.00  0.00    -0.003 C 
BRANCH  27  28
HETATM   28  C11 UNL     1      23.025  33.522  15.576  1.00  0.00     0.003 C 
BRANCH  28  29
HETATM   29  C12 UNL     1      22.199  33.880  16.743  1.00  0.00     0.300 C 
BRANCH  29  30
HETATM   30  N2  UNL     1      20.810  33.523  16.576  1.00  0.00     0.093 N 
HETATM   31  C13 UNL     1      20.365  33.729  15.208  1.00  0.00     0.273 C 
HETATM   32  C14 UNL     1      19.240  32.762  14.841  1.00  0.00     0.032 C 
HETATM   33  C15 UNL     1      17.957  33.507  14.519  1.00  0.00     0.029 C 
HETATM   34  C16 UNL     1      16.786  32.893  15.252  1.00  0.00     0.232 C 
HETATM   35  N3  UNL     1      15.824  33.928  15.580  1.00  0.00    -0.075 N 
HETATM   36  C17 UNL     1      15.291  33.737  16.930  1.00  0.00     0.233 C 
ATOM     37  H32 UNL     1      16.219  34.861  15.460  1.00  0.00     0.277 HD
ATOM     38  H31 UNL     1      15.079  33.985  14.886  1.00  0.00     0.277 HD
HETATM   39  C18 UNL     1      14.625  34.970  17.451  1.00  0.00     0.055 C 
HETATM   40  C19 UNL     1      15.331  36.237  17.112  1.00  0.00     0.234 C 
HETATM   41  N4  UNL     1      15.758  36.990  18.283  1.00  0.00    -0.073 N 
HETATM   42  C20 UNL     1      16.893  36.380  18.945  1.00  0.00     0.258 C 
ATOM     43  H42 UNL     1      15.949  37.963  18.046  1.00  0.00     0.277 HD
ATOM     44  H41 UNL     1      14.984  37.129  18.933  1.00  0.00     0.277 HD
HETATM   45  C21 UNL     1      18.217  36.911  18.442  1.00  0.00     0.195 C 
HETATM   46  O2  UNL     1      18.601  36.178  17.324  1.00  0.00    -0.388 OA
HETATM   47  C22 UNL     1      19.888  35.662  17.420  1.00  0.00     0.198 C 
HETATM   48  C23 UNL     1      19.935  34.181  17.522  1.00  0.00     0.298 C 
ENDBRANCH  29  30
ENDBRANCH  28  29
ENDBRANCH  27  28
ENDBRANCH  26  27
ENDBRANCH  25  26
ENDBRANCH  24  25
ENDBRANCH  23  24
ENDBRANCH  22  23
ENDBRANCH   6  22
TORSDOF 13
ENDMDL
MODEL 3
REMARK VINA RESULT: -9.112758849      1.783      5.827
REMARK  13 active torsions:
REMARK  status: ('A' for Active; 'I' for Inactive)
REMARK    1  A    between atoms: C5_6  and  O1_7 
REMARK    2  A    between atoms: O1_7  and  C6_8 
REMARK    3  A    between atoms: C6_8  and  C7_9 
REMARK    4  A    between atoms: C7_9  and  C8_10 
REMARK    5  A    between atoms: C8_10  and  C9_11 
REMARK    6  A    between atoms: C9_11  and  C10_12 
REMARK    7  A    between atoms: C10_12  and  C11_13 
REMARK    8  A    between atoms: C11_13  and  C12_14 
REMARK    9  A    between atoms: C12_14  and  N2_15 
REMARK   10  A    between atoms: C24_34  and  C25_35 
REMARK   11  A    between atoms: C25_35  and  N5_36 
REMARK       I    between atoms: N5_36  and  C26_38 
REMARK   12  A    between atoms: C26_38  and  C27_40 
REMARK   13  A    between atoms: C32_45  and  O4_46 
ROOT
HETATM    1  N1  UNL     1      23.806  24.250   6.469  1.00  0.00    -0.191 NA
HETATM    2  C1  UNL     1      23.669  24.834   7.450  1.00  0.00     0.099 C 
HETATM    3  C2  UNL     1      23.519  25.566   8.664  1.00  0.00     0.045 A 
HETATM    4  C3  UNL     1      24.294  26.674   8.908  1.00  0.00     0.025 A 
HETATM    5  C4  UNL     1      24.173  27.397  10.064  1.00  0.00     0.039 A 
HETATM    6  C5  UNL     1      23.236  27.003  11.027  1.00  0.00     0.076 A 
HETATM    7  C24 UNL     1      22.434  25.858  10.773  1.00  0.00    -0.006 A 
HETATM    8  C33 UNL     1      22.575  25.156   9.614  1.00  0.00     0.034 A 
ENDROOT
BRANCH   7   9
HETATM    9  C25 UNL     1      21.444  25.513  11.799  1.00  0.00     0.164 C 
BRANCH   9  10
HETATM   10  N5  UNL     1      20.390  26.468  11.985  1.00  0.00    -0.356 N 
HETATM   11  C26 UNL     1      19.146  26.408  11.260  1.00  0.00     0.224 C 
HETATM   12  O3  UNL     1      19.021  25.471  10.456  1.00  0.00    -0.273 OA
ATOM     13  H5  UNL     1      20.527  27.221  12.660  1.00  0.00     0.162 HD
BRANCH  11  14
HETATM   14  C27 UNL     1      18.097  27.417  11.475  1.00  0.00     0.106 C 
HETATM   15  C28 UNL     1      17.385  27.212  12.805  1.00  0.00     0.017 C 
HETATM   16  C29 UNL     1      18.156  27.818  13.956  1.00  0.00     0.001 C 
HETATM   17  C30 UNL     1      18.386  29.289  13.751  1.00  0.00     0.002 C 
HETATM   18  C31 UNL     1      17.943  29.744  12.377  1.00  0.00     0.032 C 
HETATM   19  C32 UNL     1      18.497  28.835  11.295  1.00  0.00     0.131 C 
BRANCH  19  20
HETATM   20  O4  UNL     1      19.866  28.949  11.180  1.00  0.00    -0.395 OA
ATOM     21  H4  UNL     1      20.112  29.831  10.929  1.00  0.00     0.210 HD
ENDBRANCH  19  20
ENDBRANCH  11  14
ENDBRANCH   9  10
ENDBRANCH   7   9
BRANCH   6  22
HETATM   22  O1  UNL     1      23.028  27.615  12.171  1.00  0.00    -0.350 OA
BRANCH  22  23
HETATM   23  C6  UNL     1      23.138  28.505  13.105  1.00  0.00     0.179 C 
BRANCH  23  24
HETATM   24  C7  UNL     1      22.033  28.723  14.122  1.00  0.00     0.054 C 
BRANCH  24  25
HETATM   25  C8  UNL     1      21.798  30.075  14.590  1.00  0.00    -0.025 C 
BRANCH  25  26
HETATM   26  C9  UNL     1      22.306  31.287  13.975  1.00  0.00    -0.004 C 
BRANCH  26  27
HETATM   27  C10 UNL     1      23.385  32.140  14.384  1.00  0.00    -0.003 C 
BRANCH  27  28
HETATM   28  C11 UNL     1      23.478  33.069  15.489  1.00  0.00     0.003 C 
BRANCH  28  29
HETATM   29  C12 UNL     1      22.734  32.954  16.755  1.00  0.00     0.300 C 
BRANCH  29  30
HETATM   30  N2  UNL     1      21.731  33.981  16.911  1.00  0.00     0.093 N 
HETATM   31  C13 UNL     1      21.496  34.292  18.311  1.00  0.00     0.273 C 
HETATM   32  C14 UNL     1      21.045  35.741  18.488  1.00  0.00     0.032 C 
HETATM   33  C15 UNL     1      19.644  35.814  19.068  1.00  0.00     0.029 C 
HETATM   34  C16 UNL     1      18.788  36.777  18.277  1.00  0.00     0.232 C 
HETATM   35  N3  UNL     1      17.412  36.320  18.284  1.00  0.00    -0.075 N 
HETATM   36  C17 UNL     1      16.798  36.489  16.966  1.00  0.00     0.233 C 
ATOM     37  H32 UNL     1      17.337  35.358  18.614  1.00  0.00     0.277 HD
ATOM     38  H31 UNL     1      16.867  36.777  19.015  1.00  0.00     0.277 HD
HETATM   39  C18 UNL     1      15.550  35.680  16.819  1.00  0.00     0.055 C 
HETATM   40  C19 UNL     1      15.625  34.322  17.427  1.00  0.00     0.234 C 
HETATM   41  N4  UNL     1      15.429  33.248  16.462  1.00  0.00    -0.073 N 
HETATM   42  C20 UNL     1      16.578  33.069  15.598  1.00  0.00     0.258 C 
ATOM     43  H42 UNL     1      15.179  32.376  16.928  1.00  0.00     0.277 HD
ATOM     44  H41 UNL     1      14.578  33.392  15.919  1.00  0.00     0.277 HD
HETATM   45  C21 UNL     1      17.563  32.057  16.137  1.00  0.00     0.195 C 
HETATM   46  O2  UNL     1      18.441  32.698  17.004  1.00  0.00    -0.388 OA
HETATM   47  C22 UNL     1      19.777  32.473  16.700  1.00  0.00     0.198 C 
HETATM   48  C23 UNL     1      20.496  33.681  16.221  1.00  0.00     0.298 C 
ENDBRANCH  29  30
ENDBRANCH  28  29
ENDBRANCH  27  28
ENDBRANCH  26  27
ENDBRANCH  25  26
ENDBRANCH  24  25
ENDBRANCH  23  24
ENDBRANCH  22  23
ENDBRANCH   6  22
TORSDOF 13
ENDMDL
MODEL 4
REMARK VINA RESULT: -9.105611413      3.137      6.299
REMARK  13 active torsions:
REMARK  status: ('A' for Active; 'I' for Inactive)
REMARK    1  A    between atoms: C5_6  and  O1_7 
REMARK    2  A    between atoms: O1_7  and  C6_8 
REMARK    3  A    between atoms: C6_8  and  C7_9 
REMARK    4  A    between atoms: C7_9  and  C8_10 
REMARK    5  A    between atoms: C8_10  and  C9_11 
REMARK    6  A    between atoms: C9_11  and  C10_12 
REMARK    7  A    between atoms: C10_12  and  C11_13 
REMARK    8  A    between atoms: C11_13  and  C12_14 
REMARK    9  A    between atoms: C12_14  and  N2_15 
REMARK   10  A    between atoms: C24_34  and  C25_35 
REMARK   11  A    between atoms: C25_35  and  N5_36 
REMARK       I    between atoms: N5_36  and  C26_38 
REMARK   12  A    between atoms: C26_38  and  C27_40 
REMARK   13  A    between atoms: C32_45  and  O4_46 
ROOT
HETATM    1  N1  UNL     1      18.496  25.619  10.667  1.00  0.00    -0.191 NA
HETATM    2  C1  UNL     1      18.569  26.675  11.118  1.00  0.00     0.099 C 
HETATM    3  C2  UNL     1      18.639  27.985  11.673  1.00  0.00     0.045 A 
HETATM    4  C3  UNL     1      17.532  28.555  12.254  1.00  0.00     0.025 A 
HETATM    5  C4  UNL     1      17.568  29.811  12.797  1.00  0.00     0.039 A 
HETATM    6  C5  UNL     1      18.763  30.541  12.763  1.00  0.00     0.076 A 
HETATM    7  C24 UNL     1      19.908  29.951  12.163  1.00  0.00    -0.006 A 
HETATM    8  C33 UNL     1      19.845  28.698  11.630  1.00  0.00     0.034 A 
ENDROOT
BRANCH   7   9
HETATM    9  C25 UNL     1      21.141  30.745  12.189  1.00  0.00     0.164 C 
BRANCH   9  10
HETATM   10  N5  UNL     1      21.851  30.743  13.435  1.00  0.00    -0.356 N 
HETATM   11  C26 UNL     1      22.316  31.951  14.069  1.00  0.00     0.224 C 
HETATM   12  O3  UNL     1      22.064  33.015  13.481  1.00  0.00    -0.273 OA
ATOM     13  H5  UNL     1      22.033  29.850  13.892  1.00  0.00     0.162 HD
BRANCH  11  14
HETATM   14  C27 UNL     1      23.051  31.900  15.343  1.00  0.00     0.106 C 
HETATM   15  C28 UNL     1      23.625  33.261  15.715  1.00  0.00     0.017 C 
HETATM   16  C29 UNL     1      22.594  34.142  16.384  1.00  0.00     0.001 C 
HETATM   17  C30 UNL     1      22.037  33.497  17.621  1.00  0.00     0.002 C 
HETATM   18  C31 UNL     1      22.519  32.070  17.780  1.00  0.00     0.032 C 
HETATM   19  C32 UNL     1      22.340  31.287  16.491  1.00  0.00     0.131 C 
BRANCH  19  20
HETATM   20  O4  UNL     1      21.010  31.082  16.195  1.00  0.00    -0.395 OA
ATOM     21  H4  UNL     1      20.469  31.200  16.966  1.00  0.00     0.210 HD
ENDBRANCH  19  20
ENDBRANCH  11  14
ENDBRANCH   9  10
ENDBRANCH   7   9
BRANCH   6  22
HETATM   22  O1  UNL     1      18.921  31.750  13.249  1.00  0.00    -0.350 OA
BRANCH  22  23
HETATM   23  C6  UNL     1      18.609  32.915  13.722  1.00  0.00     0.179 C 
BRANCH  23  24
HETATM   24  C7  UNL     1      18.553  33.172  15.216  1.00  0.00     0.054 C 
BRANCH  24  25
HETATM   25  C8  UNL     1      17.592  32.420  15.999  1.00  0.00    -0.025 C 
BRANCH  25  26
HETATM   26  C9  UNL     1      16.152  32.591  15.967  1.00  0.00    -0.004 C 
BRANCH  26  27
HETATM   27  C10 UNL     1      15.372  33.796  15.974  1.00  0.00    -0.003 C 
BRANCH  27  28
HETATM   28  C11 UNL     1      14.918  34.612  17.078  1.00  0.00     0.003 C 
BRANCH  28  29
HETATM   29  C12 UNL     1      15.771  35.101  18.175  1.00  0.00     0.300 C 
BRANCH  29  30
HETATM   30  N2  UNL     1      16.988  35.719  17.705  1.00  0.00     0.093 N 
HETATM   31  C13 UNL     1      18.005  35.755  18.742  1.00  0.00     0.273 C 
HETATM   32  C14 UNL     1      19.410  35.716  18.141  1.00  0.00     0.032 C 
HETATM   33  C15 UNL     1      20.181  36.983  18.464  1.00  0.00     0.029 C 
HETATM   34  C16 UNL     1      20.832  37.543  17.220  1.00  0.00     0.232 C 
HETATM   35  N3  UNL     1      20.880  38.990  17.308  1.00  0.00    -0.075 N 
HETATM   36  C17 UNL     1      20.552  39.603  16.020  1.00  0.00     0.233 C 
ATOM     37  H32 UNL     1      20.283  39.342  18.056  1.00  0.00     0.277 HD
ATOM     38  H31 UNL     1      21.780  39.316  17.661  1.00  0.00     0.277 HD
HETATM   39  C18 UNL     1      20.199  41.048  16.159  1.00  0.00     0.055 C 
HETATM   40  C19 UNL     1      19.371  41.364  17.357  1.00  0.00     0.234 C 
HETATM   41  N4  UNL     1      18.078  41.948  17.026  1.00  0.00    -0.073 N 
HETATM   42  C20 UNL     1      17.156  40.971  16.482  1.00  0.00     0.258 C 
ATOM     43  H42 UNL     1      17.674  42.428  17.830  1.00  0.00     0.277 HD
ATOM     44  H41 UNL     1      18.184  42.744  16.397  1.00  0.00     0.277 HD
HETATM   45  C21 UNL     1      16.300  40.321  17.545  1.00  0.00     0.195 C 
HETATM   46  O2  UNL     1      16.986  39.233  18.074  1.00  0.00    -0.388 OA
HETATM   47  C22 UNL     1      16.247  38.056  18.058  1.00  0.00     0.198 C 
HETATM   48  C23 UNL     1      16.776  37.027  17.126  1.00  0.00     0.298 C 
ENDBRANCH  29  30
ENDBRANCH  28  29
ENDBRANCH  27  28
ENDBRANCH  26  27
ENDBRANCH  25  26
ENDBRANCH  24  25
ENDBRANCH  23  24
ENDBRANCH  22  23
ENDBRANCH   6  22
TORSDOF 13
ENDMDL
MODEL 5
REMARK VINA RESULT: -9.048585033      1.606      3.049
REMARK  13 active torsions:
REMARK  status: ('A' for Active; 'I' for Inactive)
REMARK    1  A    between atoms: C5_6  and  O1_7 
REMARK    2  A    between atoms: O1_7  and  C6_8 
REMARK    3  A    between atoms: C6_8  and  C7_9 
REMARK    4  A    between atoms: C7_9  and  C8_10 
REMARK    5  A    between atoms: C8_10  and  C9_11 
REMARK    6  A    between atoms: C9_11  and  C10_12 
REMARK    7  A    between atoms: C10_12  and  C11_13 
REMARK    8  A    between atoms: C11_13  and  C12_14 
REMARK    9  A    between atoms: C12_14  and  N2_15 
REMARK   10  A    between atoms: C24_34  and  C25_35 
REMARK   11  A    between atoms: C25_35  and  N5_36 
REMARK       I    between atoms: N5_36  and  C26_38 
REMARK   12  A    between atoms: C26_38  and  C27_40 
REMARK   13  A    between atoms: C32_45  and  O4_46 
ROOT
HETATM    1  N1  UNL     1      24.640  33.383  15.965  1.00  0.00    -0.191 NA
HETATM    2  C1  UNL     1      23.825  32.794  15.405  1.00  0.00     0.099 C 
HETATM    3  C2  UNL     1      22.803  32.083  14.712  1.00  0.00     0.045 A 
HETATM    4  C3  UNL     1      21.837  32.762  14.010  1.00  0.00     0.025 A 
HETATM    5  C4  UNL     1      20.843  32.107  13.334  1.00  0.00     0.039 A 
HETATM    6  C5  UNL     1      20.804  30.707  13.354  1.00  0.00     0.076 A 
HETATM    7  C24 UNL     1      21.805  30.006  14.080  1.00  0.00    -0.006 A 
HETATM    8  C33 UNL     1      22.783  30.683  14.744  1.00  0.00     0.034 A 
ENDROOT
BRANCH   7   9
HETATM    9  C25 UNL     1      21.737  28.541  14.036  1.00  0.00     0.164 C 
BRANCH   9  10
HETATM   10  N5  UNL     1      21.784  27.960  12.725  1.00  0.00    -0.356 N 
HETATM   11  C26 UNL     1      23.013  27.781  11.995  1.00  0.00     0.224 C 
HETATM   12  O3  UNL     1      24.052  28.151  12.565  1.00  0.00    -0.273 OA
ATOM     13  H5  UNL     1      20.911  27.661  12.292  1.00  0.00     0.162 HD
BRANCH  11  14
HETATM   14  C27 UNL     1      23.012  27.191  10.648  1.00  0.00     0.106 C 
HETATM   15  C28 UNL     1      24.362  27.355   9.962  1.00  0.00     0.017 C 
HETATM   16  C29 UNL     1      25.344  26.289  10.390  1.00  0.00     0.001 C 
HETATM   17  C30 UNL     1      24.821  24.910  10.105  1.00  0.00     0.002 C 
HETATM   18  C31 UNL     1      23.384  24.938   9.627  1.00  0.00     0.032 C 
HETATM   19  C32 UNL     1      22.523  25.794  10.539  1.00  0.00     0.131 C 
BRANCH  19  20
HETATM   20  O4  UNL     1      22.372  25.227  11.785  1.00  0.00    -0.395 OA
ATOM     21  H4  UNL     1      21.520  24.817  11.870  1.00  0.00     0.210 HD
ENDBRANCH  19  20
ENDBRANCH  11  14
ENDBRANCH   9  10
ENDBRANCH   7   9
BRANCH   6  22
HETATM   22  O1  UNL     1      19.904  29.970  12.746  1.00  0.00    -0.350 OA
BRANCH  22  23
HETATM   23  C6  UNL     1      18.827  29.667  12.094  1.00  0.00     0.179 C 
BRANCH  23  24
HETATM   24  C7  UNL     1      17.453  30.027  12.627  1.00  0.00     0.054 C 
BRANCH  24  25
HETATM   25  C8  UNL     1      17.334  31.211  13.455  1.00  0.00    -0.025 C 
BRANCH  25  26
HETATM   26  C9  UNL     1      17.449  31.252  14.900  1.00  0.00    -0.004 C 
BRANCH  26  27
HETATM   27  C10 UNL     1      16.471  31.607  15.888  1.00  0.00    -0.003 C 
BRANCH  27  28
HETATM   28  C11 UNL     1      15.648  32.790  16.009  1.00  0.00     0.003 C 
BRANCH  28  29
HETATM   29  C12 UNL     1      15.891  33.896  16.952  1.00  0.00     0.300 C 
BRANCH  29  30
HETATM   30  N2  UNL     1      17.151  34.563  16.720  1.00  0.00     0.093 N 
HETATM   31  C13 UNL     1      18.218  33.981  17.516  1.00  0.00     0.273 C 
HETATM   32  C14 UNL     1      19.572  34.136  16.823  1.00  0.00     0.032 C 
HETATM   33  C15 UNL     1      20.516  34.993  17.646  1.00  0.00     0.029 C 
HETATM   34  C16 UNL     1      21.166  36.051  16.783  1.00  0.00     0.232 C 
HETATM   35  N3  UNL     1      21.405  37.242  17.575  1.00  0.00    -0.075 N 
HETATM   36  C17 UNL     1      21.090  38.450  16.810  1.00  0.00     0.233 C 
ATOM     37  H32 UNL     1      20.900  37.214  18.460  1.00  0.00     0.277 HD
ATOM     38  H31 UNL     1      22.357  37.267  17.941  1.00  0.00     0.277 HD
HETATM   39  C18 UNL     1      20.933  39.647  17.691  1.00  0.00     0.055 C 
HETATM   40  C19 UNL     1      20.219  39.379  18.970  1.00  0.00     0.234 C 
HETATM   41  N4  UNL     1      18.997  40.156  19.121  1.00  0.00    -0.073 N 
HETATM   42  C20 UNL     1      17.928  39.673  18.270  1.00  0.00     0.258 C 
ATOM     43  H42 UNL     1      18.702  40.194  20.096  1.00  0.00     0.277 HD
ATOM     44  H41 UNL     1      19.170  41.149  18.965  1.00  0.00     0.277 HD
HETATM   45  C21 UNL     1      17.054  38.647  18.954  1.00  0.00     0.195 C 
HETATM   46  O2  UNL     1      17.622  37.388  18.790  1.00  0.00    -0.388 OA
HETATM   47  C22 UNL     1      16.737  36.450  18.272  1.00  0.00     0.198 C 
HETATM   48  C23 UNL     1      17.079  35.997  16.898  1.00  0.00     0.298 C 
ENDBRANCH  29  30
ENDBRANCH  28  29
ENDBRANCH  27  28
ENDBRANCH  26  27
ENDBRANCH  25  26
ENDBRANCH  24  25
ENDBRANCH  23  24
ENDBRANCH  22  23
ENDBRANCH   6  22
TORSDOF 13
ENDMDL
