MODEL 1
REMARK VINA RESULT: -8.760343527      0.000      0.000
REMARK  15 active torsions:
REMARK  status: ('A' for Active; 'I' for Inactive)
REMARK    1  A    between atoms: C2_2  and  C3_4 
REMARK    2  A    between atoms: C3_4  and  C4_5 
REMARK    3  A    between atoms: C4_5  and  C5_6 
REMARK    4  A    between atoms: C5_6  and  N1_7 
REMARK    5  A    between atoms: C5_6  and  C11_16 
REMARK       I    between atoms: N1_7  and  C6_9 
REMARK    6  A    between atoms: C6_9  and  O3_11 
REMARK    7  A    between atoms: O3_11  and  C7_12 
REMARK       I    between atoms: C11_16  and  N2_18 
REMARK    8  A    between atoms: N2_18  and  C12_20 
REMARK    9  A    between atoms: C12_20  and  C14_22 
REMARK       I    between atoms: C14_22  and  N3_24 
REMARK   10  A    between atoms: C16_26  and  O6_27 
REMARK   11  A    between atoms: O6_27  and  C17_28 
REMARK   12  A    between atoms: C17_28  and  C18_29 
REMARK   13  A    between atoms: C18_29  and  C19_30 
REMARK   14  A    between atoms: C19_30  and  C20_31 
REMARK   15  A    between atoms: C27_38  and  C28_39 
ROOT
HETATM    1  C12 UNL     1      21.339  30.461  12.690  1.00  0.00     0.172 C 
HETATM    2  C13 UNL     1      22.079  29.175  12.666  1.00  0.00     0.042 C 
ENDROOT
BRANCH   1   3
HETATM    3  N2  UNL     1      21.016  30.878  14.067  1.00  0.00    -0.346 N 
HETATM    4  C11 UNL     1      21.337  32.171  14.490  1.00  0.00     0.241 C 
HETATM    5  O4  UNL     1      21.878  32.901  13.569  1.00  0.00    -0.271 OA
ATOM      6  H2  UNL     1      20.560  30.227  14.706  1.00  0.00     0.163 HD
BRANCH   4   7
HETATM    7  C5  UNL     1      21.178  32.827  15.765  1.00  0.00     0.179 C 
BRANCH   7   8
HETATM    8  C4  UNL     1      22.115  32.659  16.868  1.00  0.00     0.042 C 
BRANCH   8   9
HETATM    9  C3  UNL     1      23.011  33.750  17.314  1.00  0.00     0.080 C 
BRANCH   9  10
HETATM   10  C2  UNL     1      22.373  34.943  17.870  1.00  0.00     0.123 C 
HETATM   11  C1  UNL     1      22.422  36.255  17.200  1.00  0.00     0.091 C 
HETATM   12  O1  UNL     1      21.761  34.875  18.926  1.00  0.00    -0.298 OA
ENDBRANCH   9  10
ENDBRANCH   8   9
ENDBRANCH   7   8
BRANCH   7  13
HETATM   13  N1  UNL     1      19.820  32.586  16.326  1.00  0.00    -0.324 N 
HETATM   14  C6  UNL     1      18.922  33.655  16.562  1.00  0.00     0.362 C 
HETATM   15  O2  UNL     1      19.290  34.835  16.275  1.00  0.00    -0.238 OA
ATOM     16  H1  UNL     1      19.532  31.633  16.546  1.00  0.00     0.165 HD
BRANCH  14  17
HETATM   17  O3  UNL     1      17.659  33.488  17.083  1.00  0.00    -0.294 OA
BRANCH  17  18
HETATM   18  C7  UNL     1      16.489  33.383  16.317  1.00  0.00     0.061 C 
HETATM   19  C8  UNL     1      16.275  31.967  15.773  1.00  0.00     0.046 C 
HETATM   20  C9  UNL     1      15.288  33.660  17.205  1.00  0.00     0.046 C 
HETATM   21  C10 UNL     1      16.394  34.318  15.154  1.00  0.00     0.046 C 
ENDBRANCH  17  18
ENDBRANCH  14  17
ENDBRANCH   7  13
ENDBRANCH   4   7
ENDBRANCH   1   3
BRANCH   1  22
HETATM   22  C14 UNL     1      20.167  30.433  11.800  1.00  0.00     0.243 C 
HETATM   23  O5  UNL     1      19.852  31.525  11.232  1.00  0.00    -0.271 OA
HETATM   24  N3  UNL     1      19.417  29.247  11.569  1.00  0.00    -0.335 N 
HETATM   25  C15 UNL     1      19.599  27.964  12.203  1.00  0.00     0.159 C 
HETATM   26  C27 UNL     1      18.352  29.166  10.554  1.00  0.00     0.179 C 
HETATM   27  C16 UNL     1      18.552  27.041  11.586  1.00  0.00     0.141 C 
HETATM   28  C26 UNL     1      18.394  27.677  10.226  1.00  0.00     0.068 C 
BRANCH  27  29
HETATM   29  O6  UNL     1      18.956  25.744  11.497  1.00  0.00    -0.384 OA
BRANCH  29  30
HETATM   30  C17 UNL     1      19.815  25.580  10.406  1.00  0.00     0.168 C 
BRANCH  30  31
HETATM   31  C18 UNL     1      20.986  24.708  10.747  1.00  0.00     0.027 C 
BRANCH  31  32
HETATM   32  C19 UNL     1      22.233  25.512  11.088  1.00  0.00     0.007 C 
BRANCH  32  33
HETATM   33  C20 UNL     1      23.314  25.285  10.052  1.00  0.00    -0.014 C 
HETATM   34  C21 UNL     1      24.657  25.328  10.728  1.00  0.00     0.004 C 
HETATM   35  C22 UNL     1      24.929  26.661  11.352  1.00  0.00     0.000 C 
HETATM   36  C23 UNL     1      24.765  27.822  10.422  1.00  0.00     0.000 C 
HETATM   37  C24 UNL     1      23.491  27.747   9.615  1.00  0.00     0.000 C 
HETATM   38  C25 UNL     1      23.315  26.377   8.998  1.00  0.00     0.004 C 
ENDBRANCH  32  33
ENDBRANCH  31  32
ENDBRANCH  30  31
ENDBRANCH  29  30
ENDBRANCH  27  29
BRANCH  26  39
HETATM   39  C28 UNL     1      17.098  29.572  11.168  1.00  0.00     0.254 C 
HETATM   40  N4  UNL     1      15.829  29.281  10.557  1.00  0.00    -0.060 NA
HETATM   41  O7  UNL     1      17.109  30.195  12.253  1.00  0.00    -0.275 OA
ENDBRANCH  26  39
ENDBRANCH   1  22
TORSDOF 15
ENDMDL
MODEL 2
REMARK VINA RESULT: -8.749628513      2.097      9.062
REMARK  15 active torsions:
REMARK  status: ('A' for Active; 'I' for Inactive)
REMARK    1  A    between atoms: C2_2  and  C3_4 
REMARK    2  A    between atoms: C3_4  and  C4_5 
REMARK    3  A    between atoms: C4_5  and  C5_6 
REMARK    4  A    between atoms: C5_6  and  N1_7 
REMARK    5  A    between atoms: C5_6  and  C11_16 
REMARK       I    between atoms: N1_7  and  C6_9 
REMARK    6  A    between atoms: C6_9  and  O3_11 
REMARK    7  A    between atoms: O3_11  and  C7_12 
REMARK       I    between atoms: C11_16  and  N2_18 
REMARK    8  A    between atoms: N2_18  and  C12_20 
REMARK    9  A    between atoms: C12_20  and  C14_22 
REMARK       I    between atoms: C14_22  and  N3_24 
REMARK   10  A    between atoms: C16_26  and  O6_27 
REMARK   11  A    between atoms: O6_27  and  C17_28 
REMARK   12  A    between atoms: C17_28  and  C18_29 
REMARK   13  A    between atoms: C18_29  and  C19_30 
REMARK   14  A    between atoms: C19_30  and  C20_31 
REMARK   15  A    between atoms: C27_38  and  C28_39 
ROOT
HETATM    1  C12 UNL     1      18.463  31.710  14.275  1.00  0.00     0.172 C 
HETATM    2  C13 UNL     1      18.516  32.874  13.355  1.00  0.00     0.042 C 
ENDROOT
BRANCH   1   3
HETATM    3  N2  UNL     1      17.989  30.495  13.588  1.00  0.00    -0.346 N 
HETATM    4  C11 UNL     1      18.908  29.506  13.222  1.00  0.00     0.241 C 
HETATM    5  O4  UNL     1      20.124  29.770  13.575  1.00  0.00    -0.271 OA
ATOM      6  H2  UNL     1      16.998  30.376  13.382  1.00  0.00     0.163 HD
BRANCH   4   7
HETATM    7  C5  UNL     1      18.741  28.258  12.520  1.00  0.00     0.179 C 
BRANCH   7   8
HETATM    8  C4  UNL     1      17.721  27.278  12.872  1.00  0.00     0.042 C 
BRANCH   8   9
HETATM    9  C3  UNL     1      16.568  26.990  11.989  1.00  0.00     0.080 C 
BRANCH   9  10
HETATM   10  C2  UNL     1      16.562  27.639  10.678  1.00  0.00     0.123 C 
HETATM   11  C1  UNL     1      15.998  28.984  10.461  1.00  0.00     0.091 C 
HETATM   12  O1  UNL     1      17.043  27.070   9.710  1.00  0.00    -0.298 OA
ENDBRANCH   9  10
ENDBRANCH   8   9
ENDBRANCH   7   8
BRANCH   7  13
HETATM   13  N1  UNL     1      20.027  27.513  12.435  1.00  0.00    -0.324 N 
HETATM   14  C6  UNL     1      20.723  27.385  11.208  1.00  0.00     0.362 C 
HETATM   15  O2  UNL     1      20.234  27.927  10.170  1.00  0.00    -0.238 OA
ATOM     16  H1  UNL     1      20.415  27.087  13.277  1.00  0.00     0.165 HD
BRANCH  14  17
HETATM   17  O3  UNL     1      21.911  26.704  11.074  1.00  0.00    -0.294 OA
BRANCH  17  18
HETATM   18  C7  UNL     1      23.179  27.303  11.103  1.00  0.00     0.061 C 
HETATM   19  C8  UNL     1      23.305  28.345  12.218  1.00  0.00     0.046 C 
HETATM   20  C9  UNL     1      24.221  26.243  11.420  1.00  0.00     0.046 C 
HETATM   21  C10 UNL     1      23.607  27.966   9.833  1.00  0.00     0.046 C 
ENDBRANCH  17  18
ENDBRANCH  14  17
ENDBRANCH   7  13
ENDBRANCH   4   7
ENDBRANCH   1   3
BRANCH   1  22
HETATM   22  C14 UNL     1      17.708  32.019  15.500  1.00  0.00     0.243 C 
HETATM   23  O5  UNL     1      16.892  31.134  15.908  1.00  0.00    -0.271 OA
HETATM   24  N3  UNL     1      17.876  33.239  16.210  1.00  0.00    -0.335 N 
HETATM   25  C15 UNL     1      18.692  34.365  15.827  1.00  0.00     0.159 C 
HETATM   26  C27 UNL     1      17.255  33.486  17.523  1.00  0.00     0.179 C 
HETATM   27  C16 UNL     1      18.532  35.396  16.939  1.00  0.00     0.141 C 
HETATM   28  C26 UNL     1      18.241  34.490  18.111  1.00  0.00     0.068 C 
BRANCH  27  29
HETATM   29  O6  UNL     1      19.645  36.152  17.145  1.00  0.00    -0.384 OA
BRANCH  29  30
HETATM   30  C17 UNL     1      20.459  35.558  18.114  1.00  0.00     0.168 C 
BRANCH  30  31
HETATM   31  C18 UNL     1      21.914  35.789  17.836  1.00  0.00     0.027 C 
BRANCH  31  32
HETATM   32  C19 UNL     1      22.364  35.164  16.522  1.00  0.00     0.007 C 
BRANCH  32  33
HETATM   33  C20 UNL     1      23.359  34.052  16.774  1.00  0.00    -0.014 C 
HETATM   34  C21 UNL     1      24.158  33.817  15.520  1.00  0.00     0.004 C 
HETATM   35  C22 UNL     1      23.295  33.375  14.380  1.00  0.00     0.000 C 
HETATM   36  C23 UNL     1      22.425  32.196  14.685  1.00  0.00     0.000 C 
HETATM   37  C24 UNL     1      21.710  32.325  16.008  1.00  0.00     0.000 C 
HETATM   38  C25 UNL     1      22.664  32.744  17.105  1.00  0.00     0.004 C 
ENDBRANCH  32  33
ENDBRANCH  31  32
ENDBRANCH  30  31
ENDBRANCH  29  30
ENDBRANCH  27  29
BRANCH  26  39
HETATM   39  C28 UNL     1      15.933  34.052  17.310  1.00  0.00     0.254 C 
HETATM   40  N4  UNL     1      15.185  34.648  18.383  1.00  0.00    -0.060 NA
HETATM   41  O7  UNL     1      15.420  34.022  16.169  1.00  0.00    -0.275 OA
ENDBRANCH  26  39
ENDBRANCH   1  22
TORSDOF 15
ENDMDL
MODEL 3
REMARK VINA RESULT: -8.729850159      2.078      8.461
REMARK  15 active torsions:
REMARK  status: ('A' for Active; 'I' for Inactive)
REMARK    1  A    between atoms: C2_2  and  C3_4 
REMARK    2  A    between atoms: C3_4  and  C4_5 
REMARK    3  A    between atoms: C4_5  and  C5_6 
REMARK    4  A    between atoms: C5_6  and  N1_7 
REMARK    5  A    between atoms: C5_6  and  C11_16 
REMARK       I    between atoms: N1_7  and  C6_9 
REMARK    6  A    between atoms: C6_9  and  O3_11 
REMARK    7  A    between atoms: O3_11  and  C7_12 
REMARK       I    between atoms: C11_16  and  N2_18 
REMARK    8  A    between atoms: N2_18  and  C12_20 
REMARK    9  A    between atoms: C12_20  and  C14_22 
REMARK       I    between atoms: C14_22  and  N3_24 
REMARK   10  A    between atoms: C16_26  and  O6_27 
REMARK   11  A    between atoms: O6_27  and  C17_28 
REMARK   12  A    between atoms: C17_28  and  C18_29 
REMARK   13  A    between atoms: C18_29  and  C19_30 
REMARK   14  A    between atoms: C19_30  and  C20_31 
REMARK   15  A    between atoms: C27_38  and  C28_39 
ROOT
HETATM    1  C12 UNL     1      18.918  30.279  12.929  1.00  0.00     0.172 C 
HETATM    2  C13 UNL     1      18.024  30.252  11.744  1.00  0.00     0.042 C 
ENDROOT
BRANCH   1   3
HETATM    3  N2  UNL     1      19.760  29.071  13.003  1.00  0.00    -0.346 N 
HETATM    4  C11 UNL     1      21.064  29.107  12.499  1.00  0.00     0.241 C 
HETATM    5  O4  UNL     1      21.409  30.262  12.032  1.00  0.00    -0.271 OA
ATOM      6  H2  UNL     1      19.394  28.215  13.420  1.00  0.00     0.163 HD
BRANCH   4   7
HETATM    7  C5  UNL     1      22.080  28.088  12.403  1.00  0.00     0.179 C 
BRANCH   7   8
HETATM    8  C4  UNL     1      23.250  28.209  11.542  1.00  0.00     0.042 C 
BRANCH   8   9
HETATM    9  C3  UNL     1      24.539  27.560  11.870  1.00  0.00     0.080 C 
BRANCH   9  10
HETATM   10  C2  UNL     1      24.856  26.323  11.157  1.00  0.00     0.123 C 
HETATM   11  C1  UNL     1      25.794  26.279  10.020  1.00  0.00     0.091 C 
HETATM   12  O1  UNL     1      24.344  25.269  11.502  1.00  0.00    -0.298 OA
ENDBRANCH   9  10
ENDBRANCH   8   9
ENDBRANCH   7   8
BRANCH   7  13
HETATM   13  N1  UNL     1      21.479  26.757  12.110  1.00  0.00    -0.324 N 
HETATM   14  C6  UNL     1      20.695  26.544  10.949  1.00  0.00     0.362 C 
HETATM   15  O2  UNL     1      20.517  27.511  10.148  1.00  0.00    -0.238 OA
ATOM     16  H1  UNL     1      21.634  25.985  12.758  1.00  0.00     0.165 HD
BRANCH  14  17
HETATM   17  O3  UNL     1      20.114  25.337  10.634  1.00  0.00    -0.294 OA
BRANCH  17  18
HETATM   18  C7  UNL     1      18.737  25.079  10.689  1.00  0.00     0.061 C 
HETATM   19  C8  UNL     1      18.073  25.161   9.311  1.00  0.00     0.046 C 
HETATM   20  C9  UNL     1      18.519  23.650  11.159  1.00  0.00     0.046 C 
HETATM   21  C10 UNL     1      17.952  25.961  11.607  1.00  0.00     0.046 C 
ENDBRANCH  17  18
ENDBRANCH  14  17
ENDBRANCH   7  13
ENDBRANCH   4   7
ENDBRANCH   1   3
BRANCH   1  22
HETATM   22  C14 UNL     1      18.170  30.544  14.169  1.00  0.00     0.243 C 
HETATM   23  O5  UNL     1      17.465  29.591  14.628  1.00  0.00    -0.271 OA
HETATM   24  N3  UNL     1      18.227  31.798  14.838  1.00  0.00    -0.335 N 
HETATM   25  C15 UNL     1      18.907  32.990  14.396  1.00  0.00     0.159 C 
HETATM   26  C27 UNL     1      17.623  32.019  16.163  1.00  0.00     0.179 C 
HETATM   27  C16 UNL     1      18.670  34.034  15.483  1.00  0.00     0.141 C 
HETATM   28  C26 UNL     1      18.512  33.140  16.690  1.00  0.00     0.068 C 
BRANCH  27  29
HETATM   29  O6  UNL     1      19.702  34.909  15.631  1.00  0.00    -0.384 OA
BRANCH  29  30
HETATM   30  C17 UNL     1      19.872  35.231  16.981  1.00  0.00     0.168 C 
BRANCH  30  31
HETATM   31  C18 UNL     1      21.298  35.572  17.296  1.00  0.00     0.027 C 
BRANCH  31  32
HETATM   32  C19 UNL     1      22.253  35.176  16.178  1.00  0.00     0.007 C 
BRANCH  32  33
HETATM   33  C20 UNL     1      23.322  34.239  16.697  1.00  0.00    -0.014 C 
HETATM   34  C21 UNL     1      24.274  33.915  15.579  1.00  0.00     0.004 C 
HETATM   35  C22 UNL     1      23.593  33.210  14.448  1.00  0.00     0.000 C 
HETATM   36  C23 UNL     1      22.819  31.995  14.856  1.00  0.00     0.000 C 
HETATM   37  C24 UNL     1      21.952  32.236  16.068  1.00  0.00     0.000 C 
HETATM   38  C25 UNL     1      22.731  32.923  17.169  1.00  0.00     0.004 C 
ENDBRANCH  32  33
ENDBRANCH  31  32
ENDBRANCH  30  31
ENDBRANCH  29  30
ENDBRANCH  27  29
BRANCH  26  39
HETATM   39  C28 UNL     1      16.242  32.435  15.977  1.00  0.00     0.254 C 
HETATM   40  N4  UNL     1      15.533  33.172  16.987  1.00  0.00    -0.060 NA
HETATM   41  O7  UNL     1      15.643  32.146  14.917  1.00  0.00    -0.275 OA
ENDBRANCH  26  39
ENDBRANCH   1  22
TORSDOF 15
ENDMDL
MODEL 4
REMARK VINA RESULT: -8.703788346      1.993      4.262
REMARK  15 active torsions:
REMARK  status: ('A' for Active; 'I' for Inactive)
REMARK    1  A    between atoms: C2_2  and  C3_4 
REMARK    2  A    between atoms: C3_4  and  C4_5 
REMARK    3  A    between atoms: C4_5  and  C5_6 
REMARK    4  A    between atoms: C5_6  and  N1_7 
REMARK    5  A    between atoms: C5_6  and  C11_16 
REMARK       I    between atoms: N1_7  and  C6_9 
REMARK    6  A    between atoms: C6_9  and  O3_11 
REMARK    7  A    between atoms: O3_11  and  C7_12 
REMARK       I    between atoms: C11_16  and  N2_18 
REMARK    8  A    between atoms: N2_18  and  C12_20 
REMARK    9  A    between atoms: C12_20  and  C14_22 
REMARK       I    between atoms: C14_22  and  N3_24 
REMARK   10  A    between atoms: C16_26  and  O6_27 
REMARK   11  A    between atoms: O6_27  and  C17_28 
REMARK   12  A    between atoms: C17_28  and  C18_29 
REMARK   13  A    between atoms: C18_29  and  C19_30 
REMARK   14  A    between atoms: C19_30  and  C20_31 
REMARK   15  A    between atoms: C27_38  and  C28_39 
ROOT
HETATM    1  C12 UNL     1      21.129  30.283  12.806  1.00  0.00     0.172 C 
HETATM    2  C13 UNL     1      21.186  30.897  11.456  1.00  0.00     0.042 C 
ENDROOT
BRANCH   1   3
HETATM    3  N2  UNL     1      21.570  31.224  13.852  1.00  0.00    -0.346 N 
HETATM    4  C11 UNL     1      20.670  31.620  14.847  1.00  0.00     0.241 C 
HETATM    5  O4  UNL     1      19.507  31.063  14.749  1.00  0.00    -0.271 OA
ATOM      6  H2  UNL     1      22.524  31.583  13.851  1.00  0.00     0.163 HD
BRANCH   4   7
HETATM    7  C5  UNL     1      20.808  32.539  15.950  1.00  0.00     0.179 C 
BRANCH   7   8
HETATM    8  C4  UNL     1      21.863  32.430  16.950  1.00  0.00     0.042 C 
BRANCH   8   9
HETATM    9  C3  UNL     1      22.841  33.516  17.184  1.00  0.00     0.080 C 
BRANCH   9  10
HETATM   10  C2  UNL     1      22.323  34.760  17.754  1.00  0.00     0.123 C 
HETATM   11  C1  UNL     1      22.457  36.061  17.074  1.00  0.00     0.091 C 
HETATM   12  O1  UNL     1      21.746  34.747  18.831  1.00  0.00    -0.298 OA
ENDBRANCH   9  10
ENDBRANCH   8   9
ENDBRANCH   7   8
BRANCH   7  13
HETATM   13  N1  UNL     1      19.529  32.672  16.701  1.00  0.00    -0.324 N 
HETATM   14  C6  UNL     1      18.799  33.885  16.701  1.00  0.00     0.362 C 
HETATM   15  O2  UNL     1      19.249  34.868  16.036  1.00  0.00    -0.238 OA
ATOM     16  H1  UNL     1      19.173  31.873  17.226  1.00  0.00     0.165 HD
BRANCH  14  17
HETATM   17  O3  UNL     1      17.616  34.062  17.381  1.00  0.00    -0.294 OA
BRANCH  17  18
HETATM   18  C7  UNL     1      16.349  34.093  16.780  1.00  0.00     0.061 C 
HETATM   19  C8  UNL     1      16.034  32.802  16.018  1.00  0.00     0.046 C 
HETATM   20  C9  UNL     1      15.289  34.192  17.864  1.00  0.00     0.046 C 
HETATM   21  C10 UNL     1      16.112  35.229  15.836  1.00  0.00     0.046 C 
ENDBRANCH  17  18
ENDBRANCH  14  17
ENDBRANCH   7  13
ENDBRANCH   4   7
ENDBRANCH   1   3
BRANCH   1  22
HETATM   22  C14 UNL     1      21.838  28.993  12.847  1.00  0.00     0.243 C 
HETATM   23  O5  UNL     1      22.566  28.772  13.865  1.00  0.00    -0.271 OA
HETATM   24  N3  UNL     1      21.720  28.027  11.811  1.00  0.00    -0.335 N 
HETATM   25  C15 UNL     1      21.007  28.169  10.565  1.00  0.00     0.159 C 
HETATM   26  C27 UNL     1      22.285  26.671  11.921  1.00  0.00     0.179 C 
HETATM   27  C16 UNL     1      21.181  26.844   9.831  1.00  0.00     0.141 C 
HETATM   28  C26 UNL     1      21.343  25.903  11.000  1.00  0.00     0.068 C 
BRANCH  27  29
HETATM   29  O6  UNL     1      20.114  26.509   9.053  1.00  0.00    -0.384 OA
BRANCH  29  30
HETATM   30  C17 UNL     1      19.353  25.516   9.679  1.00  0.00     0.168 C 
BRANCH  30  31
HETATM   31  C18 UNL     1      17.883  25.763   9.526  1.00  0.00     0.027 C 
BRANCH  31  32
HETATM   32  C19 UNL     1      17.532  27.244   9.578  1.00  0.00     0.007 C 
BRANCH  32  33
HETATM   33  C20 UNL     1      16.356  27.482  10.501  1.00  0.00    -0.014 C 
HETATM   34  C21 UNL     1      16.134  28.963  10.640  1.00  0.00     0.004 C 
HETATM   35  C22 UNL     1      17.312  29.652  11.254  1.00  0.00     0.000 C 
HETATM   36  C23 UNL     1      17.766  29.059  12.551  1.00  0.00     0.000 C 
HETATM   37  C24 UNL     1      17.867  27.553  12.500  1.00  0.00     0.000 C 
HETATM   38  C25 UNL     1      16.622  26.943  11.894  1.00  0.00     0.004 C 
ENDBRANCH  32  33
ENDBRANCH  31  32
ENDBRANCH  30  31
ENDBRANCH  29  30
ENDBRANCH  27  29
BRANCH  26  39
HETATM   39  C28 UNL     1      23.653  26.700  11.431  1.00  0.00     0.254 C 
HETATM   40  N4  UNL     1      24.466  25.515  11.390  1.00  0.00    -0.060 NA
HETATM   41  O7  UNL     1      24.150  27.778  11.036  1.00  0.00    -0.275 OA
ENDBRANCH  26  39
ENDBRANCH   1  22
TORSDOF 15
ENDMDL
MODEL 5
REMARK VINA RESULT: -8.637699676      1.953      9.861
REMARK  15 active torsions:
REMARK  status: ('A' for Active; 'I' for Inactive)
REMARK    1  A    between atoms: C2_2  and  C3_4 
REMARK    2  A    between atoms: C3_4  and  C4_5 
REMARK    3  A    between atoms: C4_5  and  C5_6 
REMARK    4  A    between atoms: C5_6  and  N1_7 
REMARK    5  A    between atoms: C5_6  and  C11_16 
REMARK       I    between atoms: N1_7  and  C6_9 
REMARK    6  A    between atoms: C6_9  and  O3_11 
REMARK    7  A    between atoms: O3_11  and  C7_12 
REMARK       I    between atoms: C11_16  and  N2_18 
REMARK    8  A    between atoms: N2_18  and  C12_20 
REMARK    9  A    between atoms: C12_20  and  C14_22 
REMARK       I    between atoms: C14_22  and  N3_24 
REMARK   10  A    between atoms: C16_26  and  O6_27 
REMARK   11  A    between atoms: O6_27  and  C17_28 
REMARK   12  A    between atoms: C17_28  and  C18_29 
REMARK   13  A    between atoms: C18_29  and  C19_30 
REMARK   14  A    between atoms: C19_30  and  C20_31 
REMARK   15  A    between atoms: C27_38  and  C28_39 
ROOT
HETATM    1  C12 UNL     1      19.290  31.533  14.172  1.00  0.00     0.172 C 
HETATM    2  C13 UNL     1      18.731  31.711  15.536  1.00  0.00     0.042 C 
ENDROOT
BRANCH   1   3
HETATM    3  N2  UNL     1      19.495  30.109  13.850  1.00  0.00    -0.346 N 
HETATM    4  C11 UNL     1      18.859  29.555  12.734  1.00  0.00     0.241 C 
HETATM    5  O4  UNL     1      18.155  30.406  12.061  1.00  0.00    -0.271 OA
ATOM      6  H2  UNL     1      20.097  29.531  14.437  1.00  0.00     0.163 HD
BRANCH   4   7
HETATM    7  C5  UNL     1      18.844  28.211  12.211  1.00  0.00     0.179 C 
BRANCH   7   8
HETATM    8  C4  UNL     1      17.890  27.199  12.645  1.00  0.00     0.042 C 
BRANCH   8   9
HETATM    9  C3  UNL     1      16.817  26.697  11.758  1.00  0.00     0.080 C 
BRANCH   9  10
HETATM   10  C2  UNL     1      16.586  27.437  10.517  1.00  0.00     0.123 C 
HETATM   11  C1  UNL     1      15.744  28.646  10.459  1.00  0.00     0.091 C 
HETATM   12  O1  UNL     1      17.105  27.065   9.476  1.00  0.00    -0.298 OA
ENDBRANCH   9  10
ENDBRANCH   8   9
ENDBRANCH   7   8
BRANCH   7  13
HETATM   13  N1  UNL     1      20.193  27.586  12.303  1.00  0.00    -0.324 N 
HETATM   14  C6  UNL     1      20.906  27.202  11.141  1.00  0.00     0.362 C 
HETATM   15  O2  UNL     1      20.378  27.408  10.006  1.00  0.00    -0.238 OA
ATOM     16  H1  UNL     1      20.610  27.431  13.220  1.00  0.00     0.165 HD
BRANCH  14  17
HETATM   17  O3  UNL     1      22.151  26.616  11.170  1.00  0.00    -0.294 OA
BRANCH  17  18
HETATM   18  C7  UNL     1      23.362  27.322  11.175  1.00  0.00     0.061 C 
HETATM   19  C8  UNL     1      23.399  28.407  12.255  1.00  0.00     0.046 C 
HETATM   20  C9  UNL     1      24.491  26.366  11.524  1.00  0.00     0.046 C 
HETATM   21  C10 UNL     1      23.732  27.976   9.883  1.00  0.00     0.046 C 
ENDBRANCH  17  18
ENDBRANCH  14  17
ENDBRANCH   7  13
ENDBRANCH   4   7
ENDBRANCH   1   3
BRANCH   1  22
HETATM   22  C14 UNL     1      20.493  32.355  13.965  1.00  0.00     0.243 C 
HETATM   23  O5  UNL     1      21.023  32.315  12.811  1.00  0.00    -0.271 OA
HETATM   24  N3  UNL     1      21.045  33.168  14.994  1.00  0.00    -0.335 N 
HETATM   25  C15 UNL     1      20.609  33.250  16.367  1.00  0.00     0.159 C 
HETATM   26  C27 UNL     1      22.141  34.121  14.751  1.00  0.00     0.179 C 
HETATM   27  C16 UNL     1      21.521  34.275  17.033  1.00  0.00     0.141 C 
HETATM   28  C26 UNL     1      21.867  35.144  15.848  1.00  0.00     0.068 C 
BRANCH  27  29
HETATM   29  O6  UNL     1      20.909  34.985  18.022  1.00  0.00    -0.384 OA
BRANCH  29  30
HETATM   30  C17 UNL     1      19.821  35.694  17.505  1.00  0.00     0.168 C 
BRANCH  30  31
HETATM   31  C18 UNL     1      18.615  35.585  18.389  1.00  0.00     0.027 C 
BRANCH  31  32
HETATM   32  C19 UNL     1      17.613  34.557  17.882  1.00  0.00     0.007 C 
BRANCH  32  33
HETATM   33  C20 UNL     1      16.273  35.206  17.612  1.00  0.00    -0.014 C 
HETATM   34  C21 UNL     1      15.202  34.150  17.637  1.00  0.00     0.004 C 
HETATM   35  C22 UNL     1      15.406  33.119  16.571  1.00  0.00     0.000 C 
HETATM   36  C23 UNL     1      15.566  33.679  15.193  1.00  0.00     0.000 C 
HETATM   37  C24 UNL     1      16.530  34.841  15.144  1.00  0.00     0.000 C 
HETATM   38  C25 UNL     1      16.229  35.845  16.236  1.00  0.00     0.004 C 
ENDBRANCH  32  33
ENDBRANCH  31  32
ENDBRANCH  30  31
ENDBRANCH  29  30
ENDBRANCH  27  29
BRANCH  26  39
HETATM   39  C28 UNL     1      23.405  33.426  14.930  1.00  0.00     0.254 C 
HETATM   40  N4  UNL     1      24.572  34.100  15.432  1.00  0.00    -0.060 NA
HETATM   41  O7  UNL     1      23.494  32.212  14.641  1.00  0.00    -0.275 OA
ENDBRANCH  26  39
ENDBRANCH   1  22
TORSDOF 15
ENDMDL
