MODEL 1
REMARK VINA RESULT: -9.127896956      0.000      0.000
REMARK  13 active torsions:
REMARK  status: ('A' for Active; 'I' for Inactive)
REMARK    1  A    between atoms: O1_2  and  C2_3 
REMARK    2  A    between atoms: C8_9  and  C9_10 
REMARK    3  A    between atoms: C10_13  and  O4_14 
REMARK    4  A    between atoms: C13_18  and  C14_19 
REMARK    5  A    between atoms: C15_20  and  C16_21 
REMARK    6  A    between atoms: C16_21  and  C17_22 
REMARK    7  A    between atoms: C22_28  and  C23_29 
REMARK    8  A    between atoms: C23_29  and  C24_30 
REMARK    9  A    between atoms: C24_30  and  C25_31 
REMARK   10  A    between atoms: C26_32  and  C27_33 
REMARK   11  A    between atoms: C27_33  and  C28_34 
REMARK   12  A    between atoms: C28_34  and  C29_35 
REMARK   13  A    between atoms: C30_39  and  O9_40 
ROOT
HETATM    1  C2  UNL     1      16.808  34.242  16.923  1.00  0.00     0.126 C 
HETATM    2  C3  UNL     1      16.148  33.537  15.724  1.00  0.00     0.032 C 
HETATM    3  C4  UNL     1      16.937  34.018  14.526  1.00  0.00     0.003 C 
HETATM    4  C5  UNL     1      18.365  33.527  14.590  1.00  0.00     0.008 C 
HETATM    5  C6  UNL     1      18.693  32.898  15.914  1.00  0.00     0.031 C 
HETATM    6  C7  UNL     1      18.201  33.739  17.085  1.00  0.00     0.039 C 
HETATM    7  C8  UNL     1      19.258  34.786  17.205  1.00  0.00     0.131 C 
HETATM    8  C10 UNL     1      20.540  34.023  16.914  1.00  0.00     0.103 C 
HETATM    9  C11 UNL     1      21.312  34.919  15.965  1.00  0.00     0.043 C 
HETATM   10  C12 UNL     1      21.980  33.977  15.050  1.00  0.00     0.014 C 
HETATM   11  C13 UNL     1      21.010  32.825  14.912  1.00  0.00     0.046 C 
HETATM   12  C30 UNL     1      20.172  32.783  16.184  1.00  0.00     0.103 C 
ENDROOT
BRANCH  11  13
HETATM   13  C14 UNL     1      21.836  31.606  14.742  1.00  0.00    -0.023 C 
HETATM   14  C15 UNL     1      21.654  30.693  13.823  1.00  0.00    -0.025 C 
BRANCH  14  15
HETATM   15  C16 UNL     1      20.616  30.659  12.771  1.00  0.00     0.087 C 
BRANCH  15  16
HETATM   16  C17 UNL     1      20.055  29.241  12.600  1.00  0.00     0.264 C 
HETATM   17  O5  UNL     1      18.685  29.282  12.596  1.00  0.00    -0.356 OA
HETATM   18  C18 UNL     1      18.094  29.218  11.357  1.00  0.00     0.126 C 
HETATM   19  C19 UNL     1      16.596  29.342  11.529  1.00  0.00     0.040 C 
HETATM   20  C20 UNL     1      18.468  27.848  10.757  1.00  0.00     0.039 C 
HETATM   21  C21 UNL     1      18.144  27.970   9.280  1.00  0.00     0.015 C 
HETATM   22  C22 UNL     1      19.901  27.581  11.001  1.00  0.00     0.131 C 
HETATM   23  O8  UNL     1      20.596  28.732  11.428  1.00  0.00    -0.355 OA
BRANCH  22  24
HETATM   24  C23 UNL     1      20.297  26.384  11.776  1.00  0.00     0.036 C 
BRANCH  24  25
HETATM   25  C24 UNL     1      20.819  25.188  11.079  1.00  0.00     0.029 C 
BRANCH  25  26
HETATM   26  C25 UNL     1      21.085  25.206   9.659  1.00  0.00    -0.031 C 
HETATM   27  C26 UNL     1      22.321  25.269   9.136  1.00  0.00    -0.030 C 
BRANCH  27  28
HETATM   28  C27 UNL     1      23.558  25.326   9.904  1.00  0.00     0.037 C 
BRANCH  28  29
HETATM   29  C28 UNL     1      23.970  26.769  10.179  1.00  0.00     0.117 C 
BRANCH  29  30
HETATM   30  C29 UNL     1      24.219  26.972  11.622  1.00  0.00     0.172 C 
HETATM   31  O6  UNL     1      24.997  26.239  12.246  1.00  0.00    -0.648 OA
HETATM   32  O7  UNL     1      23.564  28.002  12.272  1.00  0.00    -0.648 OA
ENDBRANCH  29  30
ENDBRANCH  28  29
ENDBRANCH  27  28
ENDBRANCH  25  26
ENDBRANCH  24  25
ENDBRANCH  22  24
ENDBRANCH  15  16
ENDBRANCH  14  15
ENDBRANCH  11  13
BRANCH  12  33
HETATM   33  O9  UNL     1      20.547  31.633  16.786  1.00  0.00    -0.381 OA
HETATM   34  C31 UNL     1      19.753  30.570  16.907  1.00  0.00     0.202 C 
ENDBRANCH  12  33
BRANCH   8  35
HETATM   35  O4  UNL     1      21.335  33.850  18.026  1.00  0.00    -0.386 OA
ATOM     36  H4  UNL     1      22.123  33.350  17.850  1.00  0.00     0.210 HD
ENDBRANCH   8  35
BRANCH   7  37
HETATM   37  C9  UNL     1      19.342  35.308  18.581  1.00  0.00     0.180 C 
HETATM   38  O2  UNL     1      18.698  34.741  19.508  1.00  0.00    -0.648 OA
HETATM   39  O3  UNL     1      20.102  36.410  18.948  1.00  0.00    -0.648 OA
ENDBRANCH   7  37
BRANCH   1  40
HETATM   40  O1  UNL     1      16.694  35.620  16.789  1.00  0.00    -0.390 OA
HETATM   41  C1  UNL     1      15.623  36.129  17.562  1.00  0.00     0.202 C 
ENDBRANCH   1  40
TORSDOF 13
ENDMDL
MODEL 2
REMARK VINA RESULT: -9.044515484      0.889      1.101
REMARK  13 active torsions:
REMARK  status: ('A' for Active; 'I' for Inactive)
REMARK    1  A    between atoms: O1_2  and  C2_3 
REMARK    2  A    between atoms: C8_9  and  C9_10 
REMARK    3  A    between atoms: C10_13  and  O4_14 
REMARK    4  A    between atoms: C13_18  and  C14_19 
REMARK    5  A    between atoms: C15_20  and  C16_21 
REMARK    6  A    between atoms: C16_21  and  C17_22 
REMARK    7  A    between atoms: C22_28  and  C23_29 
REMARK    8  A    between atoms: C23_29  and  C24_30 
REMARK    9  A    between atoms: C24_30  and  C25_31 
REMARK   10  A    between atoms: C26_32  and  C27_33 
REMARK   11  A    between atoms: C27_33  and  C28_34 
REMARK   12  A    between atoms: C28_34  and  C29_35 
REMARK   13  A    between atoms: C30_39  and  O9_40 
ROOT
HETATM    1  C2  UNL     1      17.099  34.290  16.744  1.00  0.00     0.126 C 
HETATM    2  C3  UNL     1      16.515  33.642  15.475  1.00  0.00     0.032 C 
HETATM    3  C4  UNL     1      17.413  34.127  14.359  1.00  0.00     0.003 C 
HETATM    4  C5  UNL     1      18.814  33.586  14.521  1.00  0.00     0.008 C 
HETATM    5  C6  UNL     1      19.014  32.910  15.848  1.00  0.00     0.031 C 
HETATM    6  C7  UNL     1      18.457  33.735  17.001  1.00  0.00     0.039 C 
HETATM    7  C8  UNL     1      19.534  34.741  17.235  1.00  0.00     0.131 C 
HETATM    8  C10 UNL     1      20.810  33.943  17.025  1.00  0.00     0.103 C 
HETATM    9  C11 UNL     1      21.684  34.837  16.167  1.00  0.00     0.043 C 
HETATM   10  C12 UNL     1      22.393  33.898  15.281  1.00  0.00     0.014 C 
HETATM   11  C13 UNL     1      21.401  32.785  15.031  1.00  0.00     0.046 C 
HETATM   12  C30 UNL     1      20.463  32.736  16.230  1.00  0.00     0.103 C 
ENDROOT
BRANCH  11  13
HETATM   13  C14 UNL     1      22.198  31.543  14.891  1.00  0.00    -0.023 C 
HETATM   14  C15 UNL     1      22.049  30.654  13.943  1.00  0.00    -0.025 C 
BRANCH  14  15
HETATM   15  C16 UNL     1      21.084  30.673  12.824  1.00  0.00     0.087 C 
BRANCH  15  16
HETATM   16  C17 UNL     1      20.093  29.507  12.935  1.00  0.00     0.264 C 
HETATM   17  O5  UNL     1      18.976  29.911  13.618  1.00  0.00    -0.356 OA
HETATM   18  C18 UNL     1      17.885  30.221  12.842  1.00  0.00     0.126 C 
HETATM   19  C19 UNL     1      16.772  30.708  13.743  1.00  0.00     0.040 C 
HETATM   20  C20 UNL     1      17.477  28.925  12.114  1.00  0.00     0.039 C 
HETATM   21  C21 UNL     1      16.553  29.380  11.000  1.00  0.00     0.015 C 
HETATM   22  C22 UNL     1      18.687  28.248  11.602  1.00  0.00     0.131 C 
HETATM   23  O8  UNL     1      19.825  29.081  11.642  1.00  0.00    -0.355 OA
BRANCH  22  24
HETATM   24  C23 UNL     1      18.999  26.874  12.056  1.00  0.00     0.036 C 
BRANCH  24  25
HETATM   25  C24 UNL     1      19.103  25.774  11.072  1.00  0.00     0.029 C 
BRANCH  25  26
HETATM   26  C25 UNL     1      19.954  25.887   9.910  1.00  0.00    -0.031 C 
HETATM   27  C26 UNL     1      21.296  25.853   9.968  1.00  0.00    -0.030 C 
BRANCH  27  28
HETATM   28  C27 UNL     1      22.083  25.701  11.185  1.00  0.00     0.037 C 
BRANCH  28  29
HETATM   29  C28 UNL     1      22.708  27.027  11.606  1.00  0.00     0.117 C 
BRANCH  29  30
HETATM   30  C29 UNL     1      24.151  26.857  11.883  1.00  0.00     0.172 C 
HETATM   31  O6  UNL     1      24.684  25.740  11.835  1.00  0.00    -0.648 OA
HETATM   32  O7  UNL     1      24.903  27.972  12.199  1.00  0.00    -0.648 OA
ENDBRANCH  29  30
ENDBRANCH  28  29
ENDBRANCH  27  28
ENDBRANCH  25  26
ENDBRANCH  24  25
ENDBRANCH  22  24
ENDBRANCH  15  16
ENDBRANCH  14  15
ENDBRANCH  11  13
BRANCH  12  33
HETATM   33  O9  UNL     1      20.751  31.558  16.826  1.00  0.00    -0.381 OA
HETATM   34  C31 UNL     1      19.877  30.559  16.946  1.00  0.00     0.202 C 
ENDBRANCH  12  33
BRANCH   8  35
HETATM   35  O4  UNL     1      21.507  33.712  18.190  1.00  0.00    -0.386 OA
ATOM     36  H4  UNL     1      22.100  32.973  18.133  1.00  0.00     0.210 HD
ENDBRANCH   8  35
BRANCH   7  37
HETATM   37  C9  UNL     1      19.524  35.223  18.629  1.00  0.00     0.180 C 
HETATM   38  O2  UNL     1      18.704  34.734  19.456  1.00  0.00    -0.648 OA
HETATM   39  O3  UNL     1      20.376  36.203  19.117  1.00  0.00    -0.648 OA
ENDBRANCH   7  37
BRANCH   1  40
HETATM   40  O1  UNL     1      17.040  35.674  16.642  1.00  0.00    -0.390 OA
HETATM   41  C1  UNL     1      15.863  36.188  17.236  1.00  0.00     0.202 C 
ENDBRANCH   1  40
TORSDOF 13
ENDMDL
MODEL 3
REMARK VINA RESULT: -8.815783561      1.898      2.819
REMARK  13 active torsions:
REMARK  status: ('A' for Active; 'I' for Inactive)
REMARK    1  A    between atoms: O1_2  and  C2_3 
REMARK    2  A    between atoms: C8_9  and  C9_10 
REMARK    3  A    between atoms: C10_13  and  O4_14 
REMARK    4  A    between atoms: C13_18  and  C14_19 
REMARK    5  A    between atoms: C15_20  and  C16_21 
REMARK    6  A    between atoms: C16_21  and  C17_22 
REMARK    7  A    between atoms: C22_28  and  C23_29 
REMARK    8  A    between atoms: C23_29  and  C24_30 
REMARK    9  A    between atoms: C24_30  and  C25_31 
REMARK   10  A    between atoms: C26_32  and  C27_33 
REMARK   11  A    between atoms: C27_33  and  C28_34 
REMARK   12  A    between atoms: C28_34  and  C29_35 
REMARK   13  A    between atoms: C30_39  and  O9_40 
ROOT
HETATM    1  C2  UNL     1      16.902  34.181  16.838  1.00  0.00     0.126 C 
HETATM    2  C3  UNL     1      16.401  33.452  15.577  1.00  0.00     0.032 C 
HETATM    3  C4  UNL     1      17.265  33.997  14.462  1.00  0.00     0.003 C 
HETATM    4  C5  UNL     1      18.709  33.595  14.654  1.00  0.00     0.008 C 
HETATM    5  C6  UNL     1      18.953  32.971  15.998  1.00  0.00     0.031 C 
HETATM    6  C7  UNL     1      18.303  33.764  17.125  1.00  0.00     0.039 C 
HETATM    7  C8  UNL     1      19.276  34.873  17.349  1.00  0.00     0.131 C 
HETATM    8  C10 UNL     1      20.625  34.196  17.173  1.00  0.00     0.103 C 
HETATM    9  C11 UNL     1      21.422  35.151  16.306  1.00  0.00     0.043 C 
HETATM   10  C12 UNL     1      22.231  34.264  15.451  1.00  0.00     0.014 C 
HETATM   11  C13 UNL     1      21.352  33.056  15.214  1.00  0.00     0.046 C 
HETATM   12  C30 UNL     1      20.406  32.945  16.403  1.00  0.00     0.103 C 
ENDROOT
BRANCH  11  13
HETATM   13  C14 UNL     1      22.266  31.893  15.113  1.00  0.00    -0.023 C 
HETATM   14  C15 UNL     1      22.271  31.020  14.139  1.00  0.00    -0.025 C 
BRANCH  14  15
HETATM   15  C16 UNL     1      21.398  30.985  12.948  1.00  0.00     0.087 C 
BRANCH  15  16
HETATM   16  C17 UNL     1      20.601  29.674  12.890  1.00  0.00     0.264 C 
HETATM   17  O5  UNL     1      19.594  29.702  13.820  1.00  0.00    -0.356 OA
HETATM   18  C18 UNL     1      18.345  29.999  13.332  1.00  0.00     0.126 C 
HETATM   19  C19 UNL     1      17.373  30.054  14.489  1.00  0.00     0.040 C 
HETATM   20  C20 UNL     1      17.971  28.868  12.352  1.00  0.00     0.039 C 
HETATM   21  C21 UNL     1      16.801  29.414  11.556  1.00  0.00     0.015 C 
HETATM   22  C22 UNL     1      19.137  28.554  11.498  1.00  0.00     0.131 C 
HETATM   23  O8  UNL     1      20.146  29.535  11.587  1.00  0.00    -0.355 OA
BRANCH  22  24
HETATM   24  C23 UNL     1      19.701  27.186  11.512  1.00  0.00     0.036 C 
BRANCH  24  25
HETATM   25  C24 UNL     1      19.310  26.212  10.471  1.00  0.00     0.029 C 
BRANCH  25  26
HETATM   26  C25 UNL     1      17.931  26.067  10.061  1.00  0.00    -0.031 C 
HETATM   27  C26 UNL     1      17.459  26.502   8.880  1.00  0.00    -0.030 C 
BRANCH  27  28
HETATM   28  C27 UNL     1      18.247  27.171   7.853  1.00  0.00     0.037 C 
BRANCH  28  29
HETATM   29  C28 UNL     1      18.337  26.321   6.589  1.00  0.00     0.117 C 
BRANCH  29  30
HETATM   30  C29 UNL     1      19.632  25.607   6.535  1.00  0.00     0.172 C 
HETATM   31  O6  UNL     1      19.883  24.680   7.316  1.00  0.00    -0.648 OA
HETATM   32  O7  UNL     1      20.564  25.992   5.591  1.00  0.00    -0.648 OA
ENDBRANCH  29  30
ENDBRANCH  28  29
ENDBRANCH  27  28
ENDBRANCH  25  26
ENDBRANCH  24  25
ENDBRANCH  22  24
ENDBRANCH  15  16
ENDBRANCH  14  15
ENDBRANCH  11  13
BRANCH  12  33
HETATM   33  O9  UNL     1      20.796  31.813  17.029  1.00  0.00    -0.381 OA
HETATM   34  C31 UNL     1      20.071  30.695  17.051  1.00  0.00     0.202 C 
ENDBRANCH  12  33
BRANCH   8  35
HETATM   35  O4  UNL     1      21.324  34.058  18.352  1.00  0.00    -0.386 OA
ATOM     36  H4  UNL     1      22.051  33.451  18.289  1.00  0.00     0.210 HD
ENDBRANCH   8  35
BRANCH   7  37
HETATM   37  C9  UNL     1      19.200  35.382  18.732  1.00  0.00     0.180 C 
HETATM   38  O2  UNL     1      18.579  34.720  19.610  1.00  0.00    -0.648 OA
HETATM   39  O3  UNL     1      19.778  36.570  19.154  1.00  0.00    -0.648 OA
ENDBRANCH   7  37
BRANCH   1  40
HETATM   40  O1  UNL     1      16.713  35.550  16.703  1.00  0.00    -0.390 OA
HETATM   41  C1  UNL     1      15.586  35.993  17.436  1.00  0.00     0.202 C 
ENDBRANCH   1  40
TORSDOF 13
ENDMDL
MODEL 4
REMARK VINA RESULT: -8.722973043      1.569      1.937
REMARK  13 active torsions:
REMARK  status: ('A' for Active; 'I' for Inactive)
REMARK    1  A    between atoms: O1_2  and  C2_3 
REMARK    2  A    between atoms: C8_9  and  C9_10 
REMARK    3  A    between atoms: C10_13  and  O4_14 
REMARK    4  A    between atoms: C13_18  and  C14_19 
REMARK    5  A    between atoms: C15_20  and  C16_21 
REMARK    6  A    between atoms: C16_21  and  C17_22 
REMARK    7  A    between atoms: C22_28  and  C23_29 
REMARK    8  A    between atoms: C23_29  and  C24_30 
REMARK    9  A    between atoms: C24_30  and  C25_31 
REMARK   10  A    between atoms: C26_32  and  C27_33 
REMARK   11  A    between atoms: C27_33  and  C28_34 
REMARK   12  A    between atoms: C28_34  and  C29_35 
REMARK   13  A    between atoms: C30_39  and  O9_40 
ROOT
HETATM    1  C2  UNL     1      16.934  34.185  16.842  1.00  0.00     0.126 C 
HETATM    2  C3  UNL     1      16.414  33.446  15.594  1.00  0.00     0.032 C 
HETATM    3  C4  UNL     1      17.277  33.966  14.466  1.00  0.00     0.003 C 
HETATM    4  C5  UNL     1      18.717  33.548  14.652  1.00  0.00     0.008 C 
HETATM    5  C6  UNL     1      18.962  32.938  16.003  1.00  0.00     0.031 C 
HETATM    6  C7  UNL     1      18.331  33.753  17.124  1.00  0.00     0.039 C 
HETATM    7  C8  UNL     1      19.320  34.853  17.327  1.00  0.00     0.131 C 
HETATM    8  C10 UNL     1      20.659  34.156  17.150  1.00  0.00     0.103 C 
HETATM    9  C11 UNL     1      21.462  35.089  16.264  1.00  0.00     0.043 C 
HETATM   10  C12 UNL     1      22.253  34.181  15.415  1.00  0.00     0.014 C 
HETATM   11  C13 UNL     1      21.357  32.982  15.200  1.00  0.00     0.046 C 
HETATM   12  C30 UNL     1      20.418  32.897  16.397  1.00  0.00     0.103 C 
ENDROOT
BRANCH  11  13
HETATM   13  C14 UNL     1      22.255  31.806  15.107  1.00  0.00    -0.023 C 
HETATM   14  C15 UNL     1      22.252  30.929  14.136  1.00  0.00    -0.025 C 
BRANCH  14  15
HETATM   15  C16 UNL     1      21.383  30.902  12.941  1.00  0.00     0.087 C 
BRANCH  15  16
HETATM   16  C17 UNL     1      20.543  29.618  12.903  1.00  0.00     0.264 C 
HETATM   17  O5  UNL     1      19.518  29.707  13.808  1.00  0.00    -0.356 OA
HETATM   18  C18 UNL     1      18.290  30.031  13.283  1.00  0.00     0.126 C 
HETATM   19  C19 UNL     1      17.296  30.153  14.416  1.00  0.00     0.040 C 
HETATM   20  C20 UNL     1      17.900  28.885  12.328  1.00  0.00     0.039 C 
HETATM   21  C21 UNL     1      16.766  29.447  11.490  1.00  0.00     0.015 C 
HETATM   22  C22 UNL     1      19.072  28.507  11.510  1.00  0.00     0.131 C 
HETATM   23  O8  UNL     1      20.112  29.456  11.594  1.00  0.00    -0.355 OA
BRANCH  22  24
HETATM   24  C23 UNL     1      19.589  27.122  11.576  1.00  0.00     0.036 C 
BRANCH  24  25
HETATM   25  C24 UNL     1      20.861  26.773  10.908  1.00  0.00     0.029 C 
BRANCH  25  26
HETATM   26  C25 UNL     1      22.028  26.392  11.671  1.00  0.00    -0.031 C 
HETATM   27  C26 UNL     1      23.234  26.170  11.122  1.00  0.00    -0.030 C 
BRANCH  27  28
HETATM   28  C27 UNL     1      23.545  26.277   9.702  1.00  0.00     0.037 C 
BRANCH  28  29
HETATM   29  C28 UNL     1      23.432  24.922   9.010  1.00  0.00     0.117 C 
BRANCH  29  30
HETATM   30  C29 UNL     1      22.470  24.990   7.888  1.00  0.00     0.172 C 
HETATM   31  O6  UNL     1      21.311  24.576   8.014  1.00  0.00    -0.648 OA
HETATM   32  O7  UNL     1      22.888  25.528   6.686  1.00  0.00    -0.648 OA
ENDBRANCH  29  30
ENDBRANCH  28  29
ENDBRANCH  27  28
ENDBRANCH  25  26
ENDBRANCH  24  25
ENDBRANCH  22  24
ENDBRANCH  15  16
ENDBRANCH  14  15
ENDBRANCH  11  13
BRANCH  12  33
HETATM   33  O9  UNL     1      20.798  31.769  17.034  1.00  0.00    -0.381 OA
HETATM   34  C31 UNL     1      20.058  30.662  17.080  1.00  0.00     0.202 C 
ENDBRANCH  12  33
BRANCH   8  35
HETATM   35  O4  UNL     1      21.365  34.024  18.325  1.00  0.00    -0.386 OA
ATOM     36  H4  UNL     1      21.948  34.754  18.498  1.00  0.00     0.210 HD
ENDBRANCH   8  35
BRANCH   7  37
HETATM   37  C9  UNL     1      19.261  35.379  18.703  1.00  0.00     0.180 C 
HETATM   38  O2  UNL     1      18.638  34.737  19.594  1.00  0.00    -0.648 OA
HETATM   39  O3  UNL     1      19.859  36.565  19.106  1.00  0.00    -0.648 OA
ENDBRANCH   7  37
BRANCH   1  40
HETATM   40  O1  UNL     1      16.762  35.555  16.691  1.00  0.00    -0.390 OA
HETATM   41  C1  UNL     1      15.697  36.034  17.490  1.00  0.00     0.202 C 
ENDBRANCH   1  40
TORSDOF 13
ENDMDL
MODEL 5
REMARK VINA RESULT: -8.691794212      1.980      3.272
REMARK  13 active torsions:
REMARK  status: ('A' for Active; 'I' for Inactive)
REMARK    1  A    between atoms: O1_2  and  C2_3 
REMARK    2  A    between atoms: C8_9  and  C9_10 
REMARK    3  A    between atoms: C10_13  and  O4_14 
REMARK    4  A    between atoms: C13_18  and  C14_19 
REMARK    5  A    between atoms: C15_20  and  C16_21 
REMARK    6  A    between atoms: C16_21  and  C17_22 
REMARK    7  A    between atoms: C22_28  and  C23_29 
REMARK    8  A    between atoms: C23_29  and  C24_30 
REMARK    9  A    between atoms: C24_30  and  C25_31 
REMARK   10  A    between atoms: C26_32  and  C27_33 
REMARK   11  A    between atoms: C27_33  and  C28_34 
REMARK   12  A    between atoms: C28_34  and  C29_35 
REMARK   13  A    between atoms: C30_39  and  O9_40 
ROOT
HETATM    1  C2  UNL     1      16.948  34.215  16.822  1.00  0.00     0.126 C 
HETATM    2  C3  UNL     1      16.415  33.469  15.584  1.00  0.00     0.032 C 
HETATM    3  C4  UNL     1      17.275  33.972  14.446  1.00  0.00     0.003 C 
HETATM    4  C5  UNL     1      18.713  33.544  14.629  1.00  0.00     0.008 C 
HETATM    5  C6  UNL     1      18.962  32.944  15.983  1.00  0.00     0.031 C 
HETATM    6  C7  UNL     1      18.343  33.774  17.100  1.00  0.00     0.039 C 
HETATM    7  C8  UNL     1      19.342  34.868  17.288  1.00  0.00     0.131 C 
HETATM    8  C10 UNL     1      20.674  34.159  17.110  1.00  0.00     0.103 C 
HETATM    9  C11 UNL     1      21.480  35.078  16.212  1.00  0.00     0.043 C 
HETATM   10  C12 UNL     1      22.258  34.156  15.366  1.00  0.00     0.014 C 
HETATM   11  C13 UNL     1      21.352  32.962  15.167  1.00  0.00     0.046 C 
HETATM   12  C30 UNL     1      20.419  32.896  16.370  1.00  0.00     0.103 C 
ENDROOT
BRANCH  11  13
HETATM   13  C14 UNL     1      22.240  31.778  15.079  1.00  0.00    -0.023 C 
HETATM   14  C15 UNL     1      22.230  30.898  14.113  1.00  0.00    -0.025 C 
BRANCH  14  15
HETATM   15  C16 UNL     1      21.361  30.872  12.918  1.00  0.00     0.087 C 
BRANCH  15  16
HETATM   16  C17 UNL     1      20.540  29.576  12.864  1.00  0.00     0.264 C 
HETATM   17  O5  UNL     1      19.540  29.621  13.800  1.00  0.00    -0.356 OA
HETATM   18  C18 UNL     1      18.293  29.942  13.322  1.00  0.00     0.126 C 
HETATM   19  C19 UNL     1      17.331  30.013  14.486  1.00  0.00     0.040 C 
HETATM   20  C20 UNL     1      17.892  28.819  12.344  1.00  0.00     0.039 C 
HETATM   21  C21 UNL     1      16.726  29.387  11.557  1.00  0.00     0.015 C 
HETATM   22  C22 UNL     1      19.046  28.485  11.481  1.00  0.00     0.131 C 
HETATM   23  O8  UNL     1      20.074  29.447  11.564  1.00  0.00    -0.355 OA
BRANCH  22  24
HETATM   24  C23 UNL     1      19.585  27.107  11.489  1.00  0.00     0.036 C 
BRANCH  24  25
HETATM   25  C24 UNL     1      19.237  26.167  10.401  1.00  0.00     0.029 C 
BRANCH  25  26
HETATM   26  C25 UNL     1      17.861  25.928  10.030  1.00  0.00    -0.031 C 
HETATM   27  C26 UNL     1      17.422  25.943   8.760  1.00  0.00    -0.030 C 
BRANCH  27  28
HETATM   28  C27 UNL     1      18.248  26.197   7.586  1.00  0.00     0.037 C 
BRANCH  28  29
HETATM   29  C28 UNL     1      18.251  27.679   7.226  1.00  0.00     0.117 C 
BRANCH  29  30
HETATM   30  C29 UNL     1      17.989  27.863   5.782  1.00  0.00     0.172 C 
HETATM   31  O6  UNL     1      18.580  28.735   5.131  1.00  0.00    -0.648 OA
HETATM   32  O7  UNL     1      17.067  27.041   5.163  1.00  0.00    -0.648 OA
ENDBRANCH  29  30
ENDBRANCH  28  29
ENDBRANCH  27  28
ENDBRANCH  25  26
ENDBRANCH  24  25
ENDBRANCH  22  24
ENDBRANCH  15  16
ENDBRANCH  14  15
ENDBRANCH  11  13
BRANCH  12  33
HETATM   33  O9  UNL     1      20.794  31.770  17.015  1.00  0.00    -0.381 OA
HETATM   34  C31 UNL     1      20.062  30.657  17.043  1.00  0.00     0.202 C 
ENDBRANCH  12  33
BRANCH   8  35
HETATM   35  O4  UNL     1      21.386  34.032  18.282  1.00  0.00    -0.386 OA
ATOM     36  H4  UNL     1      22.194  34.531  18.287  1.00  0.00     0.210 HD
ENDBRANCH   8  35
BRANCH   7  37
HETATM   37  C9  UNL     1      19.295  35.407  18.660  1.00  0.00     0.180 C 
HETATM   38  O2  UNL     1      19.709  36.579  18.888  1.00  0.00    -0.648 OA
HETATM   39  O3  UNL     1      18.814  34.703  19.754  1.00  0.00    -0.648 OA
ENDBRANCH   7  37
BRANCH   1  40
HETATM   40  O1  UNL     1      16.785  35.584  16.661  1.00  0.00    -0.390 OA
HETATM   41  C1  UNL     1      15.752  36.085  17.487  1.00  0.00     0.202 C 
ENDBRANCH   1  40
TORSDOF 13
ENDMDL
