MODEL 1
REMARK VINA RESULT: -9.384910741      0.000      0.000
REMARK  14 active torsions:
REMARK  status: ('A' for Active; 'I' for Inactive)
REMARK       I    between atoms: C2_2  and  N1_4 
REMARK    1  A    between atoms: C3_6  and  C4_7 
REMARK    2  A    between atoms: C3_6  and  C8_12 
REMARK    3  A    between atoms: C8_12  and  N2_13 
REMARK    4  A    between atoms: C8_12  and  C28_42 
REMARK       I    between atoms: N2_13  and  C9_15 
REMARK    5  A    between atoms: C9_15  and  C10_17 
REMARK    6  A    between atoms: C10_17  and  C11_18 
REMARK       I    between atoms: C11_18  and  N3_20 
REMARK    7  A    between atoms: N3_20  and  C12_21 
REMARK    8  A    between atoms: C12_21  and  C13_22 
REMARK    9  A    between atoms: C12_21  and  C20_29 
REMARK   10  A    between atoms: C13_22  and  C14_23 
REMARK       I    between atoms: C20_29  and  N4_31 
REMARK   11  A    between atoms: N4_31  and  C21_33 
REMARK   12  A    between atoms: C21_33  and  C23_35 
REMARK   13  A    between atoms: C23_35  and  O7_37 
REMARK   14  A    between atoms: O7_37  and  C24_38 
ROOT
HETATM    1  C11 UNL     1      21.424  32.025  13.862  1.00  0.00     0.301 C 
HETATM    2  O4  UNL     1      21.281  32.186  12.637  1.00  0.00    -0.257 OA
HETATM    3  N3  UNL     1      20.900  32.865  14.842  1.00  0.00    -0.365 NA
ENDROOT
BRANCH   1   4
HETATM    4  C10 UNL     1      22.247  30.813  14.222  1.00  0.00     0.221 C 
BRANCH   4   5
HETATM    5  C9  UNL     1      21.431  29.620  13.996  1.00  0.00     0.228 C 
HETATM    6  N2  UNL     1      20.578  29.539  12.848  1.00  0.00    -0.350 N 
ATOM      7  H2  UNL     1      20.545  30.290  12.158  1.00  0.00     0.163 HD
HETATM    8  O3  UNL     1      21.456  28.644  14.811  1.00  0.00    -0.273 OA
BRANCH   6   9
HETATM    9  C8  UNL     1      19.769  28.358  12.706  1.00  0.00     0.140 C 
BRANCH   9  10
HETATM   10  C3  UNL     1      20.096  27.493  11.544  1.00  0.00     0.069 C 
HETATM   11  N1  UNL     1      19.124  27.212  10.807  1.00  0.00    -0.327 N 
HETATM   12  C2  UNL     1      18.714  26.587   9.697  1.00  0.00     0.218 C 
ATOM     13  H1  UNL     1      18.299  27.638  11.228  1.00  0.00     0.168 HD
HETATM   14  C1  UNL     1      18.385  27.394   8.468  1.00  0.00     0.117 C 
HETATM   15  O1  UNL     1      18.575  25.339   9.597  1.00  0.00    -0.274 OA
BRANCH  10  16
HETATM   16  C4  UNL     1      21.428  27.017  11.202  1.00  0.00     0.099 A 
HETATM   17  C5  UNL     1      21.803  25.722  11.044  1.00  0.00     0.041 A 
HETATM   18  C6  UNL     1      23.171  25.737  10.727  1.00  0.00     0.027 A 
HETATM   19  C7  UNL     1      23.509  27.062  10.719  1.00  0.00     0.142 A 
HETATM   20  O2  UNL     1      22.462  27.771  11.002  1.00  0.00    -0.321 OA
ENDBRANCH  10  16
ENDBRANCH   9  10
BRANCH   9  21
HETATM   21  C28 UNL     1      18.357  28.709  12.944  1.00  0.00     0.006 C 
HETATM   22  C29 UNL     1      17.595  28.059  14.030  1.00  0.00     0.012 C 
HETATM   23  C30 UNL     1      18.122  30.233  12.977  1.00  0.00     0.012 C 
ENDBRANCH   9  21
ENDBRANCH   6   9
ENDBRANCH   4   5
ENDBRANCH   1   4
BRANCH   3  24
HETATM   24  C12 UNL     1      20.395  33.676  15.787  1.00  0.00     0.178 C 
BRANCH  24  25
HETATM   25  C13 UNL     1      20.887  33.747  17.169  1.00  0.00     0.053 C 
BRANCH  25  26
HETATM   26  C14 UNL     1      21.325  34.988  17.804  1.00  0.00    -0.076 C 
HETATM   27  C15 UNL     1      21.546  35.018  19.274  1.00  0.00     0.034 C 
HETATM   28  C16 UNL     1      22.371  36.190  19.745  1.00  0.00     0.004 C 
HETATM   29  C17 UNL     1      21.952  37.401  18.986  1.00  0.00     0.001 C 
HETATM   30  C18 UNL     1      22.371  37.263  17.556  1.00  0.00     0.004 C 
HETATM   31  C19 UNL     1      22.259  35.876  17.016  1.00  0.00     0.034 C 
ENDBRANCH  25  26
ENDBRANCH  24  25
BRANCH  24  32
HETATM   32  C20 UNL     1      18.873  33.760  15.720  1.00  0.00     0.283 C 
HETATM   33  O5  UNL     1      18.374  34.027  14.588  1.00  0.00    -0.265 OA
HETATM   34  N4  UNL     1      18.019  33.565  16.821  1.00  0.00    -0.341 N 
ATOM     35  H4  UNL     1      18.402  33.349  17.742  1.00  0.00     0.163 HD
BRANCH  34  36
HETATM   36  C21 UNL     1      16.558  33.680  16.624  1.00  0.00     0.180 C 
HETATM   37  C22 UNL     1      16.022  32.302  16.430  1.00  0.00     0.043 C 
BRANCH  36  38
HETATM   38  C23 UNL     1      15.996  34.280  17.870  1.00  0.00     0.282 C 
HETATM   39  O6  UNL     1      14.866  34.013  18.325  1.00  0.00    -0.263 OA
BRANCH  38  40
HETATM   40  O7  UNL     1      16.796  35.184  18.560  1.00  0.00    -0.310 OA
BRANCH  40  41
HETATM   41  C24 UNL     1      16.867  36.546  18.266  1.00  0.00     0.060 C 
HETATM   42  C25 UNL     1      16.508  36.831  16.835  1.00  0.00     0.045 C 
HETATM   43  C26 UNL     1      16.005  37.359  19.218  1.00  0.00     0.045 C 
HETATM   44  C27 UNL     1      18.308  36.987  18.498  1.00  0.00     0.045 C 
ENDBRANCH  40  41
ENDBRANCH  38  40
ENDBRANCH  36  38
ENDBRANCH  34  36
ENDBRANCH  24  32
ENDBRANCH   3  24
TORSDOF 14
ENDMDL
MODEL 2
REMARK VINA RESULT: -9.202057644      1.637      3.955
REMARK  14 active torsions:
REMARK  status: ('A' for Active; 'I' for Inactive)
REMARK       I    between atoms: C2_2  and  N1_4 
REMARK    1  A    between atoms: C3_6  and  C4_7 
REMARK    2  A    between atoms: C3_6  and  C8_12 
REMARK    3  A    between atoms: C8_12  and  N2_13 
REMARK    4  A    between atoms: C8_12  and  C28_42 
REMARK       I    between atoms: N2_13  and  C9_15 
REMARK    5  A    between atoms: C9_15  and  C10_17 
REMARK    6  A    between atoms: C10_17  and  C11_18 
REMARK       I    between atoms: C11_18  and  N3_20 
REMARK    7  A    between atoms: N3_20  and  C12_21 
REMARK    8  A    between atoms: C12_21  and  C13_22 
REMARK    9  A    between atoms: C12_21  and  C20_29 
REMARK   10  A    between atoms: C13_22  and  C14_23 
REMARK       I    between atoms: C20_29  and  N4_31 
REMARK   11  A    between atoms: N4_31  and  C21_33 
REMARK   12  A    between atoms: C21_33  and  C23_35 
REMARK   13  A    between atoms: C23_35  and  O7_37 
REMARK   14  A    between atoms: O7_37  and  C24_38 
ROOT
HETATM    1  C11 UNL     1      20.253  32.087  12.934  1.00  0.00     0.301 C 
HETATM    2  O4  UNL     1      20.154  32.369  11.727  1.00  0.00    -0.257 OA
HETATM    3  N3  UNL     1      19.431  32.592  13.938  1.00  0.00    -0.365 NA
ENDROOT
BRANCH   1   4
HETATM    4  C10 UNL     1      21.379  31.132  13.243  1.00  0.00     0.221 C 
BRANCH   4   5
HETATM    5  C9  UNL     1      20.853  29.769  13.184  1.00  0.00     0.228 C 
HETATM    6  N2  UNL     1      19.904  29.408  12.173  1.00  0.00    -0.350 N 
ATOM      7  H2  UNL     1      19.602  30.078  11.466  1.00  0.00     0.163 HD
HETATM    8  O3  UNL     1      21.219  28.887  14.024  1.00  0.00    -0.273 OA
BRANCH   6   9
HETATM    9  C8  UNL     1      19.393  28.063  12.194  1.00  0.00     0.140 C 
BRANCH   9  10
HETATM   10  C3  UNL     1      19.824  27.195  11.069  1.00  0.00     0.069 C 
HETATM   11  N1  UNL     1      18.930  26.937  10.231  1.00  0.00    -0.327 N 
HETATM   12  C2  UNL     1      18.627  26.325   9.081  1.00  0.00     0.218 C 
ATOM     13  H1  UNL     1      18.073  27.378  10.566  1.00  0.00     0.168 HD
HETATM   14  C1  UNL     1      18.446  27.143   7.828  1.00  0.00     0.117 C 
HETATM   15  O1  UNL     1      18.474  25.080   8.959  1.00  0.00    -0.274 OA
BRANCH  10  16
HETATM   16  C4  UNL     1      21.175  26.694  10.866  1.00  0.00     0.099 A 
HETATM   17  C5  UNL     1      21.523  25.413  10.585  1.00  0.00     0.041 A 
HETATM   18  C6  UNL     1      22.923  25.391  10.482  1.00  0.00     0.027 A 
HETATM   19  C7  UNL     1      23.306  26.684  10.712  1.00  0.00     0.142 A 
HETATM   20  O2  UNL     1      22.254  27.407  10.932  1.00  0.00    -0.321 OA
ENDBRANCH  10  16
ENDBRANCH   9  10
BRANCH   9  21
HETATM   21  C28 UNL     1      17.962  28.096  12.547  1.00  0.00     0.006 C 
HETATM   22  C29 UNL     1      17.514  27.711  13.901  1.00  0.00     0.012 C 
HETATM   23  C30 UNL     1      17.276  29.410  12.121  1.00  0.00     0.012 C 
ENDBRANCH   9  21
ENDBRANCH   6   9
ENDBRANCH   4   5
ENDBRANCH   1   4
BRANCH   3  24
HETATM   24  C12 UNL     1      18.637  33.081  14.907  1.00  0.00     0.178 C 
BRANCH  24  25
HETATM   25  C13 UNL     1      17.558  34.051  14.685  1.00  0.00     0.053 C 
BRANCH  25  26
HETATM   26  C14 UNL     1      16.587  34.423  15.712  1.00  0.00    -0.076 C 
HETATM   27  C15 UNL     1      15.844  33.356  16.434  1.00  0.00     0.034 C 
HETATM   28  C16 UNL     1      15.201  33.821  17.717  1.00  0.00     0.004 C 
HETATM   29  C17 UNL     1      14.620  35.175  17.495  1.00  0.00     0.001 C 
HETATM   30  C18 UNL     1      15.724  36.166  17.307  1.00  0.00     0.004 C 
HETATM   31  C19 UNL     1      16.897  35.642  16.549  1.00  0.00     0.034 C 
ENDBRANCH  25  26
ENDBRANCH  24  25
BRANCH  24  32
HETATM   32  C20 UNL     1      19.409  33.373  16.191  1.00  0.00     0.283 C 
HETATM   33  O5  UNL     1      18.998  32.792  17.238  1.00  0.00    -0.265 OA
HETATM   34  N4  UNL     1      20.519  34.233  16.270  1.00  0.00    -0.341 N 
ATOM     35  H4  UNL     1      20.866  34.709  15.437  1.00  0.00     0.163 HD
BRANCH  34  36
HETATM   36  C21 UNL     1      21.177  34.437  17.578  1.00  0.00     0.180 C 
HETATM   37  C22 UNL     1      22.327  33.490  17.655  1.00  0.00     0.043 C 
BRANCH  36  38
HETATM   38  C23 UNL     1      21.667  35.846  17.605  1.00  0.00     0.282 C 
HETATM   39  O6  UNL     1      21.303  36.727  16.802  1.00  0.00    -0.263 OA
BRANCH  38  40
HETATM   40  O7  UNL     1      22.580  36.185  18.597  1.00  0.00    -0.310 OA
BRANCH  40  41
HETATM   41  C24 UNL     1      22.229  36.771  19.814  1.00  0.00     0.060 C 
HETATM   42  C25 UNL     1      22.412  38.262  19.794  1.00  0.00     0.045 C 
HETATM   43  C26 UNL     1      20.810  36.400  20.213  1.00  0.00     0.045 C 
HETATM   44  C27 UNL     1      23.149  36.187  20.881  1.00  0.00     0.045 C 
ENDBRANCH  40  41
ENDBRANCH  38  40
ENDBRANCH  36  38
ENDBRANCH  34  36
ENDBRANCH  24  32
ENDBRANCH   3  24
TORSDOF 14
ENDMDL
MODEL 3
REMARK VINA RESULT: -9.045851834      1.509      3.620
REMARK  14 active torsions:
REMARK  status: ('A' for Active; 'I' for Inactive)
REMARK       I    between atoms: C2_2  and  N1_4 
REMARK    1  A    between atoms: C3_6  and  C4_7 
REMARK    2  A    between atoms: C3_6  and  C8_12 
REMARK    3  A    between atoms: C8_12  and  N2_13 
REMARK    4  A    between atoms: C8_12  and  C28_42 
REMARK       I    between atoms: N2_13  and  C9_15 
REMARK    5  A    between atoms: C9_15  and  C10_17 
REMARK    6  A    between atoms: C10_17  and  C11_18 
REMARK       I    between atoms: C11_18  and  N3_20 
REMARK    7  A    between atoms: N3_20  and  C12_21 
REMARK    8  A    between atoms: C12_21  and  C13_22 
REMARK    9  A    between atoms: C12_21  and  C20_29 
REMARK   10  A    between atoms: C13_22  and  C14_23 
REMARK       I    between atoms: C20_29  and  N4_31 
REMARK   11  A    between atoms: N4_31  and  C21_33 
REMARK   12  A    between atoms: C21_33  and  C23_35 
REMARK   13  A    between atoms: C23_35  and  O7_37 
REMARK   14  A    between atoms: O7_37  and  C24_38 
ROOT
HETATM    1  C11 UNL     1      21.130  32.040  13.905  1.00  0.00     0.301 C 
HETATM    2  O4  UNL     1      21.243  32.254  12.684  1.00  0.00    -0.257 OA
HETATM    3  N3  UNL     1      20.333  32.783  14.772  1.00  0.00    -0.365 NA
ENDROOT
BRANCH   1   4
HETATM    4  C10 UNL     1      21.960  30.880  14.395  1.00  0.00     0.221 C 
BRANCH   4   5
HETATM    5  C9  UNL     1      21.230  29.643  14.116  1.00  0.00     0.228 C 
HETATM    6  N2  UNL     1      20.414  29.539  12.943  1.00  0.00    -0.350 N 
ATOM      7  H2  UNL     1      20.351  30.304  12.272  1.00  0.00     0.163 HD
HETATM    8  O3  UNL     1      21.298  28.648  14.906  1.00  0.00    -0.273 OA
BRANCH   6   9
HETATM    9  C8  UNL     1      19.690  28.312  12.747  1.00  0.00     0.140 C 
BRANCH   9  10
HETATM   10  C3  UNL     1      20.103  27.502  11.573  1.00  0.00     0.069 C 
HETATM   11  N1  UNL     1      19.169  27.169  10.808  1.00  0.00    -0.327 N 
HETATM   12  C2  UNL     1      18.829  26.543   9.676  1.00  0.00     0.218 C 
ATOM     13  H1  UNL     1      18.306  27.522  11.222  1.00  0.00     0.168 HD
HETATM   14  C1  UNL     1      18.465  27.354   8.459  1.00  0.00     0.117 C 
HETATM   15  O1  UNL     1      18.785  25.291   9.544  1.00  0.00    -0.274 OA
BRANCH  10  16
HETATM   16  C4  UNL     1      21.473  27.135  11.249  1.00  0.00     0.099 A 
HETATM   17  C5  UNL     1      21.960  25.874  11.126  1.00  0.00     0.041 A 
HETATM   18  C6  UNL     1      23.323  25.999  10.814  1.00  0.00     0.027 A 
HETATM   19  C7  UNL     1      23.545  27.348  10.773  1.00  0.00     0.142 A 
HETATM   20  O2  UNL     1      22.439  27.971  11.033  1.00  0.00    -0.321 OA
ENDBRANCH  10  16
ENDBRANCH   9  10
BRANCH   9  21
HETATM   21  C28 UNL     1      18.252  28.563  12.955  1.00  0.00     0.006 C 
HETATM   22  C29 UNL     1      17.511  27.853  14.018  1.00  0.00     0.012 C 
HETATM   23  C30 UNL     1      17.912  30.067  12.994  1.00  0.00     0.012 C 
ENDBRANCH   9  21
ENDBRANCH   6   9
ENDBRANCH   4   5
ENDBRANCH   1   4
BRANCH   3  24
HETATM   24  C12 UNL     1      19.564  33.501  15.609  1.00  0.00     0.178 C 
BRANCH  24  25
HETATM   25  C13 UNL     1      18.297  34.139  15.230  1.00  0.00     0.053 C 
BRANCH  25  26
HETATM   26  C14 UNL     1      17.130  34.192  16.108  1.00  0.00    -0.076 C 
HETATM   27  C15 UNL     1      16.566  35.513  16.493  1.00  0.00     0.034 C 
HETATM   28  C16 UNL     1      15.162  35.443  17.041  1.00  0.00     0.004 C 
HETATM   29  C17 UNL     1      15.058  34.251  17.929  1.00  0.00     0.001 C 
HETATM   30  C18 UNL     1      15.148  33.006  17.105  1.00  0.00     0.004 C 
HETATM   31  C19 UNL     1      16.101  33.096  15.961  1.00  0.00     0.034 C 
ENDBRANCH  25  26
ENDBRANCH  24  25
BRANCH  24  32
HETATM   32  C20 UNL     1      20.393  34.389  16.533  1.00  0.00     0.283 C 
HETATM   33  O5  UNL     1      21.355  33.828  17.137  1.00  0.00    -0.265 OA
HETATM   34  N4  UNL     1      20.149  35.758  16.746  1.00  0.00    -0.341 N 
ATOM     35  H4  UNL     1      19.380  36.227  16.268  1.00  0.00     0.163 HD
BRANCH  34  36
HETATM   36  C21 UNL     1      21.025  36.506  17.673  1.00  0.00     0.180 C 
HETATM   37  C22 UNL     1      21.530  37.705  16.945  1.00  0.00     0.043 C 
BRANCH  36  38
HETATM   38  C23 UNL     1      20.178  36.924  18.829  1.00  0.00     0.282 C 
HETATM   39  O6  UNL     1      20.614  37.107  19.983  1.00  0.00    -0.263 OA
BRANCH  38  40
HETATM   40  O7  UNL     1      18.824  37.127  18.589  1.00  0.00    -0.310 OA
BRANCH  40  41
HETATM   41  C24 UNL     1      18.225  38.384  18.505  1.00  0.00     0.060 C 
HETATM   42  C25 UNL     1      18.961  39.412  19.317  1.00  0.00     0.045 C 
HETATM   43  C26 UNL     1      18.084  38.830  17.058  1.00  0.00     0.045 C 
HETATM   44  C27 UNL     1      16.812  38.253  19.061  1.00  0.00     0.045 C 
ENDBRANCH  40  41
ENDBRANCH  38  40
ENDBRANCH  36  38
ENDBRANCH  34  36
ENDBRANCH  24  32
ENDBRANCH   3  24
TORSDOF 14
ENDMDL
MODEL 4
REMARK VINA RESULT: -9.022953182      1.557      3.586
REMARK  14 active torsions:
REMARK  status: ('A' for Active; 'I' for Inactive)
REMARK       I    between atoms: C2_2  and  N1_4 
REMARK    1  A    between atoms: C3_6  and  C4_7 
REMARK    2  A    between atoms: C3_6  and  C8_12 
REMARK    3  A    between atoms: C8_12  and  N2_13 
REMARK    4  A    between atoms: C8_12  and  C28_42 
REMARK       I    between atoms: N2_13  and  C9_15 
REMARK    5  A    between atoms: C9_15  and  C10_17 
REMARK    6  A    between atoms: C10_17  and  C11_18 
REMARK       I    between atoms: C11_18  and  N3_20 
REMARK    7  A    between atoms: N3_20  and  C12_21 
REMARK    8  A    between atoms: C12_21  and  C13_22 
REMARK    9  A    between atoms: C12_21  and  C20_29 
REMARK   10  A    between atoms: C13_22  and  C14_23 
REMARK       I    between atoms: C20_29  and  N4_31 
REMARK   11  A    between atoms: N4_31  and  C21_33 
REMARK   12  A    between atoms: C21_33  and  C23_35 
REMARK   13  A    between atoms: C23_35  and  O7_37 
REMARK   14  A    between atoms: O7_37  and  C24_38 
ROOT
HETATM    1  C11 UNL     1      20.167  32.163  13.004  1.00  0.00     0.301 C 
HETATM    2  O4  UNL     1      20.050  32.415  11.792  1.00  0.00    -0.257 OA
HETATM    3  N3  UNL     1      19.362  32.696  14.009  1.00  0.00    -0.365 NA
ENDROOT
BRANCH   1   4
HETATM    4  C10 UNL     1      21.294  31.212  13.320  1.00  0.00     0.221 C 
BRANCH   4   5
HETATM    5  C9  UNL     1      20.772  29.847  13.261  1.00  0.00     0.228 C 
HETATM    6  N2  UNL     1      19.911  29.451  12.186  1.00  0.00    -0.350 N 
ATOM      7  H2  UNL     1      19.671  30.097  11.434  1.00  0.00     0.163 HD
HETATM    8  O3  UNL     1      21.063  28.993  14.158  1.00  0.00    -0.273 OA
BRANCH   6   9
HETATM    9  C8  UNL     1      19.398  28.108  12.208  1.00  0.00     0.140 C 
BRANCH   9  10
HETATM   10  C3  UNL     1      19.835  27.235  11.090  1.00  0.00     0.069 C 
HETATM   11  N1  UNL     1      18.943  26.964  10.253  1.00  0.00    -0.327 N 
HETATM   12  C2  UNL     1      18.644  26.342   9.108  1.00  0.00     0.218 C 
ATOM     13  H1  UNL     1      18.083  27.402  10.585  1.00  0.00     0.168 HD
HETATM   14  C1  UNL     1      18.457  27.149   7.849  1.00  0.00     0.117 C 
HETATM   15  O1  UNL     1      18.501  25.095   8.995  1.00  0.00    -0.274 OA
BRANCH  10  16
HETATM   16  C4  UNL     1      21.189  26.742  10.891  1.00  0.00     0.099 A 
HETATM   17  C5  UNL     1      21.543  25.471  10.574  1.00  0.00     0.041 A 
HETATM   18  C6  UNL     1      22.945  25.454  10.490  1.00  0.00     0.027 A 
HETATM   19  C7  UNL     1      23.322  26.740  10.767  1.00  0.00     0.142 A 
HETATM   20  O2  UNL     1      22.266  27.454  10.994  1.00  0.00    -0.321 OA
ENDBRANCH  10  16
ENDBRANCH   9  10
BRANCH   9  21
HETATM   21  C28 UNL     1      17.964  28.145  12.551  1.00  0.00     0.006 C 
HETATM   22  C29 UNL     1      17.504  27.759  13.901  1.00  0.00     0.012 C 
HETATM   23  C30 UNL     1      17.286  29.462  12.122  1.00  0.00     0.012 C 
ENDBRANCH   9  21
ENDBRANCH   6   9
ENDBRANCH   4   5
ENDBRANCH   1   4
BRANCH   3  24
HETATM   24  C12 UNL     1      18.585  33.211  14.977  1.00  0.00     0.178 C 
BRANCH  24  25
HETATM   25  C13 UNL     1      17.432  34.088  14.737  1.00  0.00     0.053 C 
BRANCH  25  26
HETATM   26  C14 UNL     1      16.481  34.468  15.780  1.00  0.00    -0.076 C 
HETATM   27  C15 UNL     1      15.848  33.411  16.612  1.00  0.00     0.034 C 
HETATM   28  C16 UNL     1      15.228  33.925  17.887  1.00  0.00     0.004 C 
HETATM   29  C17 UNL     1      14.542  35.215  17.595  1.00  0.00     0.001 C 
HETATM   30  C18 UNL     1      15.563  36.264  17.284  1.00  0.00     0.004 C 
HETATM   31  C19 UNL     1      16.737  35.765  16.511  1.00  0.00     0.034 C 
ENDBRANCH  25  26
ENDBRANCH  24  25
BRANCH  24  32
HETATM   32  C20 UNL     1      19.398  33.659  16.189  1.00  0.00     0.283 C 
HETATM   33  O5  UNL     1      19.353  32.905  17.205  1.00  0.00    -0.265 OA
HETATM   34  N4  UNL     1      20.168  34.836  16.236  1.00  0.00    -0.341 N 
ATOM     35  H4  UNL     1      20.216  35.455  15.427  1.00  0.00     0.163 HD
BRANCH  34  36
HETATM   36  C21 UNL     1      20.905  35.160  17.475  1.00  0.00     0.180 C 
HETATM   37  C22 UNL     1      22.169  35.846  17.080  1.00  0.00     0.043 C 
BRANCH  36  38
HETATM   38  C23 UNL     1      20.042  36.086  18.266  1.00  0.00     0.282 C 
HETATM   39  O6  UNL     1      19.627  35.842  19.416  1.00  0.00    -0.263 OA
BRANCH  38  40
HETATM   40  O7  UNL     1      19.694  37.296  17.675  1.00  0.00    -0.310 OA
BRANCH  40  41
HETATM   41  C24 UNL     1      19.931  38.543  18.253  1.00  0.00     0.060 C 
HETATM   42  C25 UNL     1      18.726  39.062  18.985  1.00  0.00     0.045 C 
HETATM   43  C26 UNL     1      21.149  38.506  19.162  1.00  0.00     0.045 C 
HETATM   44  C27 UNL     1      20.261  39.512  17.122  1.00  0.00     0.045 C 
ENDBRANCH  40  41
ENDBRANCH  38  40
ENDBRANCH  36  38
ENDBRANCH  34  36
ENDBRANCH  24  32
ENDBRANCH   3  24
TORSDOF 14
ENDMDL
MODEL 5
REMARK VINA RESULT: -8.918408380      2.160      4.663
REMARK  14 active torsions:
REMARK  status: ('A' for Active; 'I' for Inactive)
REMARK       I    between atoms: C2_2  and  N1_4 
REMARK    1  A    between atoms: C3_6  and  C4_7 
REMARK    2  A    between atoms: C3_6  and  C8_12 
REMARK    3  A    between atoms: C8_12  and  N2_13 
REMARK    4  A    between atoms: C8_12  and  C28_42 
REMARK       I    between atoms: N2_13  and  C9_15 
REMARK    5  A    between atoms: C9_15  and  C10_17 
REMARK    6  A    between atoms: C10_17  and  C11_18 
REMARK       I    between atoms: C11_18  and  N3_20 
REMARK    7  A    between atoms: N3_20  and  C12_21 
REMARK    8  A    between atoms: C12_21  and  C13_22 
REMARK    9  A    between atoms: C12_21  and  C20_29 
REMARK   10  A    between atoms: C13_22  and  C14_23 
REMARK       I    between atoms: C20_29  and  N4_31 
REMARK   11  A    between atoms: N4_31  and  C21_33 
REMARK   12  A    between atoms: C21_33  and  C23_35 
REMARK   13  A    between atoms: C23_35  and  O7_37 
REMARK   14  A    between atoms: O7_37  and  C24_38 
ROOT
HETATM    1  C11 UNL     1      17.614  28.674  14.055  1.00  0.00     0.301 C 
HETATM    2  O4  UNL     1      17.642  27.602  14.685  1.00  0.00    -0.257 OA
HETATM    3  N3  UNL     1      17.878  29.926  14.605  1.00  0.00    -0.365 NA
ENDROOT
BRANCH   1   4
HETATM    4  C10 UNL     1      17.250  28.513  12.600  1.00  0.00     0.221 C 
BRANCH   4   5
HETATM    5  C9  UNL     1      18.463  28.688  11.802  1.00  0.00     0.228 C 
HETATM    6  N2  UNL     1      19.749  28.666  12.433  1.00  0.00    -0.350 N 
ATOM      7  H2  UNL     1      19.844  28.501  13.435  1.00  0.00     0.163 HD
HETATM    8  O3  UNL     1      18.400  28.868  10.544  1.00  0.00    -0.273 OA
BRANCH   6   9
HETATM    9  C8  UNL     1      20.899  28.886  11.599  1.00  0.00     0.140 C 
BRANCH   9  10
HETATM   10  C3  UNL     1      21.613  27.662  11.154  1.00  0.00     0.069 C 
HETATM   11  N1  UNL     1      20.882  26.781  10.646  1.00  0.00    -0.327 N 
HETATM   12  C2  UNL     1      20.832  25.579  10.062  1.00  0.00     0.218 C 
ATOM     13  H1  UNL     1      19.923  27.124  10.700  1.00  0.00     0.168 HD
HETATM   14  C1  UNL     1      20.612  25.483   8.574  1.00  0.00     0.117 C 
HETATM   15  O1  UNL     1      20.955  24.486  10.677  1.00  0.00    -0.274 OA
BRANCH  10  16
HETATM   16  C4  UNL     1      23.052  27.459  11.224  1.00  0.00     0.099 A 
HETATM   17  C5  UNL     1      23.972  27.917  10.338  1.00  0.00     0.041 A 
HETATM   18  C6  UNL     1      25.225  27.479  10.798  1.00  0.00     0.027 A 
HETATM   19  C7  UNL     1      24.948  26.784  11.942  1.00  0.00     0.142 A 
HETATM   20  O2  UNL     1      23.669  26.798  12.151  1.00  0.00    -0.321 OA
ENDBRANCH  10  16
ENDBRANCH   9  10
BRANCH   9  21
HETATM   21  C28 UNL     1      21.693  29.997  12.154  1.00  0.00     0.006 C 
HETATM   22  C29 UNL     1      21.138  31.366  12.200  1.00  0.00     0.012 C 
HETATM   23  C30 UNL     1      22.338  29.646  13.510  1.00  0.00     0.012 C 
ENDBRANCH   9  21
ENDBRANCH   6   9
ENDBRANCH   4   5
ENDBRANCH   1   4
BRANCH   3  24
HETATM   24  C12 UNL     1      18.132  31.135  15.137  1.00  0.00     0.178 C 
BRANCH  24  25
HETATM   25  C13 UNL     1      17.540  32.391  14.659  1.00  0.00     0.053 C 
BRANCH  25  26
HETATM   26  C14 UNL     1      16.731  33.270  15.501  1.00  0.00    -0.076 C 
HETATM   27  C15 UNL     1      15.799  32.673  16.495  1.00  0.00     0.034 C 
HETATM   28  C16 UNL     1      15.342  33.637  17.561  1.00  0.00     0.004 C 
HETATM   29  C17 UNL     1      15.077  34.958  16.924  1.00  0.00     0.001 C 
HETATM   30  C18 UNL     1      16.368  35.562  16.472  1.00  0.00     0.004 C 
HETATM   31  C19 UNL     1      17.352  34.576  15.937  1.00  0.00     0.034 C 
ENDBRANCH  25  26
ENDBRANCH  24  25
BRANCH  24  32
HETATM   32  C20 UNL     1      19.603  31.303  15.507  1.00  0.00     0.283 C 
HETATM   33  O5  UNL     1      20.197  30.269  15.931  1.00  0.00    -0.265 OA
HETATM   34  N4  UNL     1      20.311  32.515  15.410  1.00  0.00    -0.341 N 
ATOM     35  H4  UNL     1      19.849  33.359  15.071  1.00  0.00     0.163 HD
BRANCH  34  36
HETATM   36  C21 UNL     1      21.734  32.546  15.807  1.00  0.00     0.180 C 
HETATM   37  C22 UNL     1      22.466  33.362  14.796  1.00  0.00     0.043 C 
BRANCH  36  38
HETATM   38  C23 UNL     1      21.799  33.205  17.145  1.00  0.00     0.282 C 
HETATM   39  O6  UNL     1      22.669  32.958  18.003  1.00  0.00    -0.263 OA
BRANCH  38  40
HETATM   40  O7  UNL     1      20.828  34.157  17.436  1.00  0.00    -0.310 OA
BRANCH  40  41
HETATM   41  C24 UNL     1      21.102  35.413  17.977  1.00  0.00     0.060 C 
HETATM   42  C25 UNL     1      21.502  35.326  19.423  1.00  0.00     0.045 C 
HETATM   43  C26 UNL     1      22.157  36.144  17.163  1.00  0.00     0.045 C 
HETATM   44  C27 UNL     1      19.825  36.239  17.880  1.00  0.00     0.045 C 
ENDBRANCH  40  41
ENDBRANCH  38  40
ENDBRANCH  36  38
ENDBRANCH  34  36
ENDBRANCH  24  32
ENDBRANCH   3  24
TORSDOF 14
ENDMDL
