MODEL 1
REMARK VINA RESULT: -8.924604170      0.000      0.000
REMARK  14 active torsions:
REMARK  status: ('A' for Active; 'I' for Inactive)
REMARK    1  A    between atoms: N1_2  and  C2_4 
REMARK    2  A    between atoms: C4_6  and  N2_7 
REMARK       I    between atoms: N3_14  and  C8_15 
REMARK    3  A    between atoms: C8_15  and  C9_17 
REMARK    4  A    between atoms: C9_17  and  O2_18 
REMARK    5  A    between atoms: O2_18  and  C10_19 
REMARK    6  A    between atoms: C10_19  and  C11_21 
REMARK    7  A    between atoms: C11_21  and  C12_22 
REMARK    8  A    between atoms: C11_21  and  N4_29 
REMARK    9  A    between atoms: C12_22  and  C13_23 
REMARK       I    between atoms: N4_29  and  C19_31 
REMARK   10  A    between atoms: C19_31  and  C20_33 
REMARK   11  A    between atoms: C20_33  and  C21_34 
REMARK   12  A    between atoms: C21_34  and  C22_35 
REMARK   13  A    between atoms: C22_35  and  C23_36 
REMARK   14  A    between atoms: C23_36  and  C24_37 
ROOT
HETATM    1  C10 UNL     1      18.392  31.092  13.830  1.00  0.00     0.282 C 
HETATM    2  O3  UNL     1      18.337  31.153  12.552  1.00  0.00    -0.263 OA
ENDROOT
BRANCH   1   3
HETATM    3  O2  UNL     1      17.929  29.921  14.371  1.00  0.00    -0.310 OA
BRANCH   3   4
HETATM    4  C9  UNL     1      18.824  28.826  14.559  1.00  0.00     0.281 C 
BRANCH   4   5
HETATM    5  C8  UNL     1      18.899  28.002  13.326  1.00  0.00     0.244 C 
HETATM    6  N3  UNL     1      20.071  27.981  12.484  1.00  0.00    -0.350 N 
HETATM    7  C7  UNL     1      21.139  28.864  12.833  1.00  0.00     0.126 C 
HETATM    8  C27 UNL     1      20.043  27.039  11.388  1.00  0.00     0.132 C 
HETATM    9  C6  UNL     1      22.428  28.566  12.119  1.00  0.00     0.027 C 
HETATM   10  C5  UNL     1      22.454  27.112  11.760  1.00  0.00     0.025 C 
HETATM   11  C4  UNL     1      23.666  26.694  10.960  1.00  0.00     0.190 C 
HETATM   12  C28 UNL     1      21.354  26.902  10.714  1.00  0.00     0.032 C 
HETATM   13  C3  UNL     1      23.171  25.377  10.340  1.00  0.00     0.058 C 
HETATM   14  C2  UNL     1      21.669  25.511  10.208  1.00  0.00     0.084 C 
HETATM   15  O1  UNL     1      17.867  27.305  13.047  1.00  0.00    -0.271 OA
BRANCH  11  16
HETATM   16  N2  UNL     1      24.736  26.486  11.891  1.00  0.00    -0.075 N 
ATOM     17  H23 UNL     1      25.195  27.366  12.128  1.00  0.00     0.274 HD
ATOM     18  H22 UNL     1      24.380  26.234  12.813  1.00  0.00     0.274 HD
ATOM     19  H21 UNL     1      25.410  25.797  11.557  1.00  0.00     0.274 HD
ENDBRANCH  11  16
BRANCH  14  20
HETATM   20  N1  UNL     1      21.315  25.430   8.829  1.00  0.00    -0.421 N 
HETATM   21  C1  UNL     1      22.225  24.705   7.998  1.00  0.00     0.140 C 
ATOM     22  H1  UNL     1      20.468  25.862   8.459  1.00  0.00     0.153 HD
ENDBRANCH  14  20
ENDBRANCH   4   5
ENDBRANCH   3   4
ENDBRANCH   1   3
BRANCH   1  23
HETATM   23  C11 UNL     1      18.931  32.260  14.524  1.00  0.00     0.184 C 
BRANCH  23  24
HETATM   24  C12 UNL     1      18.081  32.884  15.567  1.00  0.00     0.040 C 
BRANCH  24  25
HETATM   25  C13 UNL     1      16.717  33.293  15.104  1.00  0.00    -0.012 C 
HETATM   26  C14 UNL     1      16.527  34.778  14.956  1.00  0.00     0.005 C 
HETATM   27  C15 UNL     1      16.496  35.503  16.265  1.00  0.00     0.000 C 
HETATM   28  C16 UNL     1      15.283  34.968  17.040  1.00  0.00     0.000 C 
HETATM   29  C17 UNL     1      15.564  33.511  17.315  1.00  0.00     0.000 C 
HETATM   30  C18 UNL     1      15.648  32.716  16.041  1.00  0.00     0.005 C 
ENDBRANCH  24  25
ENDBRANCH  23  24
BRANCH  23  31
HETATM   31  N4  UNL     1      20.251  31.928  15.048  1.00  0.00    -0.347 N 
HETATM   32  C19 UNL     1      21.398  32.119  14.263  1.00  0.00     0.218 C 
HETATM   33  O4  UNL     1      21.328  32.572  13.094  1.00  0.00    -0.274 OA
ATOM     34  H4  UNL     1      20.341  31.554  15.993  1.00  0.00     0.163 HD
BRANCH  32  35
HETATM   35  C20 UNL     1      22.731  31.775  14.834  1.00  0.00     0.103 C 
BRANCH  35  36
HETATM   36  C21 UNL     1      23.403  33.040  15.297  1.00  0.00     0.009 C 
BRANCH  36  37
HETATM   37  C22 UNL     1      22.806  33.547  16.610  1.00  0.00     0.002 C 
BRANCH  37  38
HETATM   38  C23 UNL     1      22.065  34.811  16.346  1.00  0.00     0.016 C 
BRANCH  38  39
HETATM   39  C24 UNL     1      21.546  35.500  17.566  1.00  0.00     0.059 C 
HETATM   40  C25 UNL     1      22.060  34.822  18.790  1.00  0.00     0.027 C 
HETATM   41  C26 UNL     1      21.419  35.513  19.993  1.00  0.00     0.087 C 
HETATM   42  S1  UNL     1      22.157  37.206  19.891  1.00  0.00    -0.097 SA
HETATM   43  S2  UNL     1      22.278  37.189  17.724  1.00  0.00    -0.093 SA
ENDBRANCH  38  39
ENDBRANCH  37  38
ENDBRANCH  36  37
ENDBRANCH  35  36
ENDBRANCH  32  35
ENDBRANCH  23  31
ENDBRANCH   1  23
TORSDOF 14
ENDMDL
MODEL 2
REMARK VINA RESULT: -8.905765141      2.585      5.044
REMARK  14 active torsions:
REMARK  status: ('A' for Active; 'I' for Inactive)
REMARK    1  A    between atoms: N1_2  and  C2_4 
REMARK    2  A    between atoms: C4_6  and  N2_7 
REMARK       I    between atoms: N3_14  and  C8_15 
REMARK    3  A    between atoms: C8_15  and  C9_17 
REMARK    4  A    between atoms: C9_17  and  O2_18 
REMARK    5  A    between atoms: O2_18  and  C10_19 
REMARK    6  A    between atoms: C10_19  and  C11_21 
REMARK    7  A    between atoms: C11_21  and  C12_22 
REMARK    8  A    between atoms: C11_21  and  N4_29 
REMARK    9  A    between atoms: C12_22  and  C13_23 
REMARK       I    between atoms: N4_29  and  C19_31 
REMARK   10  A    between atoms: C19_31  and  C20_33 
REMARK   11  A    between atoms: C20_33  and  C21_34 
REMARK   12  A    between atoms: C21_34  and  C22_35 
REMARK   13  A    between atoms: C22_35  and  C23_36 
REMARK   14  A    between atoms: C23_36  and  C24_37 
ROOT
HETATM    1  C10 UNL     1      22.080  32.400  14.741  1.00  0.00     0.282 C 
HETATM    2  O3  UNL     1      22.254  33.522  14.150  1.00  0.00    -0.263 OA
ENDROOT
BRANCH   1   3
HETATM    3  O2  UNL     1      22.446  31.300  14.010  1.00  0.00    -0.310 OA
BRANCH   3   4
HETATM    4  C9  UNL     1      22.194  29.993  14.525  1.00  0.00     0.281 C 
BRANCH   4   5
HETATM    5  C8  UNL     1      22.006  29.026  13.414  1.00  0.00     0.244 C 
HETATM    6  N3  UNL     1      20.705  28.525  13.040  1.00  0.00    -0.350 N 
HETATM    7  C7  UNL     1      19.597  28.929  13.847  1.00  0.00     0.126 C 
HETATM    8  C27 UNL     1      20.666  27.688  11.863  1.00  0.00     0.132 C 
HETATM    9  C6  UNL     1      18.259  28.639  13.225  1.00  0.00     0.027 C 
HETATM   10  C5  UNL     1      18.414  28.620  11.736  1.00  0.00     0.025 C 
HETATM   11  C4  UNL     1      17.154  28.256  10.986  1.00  0.00     0.190 C 
HETATM   12  C28 UNL     1      19.288  27.405  11.404  1.00  0.00     0.032 C 
HETATM   13  C3  UNL     1      17.731  27.832   9.626  1.00  0.00     0.058 C 
HETATM   14  C2  UNL     1      19.123  27.307   9.902  1.00  0.00     0.084 C 
HETATM   15  O1  UNL     1      23.062  28.658  12.799  1.00  0.00    -0.271 OA
BRANCH  11  16
HETATM   16  N2  UNL     1      16.359  29.445  10.892  1.00  0.00    -0.075 N 
ATOM     17  H23 UNL     1      16.853  30.180  10.384  1.00  0.00     0.274 HD
ATOM     18  H22 UNL     1      15.570  29.312  10.259  1.00  0.00     0.274 HD
ATOM     19  H21 UNL     1      16.046  29.774  11.805  1.00  0.00     0.274 HD
ENDBRANCH  11  16
BRANCH  14  20
HETATM   20  N1  UNL     1      19.186  25.934   9.521  1.00  0.00    -0.421 N 
HETATM   21  C1  UNL     1      19.001  25.671   8.127  1.00  0.00     0.140 C 
ATOM     22  H1  UNL     1      19.351  25.189  10.197  1.00  0.00     0.153 HD
ENDBRANCH  14  20
ENDBRANCH   4   5
ENDBRANCH   3   4
ENDBRANCH   1   3
BRANCH   1  23
HETATM   23  C11 UNL     1      21.521  32.445  16.090  1.00  0.00     0.184 C 
BRANCH  23  24
HETATM   24  C12 UNL     1      22.022  33.504  16.999  1.00  0.00     0.040 C 
BRANCH  24  25
HETATM   25  C13 UNL     1      21.035  34.587  17.306  1.00  0.00    -0.012 C 
HETATM   26  C14 UNL     1      21.350  35.917  16.677  1.00  0.00     0.005 C 
HETATM   27  C15 UNL     1      22.544  36.588  17.280  1.00  0.00     0.000 C 
HETATM   28  C16 UNL     1      22.205  36.856  18.754  1.00  0.00     0.000 C 
HETATM   29  C17 UNL     1      22.046  35.504  19.405  1.00  0.00     0.000 C 
HETATM   30  C18 UNL     1      20.883  34.746  18.825  1.00  0.00     0.005 C 
ENDBRANCH  24  25
ENDBRANCH  23  24
BRANCH  23  31
HETATM   31  N4  UNL     1      20.066  32.475  15.997  1.00  0.00    -0.347 N 
HETATM   32  C19 UNL     1      19.298  31.412  16.493  1.00  0.00     0.218 C 
HETATM   33  O4  UNL     1      19.830  30.406  17.024  1.00  0.00    -0.274 OA
ATOM     34  H4  UNL     1      19.603  33.277  15.568  1.00  0.00     0.163 HD
BRANCH  32  35
HETATM   35  C20 UNL     1      17.813  31.480  16.387  1.00  0.00     0.103 C 
BRANCH  35  36
HETATM   36  C21 UNL     1      17.448  32.255  15.149  1.00  0.00     0.009 C 
BRANCH  36  37
HETATM   37  C22 UNL     1      16.627  33.500  15.485  1.00  0.00     0.002 C 
BRANCH  37  38
HETATM   38  C23 UNL     1      15.818  33.228  16.704  1.00  0.00     0.016 C 
BRANCH  38  39
HETATM   39  C24 UNL     1      15.999  34.215  17.810  1.00  0.00     0.059 C 
HETATM   40  C25 UNL     1      17.211  35.046  17.556  1.00  0.00     0.027 C 
HETATM   41  C26 UNL     1      17.392  35.964  18.765  1.00  0.00     0.087 C 
HETATM   42  S1  UNL     1      15.892  37.040  18.647  1.00  0.00    -0.097 SA
HETATM   43  S2  UNL     1      14.653  35.480  17.787  1.00  0.00    -0.093 SA
ENDBRANCH  38  39
ENDBRANCH  37  38
ENDBRANCH  36  37
ENDBRANCH  35  36
ENDBRANCH  32  35
ENDBRANCH  23  31
ENDBRANCH   1  23
TORSDOF 14
ENDMDL
MODEL 3
REMARK VINA RESULT: -8.876383933      0.903      1.167
REMARK  14 active torsions:
REMARK  status: ('A' for Active; 'I' for Inactive)
REMARK    1  A    between atoms: N1_2  and  C2_4 
REMARK    2  A    between atoms: C4_6  and  N2_7 
REMARK       I    between atoms: N3_14  and  C8_15 
REMARK    3  A    between atoms: C8_15  and  C9_17 
REMARK    4  A    between atoms: C9_17  and  O2_18 
REMARK    5  A    between atoms: O2_18  and  C10_19 
REMARK    6  A    between atoms: C10_19  and  C11_21 
REMARK    7  A    between atoms: C11_21  and  C12_22 
REMARK    8  A    between atoms: C11_21  and  N4_29 
REMARK    9  A    between atoms: C12_22  and  C13_23 
REMARK       I    between atoms: N4_29  and  C19_31 
REMARK   10  A    between atoms: C19_31  and  C20_33 
REMARK   11  A    between atoms: C20_33  and  C21_34 
REMARK   12  A    between atoms: C21_34  and  C22_35 
REMARK   13  A    between atoms: C22_35  and  C23_36 
REMARK   14  A    between atoms: C23_36  and  C24_37 
ROOT
HETATM    1  C10 UNL     1      18.567  31.353  13.928  1.00  0.00     0.282 C 
HETATM    2  O3  UNL     1      18.650  31.462  12.655  1.00  0.00    -0.263 OA
ENDROOT
BRANCH   1   3
HETATM    3  O2  UNL     1      18.067  30.157  14.373  1.00  0.00    -0.310 OA
BRANCH   3   4
HETATM    4  C9  UNL     1      18.958  29.077  14.646  1.00  0.00     0.281 C 
BRANCH   4   5
HETATM    5  C8  UNL     1      19.103  28.210  13.449  1.00  0.00     0.244 C 
HETATM    6  N3  UNL     1      20.306  28.193  12.652  1.00  0.00    -0.350 N 
HETATM    7  C7  UNL     1      21.335  29.118  13.007  1.00  0.00     0.126 C 
HETATM    8  C27 UNL     1      20.347  27.210  11.593  1.00  0.00     0.132 C 
HETATM    9  C6  UNL     1      22.659  28.832  12.353  1.00  0.00     0.027 C 
HETATM   10  C5  UNL     1      22.739  27.367  12.050  1.00  0.00     0.025 C 
HETATM   11  C4  UNL     1      23.991  26.956  11.312  1.00  0.00     0.190 C 
HETATM   12  C28 UNL     1      21.685  27.087  10.973  1.00  0.00     0.032 C 
HETATM   13  C3  UNL     1      23.557  25.604  10.725  1.00  0.00     0.058 C 
HETATM   14  C2  UNL     1      22.058  25.688  10.532  1.00  0.00     0.084 C 
HETATM   15  O1  UNL     1      18.102  27.473  13.159  1.00  0.00    -0.271 OA
BRANCH  11  16
HETATM   16  N2  UNL     1      25.031  26.814  12.289  1.00  0.00    -0.075 N 
ATOM     17  H23 UNL     1      25.308  25.837  12.393  1.00  0.00     0.274 HD
ATOM     18  H22 UNL     1      25.912  27.199  11.949  1.00  0.00     0.274 HD
ATOM     19  H21 UNL     1      24.774  27.221  13.188  1.00  0.00     0.274 HD
ENDBRANCH  11  16
BRANCH  14  20
HETATM   20  N1  UNL     1      21.759  25.546   9.146  1.00  0.00    -0.421 N 
HETATM   21  C1  UNL     1      22.753  24.879   8.363  1.00  0.00     0.140 C 
ATOM     22  H1  UNL     1      20.893  25.897   8.738  1.00  0.00     0.153 HD
ENDBRANCH  14  20
ENDBRANCH   4   5
ENDBRANCH   3   4
ENDBRANCH   1   3
BRANCH   1  23
HETATM   23  C11 UNL     1      19.008  32.501  14.718  1.00  0.00     0.184 C 
BRANCH  23  24
HETATM   24  C12 UNL     1      18.073  33.019  15.745  1.00  0.00     0.040 C 
BRANCH  24  25
HETATM   25  C13 UNL     1      16.706  33.359  15.236  1.00  0.00    -0.012 C 
HETATM   26  C14 UNL     1      16.462  34.830  15.036  1.00  0.00     0.005 C 
HETATM   27  C15 UNL     1      16.370  35.594  16.320  1.00  0.00     0.000 C 
HETATM   28  C16 UNL     1      15.159  35.036  17.082  1.00  0.00     0.000 C 
HETATM   29  C17 UNL     1      15.489  33.601  17.411  1.00  0.00     0.000 C 
HETATM   30  C18 UNL     1      15.637  32.770  16.166  1.00  0.00     0.005 C 
ENDBRANCH  24  25
ENDBRANCH  23  24
BRANCH  23  31
HETATM   31  N4  UNL     1      20.313  32.201  15.296  1.00  0.00    -0.347 N 
HETATM   32  C19 UNL     1      21.487  32.432  14.564  1.00  0.00     0.218 C 
HETATM   33  O4  UNL     1      21.455  32.896  13.398  1.00  0.00    -0.274 OA
ATOM     34  H4  UNL     1      20.372  31.819  16.240  1.00  0.00     0.163 HD
BRANCH  32  35
HETATM   35  C20 UNL     1      22.803  32.120  15.189  1.00  0.00     0.103 C 
BRANCH  35  36
HETATM   36  C21 UNL     1      22.764  32.531  16.637  1.00  0.00     0.009 C 
BRANCH  36  37
HETATM   37  C22 UNL     1      22.669  34.049  16.790  1.00  0.00     0.002 C 
BRANCH  37  38
HETATM   38  C23 UNL     1      21.984  34.361  18.074  1.00  0.00     0.016 C 
BRANCH  38  39
HETATM   39  C24 UNL     1      21.596  35.794  18.246  1.00  0.00     0.059 C 
HETATM   40  C25 UNL     1      21.466  36.448  16.912  1.00  0.00     0.027 C 
HETATM   41  C26 UNL     1      21.164  37.926  17.161  1.00  0.00     0.087 C 
HETATM   42  S1  UNL     1      19.495  37.840  17.953  1.00  0.00    -0.097 SA
HETATM   43  S2  UNL     1      19.880  35.932  18.913  1.00  0.00    -0.093 SA
ENDBRANCH  38  39
ENDBRANCH  37  38
ENDBRANCH  36  37
ENDBRANCH  35  36
ENDBRANCH  32  35
ENDBRANCH  23  31
ENDBRANCH   1  23
TORSDOF 14
ENDMDL
MODEL 4
REMARK VINA RESULT: -8.837645164      1.404      4.163
REMARK  14 active torsions:
REMARK  status: ('A' for Active; 'I' for Inactive)
REMARK    1  A    between atoms: N1_2  and  C2_4 
REMARK    2  A    between atoms: C4_6  and  N2_7 
REMARK       I    between atoms: N3_14  and  C8_15 
REMARK    3  A    between atoms: C8_15  and  C9_17 
REMARK    4  A    between atoms: C9_17  and  O2_18 
REMARK    5  A    between atoms: O2_18  and  C10_19 
REMARK    6  A    between atoms: C10_19  and  C11_21 
REMARK    7  A    between atoms: C11_21  and  C12_22 
REMARK    8  A    between atoms: C11_21  and  N4_29 
REMARK    9  A    between atoms: C12_22  and  C13_23 
REMARK       I    between atoms: N4_29  and  C19_31 
REMARK   10  A    between atoms: C19_31  and  C20_33 
REMARK   11  A    between atoms: C20_33  and  C21_34 
REMARK   12  A    between atoms: C21_34  and  C22_35 
REMARK   13  A    between atoms: C22_35  and  C23_36 
REMARK   14  A    between atoms: C23_36  and  C24_37 
ROOT
HETATM    1  C10 UNL     1      18.632  31.283  13.766  1.00  0.00     0.282 C 
HETATM    2  O3  UNL     1      19.060  31.727  12.644  1.00  0.00    -0.263 OA
ENDROOT
BRANCH   1   3
HETATM    3  O2  UNL     1      17.981  30.079  13.699  1.00  0.00    -0.310 OA
BRANCH   3   4
HETATM    4  C9  UNL     1      18.646  28.891  14.127  1.00  0.00     0.281 C 
BRANCH   4   5
HETATM    5  C8  UNL     1      18.917  28.003  12.969  1.00  0.00     0.244 C 
HETATM    6  N3  UNL     1      20.181  28.012  12.270  1.00  0.00    -0.350 N 
HETATM    7  C7  UNL     1      21.144  28.984  12.681  1.00  0.00     0.126 C 
HETATM    8  C27 UNL     1      20.341  27.007  11.244  1.00  0.00     0.132 C 
HETATM    9  C6  UNL     1      22.524  28.733  12.142  1.00  0.00     0.027 C 
HETATM   10  C5  UNL     1      22.681  27.266  11.885  1.00  0.00     0.025 C 
HETATM   11  C4  UNL     1      24.003  26.885  11.260  1.00  0.00     0.190 C 
HETATM   12  C28 UNL     1      21.728  26.920  10.736  1.00  0.00     0.032 C 
HETATM   13  C3  UNL     1      23.666  25.503  10.676  1.00  0.00     0.058 C 
HETATM   14  C2  UNL     1      22.185  25.526  10.363  1.00  0.00     0.084 C 
HETATM   15  O1  UNL     1      17.970  27.222  12.620  1.00  0.00    -0.271 OA
BRANCH  11  16
HETATM   16  N2  UNL     1      24.965  26.805  12.319  1.00  0.00    -0.075 N 
ATOM     17  H23 UNL     1      25.025  25.857  12.692  1.00  0.00     0.274 HD
ATOM     18  H22 UNL     1      25.916  26.901  11.962  1.00  0.00     0.274 HD
ATOM     19  H21 UNL     1      24.780  27.482  13.060  1.00  0.00     0.274 HD
ENDBRANCH  11  16
BRANCH  14  20
HETATM   20  N1  UNL     1      22.003  25.340   8.961  1.00  0.00    -0.421 N 
HETATM   21  C1  UNL     1      23.147  24.864   8.247  1.00  0.00     0.140 C 
ATOM     22  H1  UNL     1      21.115  25.534   8.498  1.00  0.00     0.153 HD
ENDBRANCH  14  20
ENDBRANCH   4   5
ENDBRANCH   3   4
ENDBRANCH   1   3
BRANCH   1  23
HETATM   23  C11 UNL     1      18.892  32.108  14.944  1.00  0.00     0.184 C 
BRANCH  23  24
HETATM   24  C12 UNL     1      20.191  32.820  15.004  1.00  0.00     0.040 C 
BRANCH  24  25
HETATM   25  C13 UNL     1      21.262  32.107  15.771  1.00  0.00    -0.012 C 
HETATM   26  C14 UNL     1      21.800  32.872  16.949  1.00  0.00     0.005 C 
HETATM   27  C15 UNL     1      22.620  34.061  16.559  1.00  0.00     0.000 C 
HETATM   28  C16 UNL     1      23.830  33.528  15.777  1.00  0.00     0.000 C 
HETATM   29  C17 UNL     1      23.281  32.901  14.520  1.00  0.00     0.000 C 
HETATM   30  C18 UNL     1      22.410  31.715  14.830  1.00  0.00     0.005 C 
ENDBRANCH  24  25
ENDBRANCH  23  24
BRANCH  23  31
HETATM   31  N4  UNL     1      17.776  33.029  15.128  1.00  0.00    -0.347 N 
HETATM   32  C19 UNL     1      16.650  32.646  15.870  1.00  0.00     0.218 C 
HETATM   33  O4  UNL     1      16.561  31.507  16.391  1.00  0.00    -0.274 OA
ATOM     34  H4  UNL     1      17.816  33.961  14.713  1.00  0.00     0.163 HD
BRANCH  32  35
HETATM   35  C20 UNL     1      15.532  33.616  16.043  1.00  0.00     0.103 C 
BRANCH  35  36
HETATM   36  C21 UNL     1      15.268  33.797  17.514  1.00  0.00     0.009 C 
BRANCH  36  37
HETATM   37  C22 UNL     1      15.069  35.270  17.874  1.00  0.00     0.002 C 
BRANCH  37  38
HETATM   38  C23 UNL     1      16.237  36.049  17.378  1.00  0.00     0.016 C 
BRANCH  38  39
HETATM   39  C24 UNL     1      17.351  36.203  18.362  1.00  0.00     0.059 C 
HETATM   40  C25 UNL     1      18.536  35.418  17.913  1.00  0.00     0.027 C 
HETATM   41  C26 UNL     1      19.599  35.541  19.005  1.00  0.00     0.087 C 
HETATM   42  S1  UNL     1      20.009  37.343  18.929  1.00  0.00    -0.097 SA
HETATM   43  S2  UNL     1      18.003  37.931  18.346  1.00  0.00    -0.093 SA
ENDBRANCH  38  39
ENDBRANCH  37  38
ENDBRANCH  36  37
ENDBRANCH  35  36
ENDBRANCH  32  35
ENDBRANCH  23  31
ENDBRANCH   1  23
TORSDOF 14
ENDMDL
MODEL 5
REMARK VINA RESULT: -8.803456582      1.284      1.483
REMARK  14 active torsions:
REMARK  status: ('A' for Active; 'I' for Inactive)
REMARK    1  A    between atoms: N1_2  and  C2_4 
REMARK    2  A    between atoms: C4_6  and  N2_7 
REMARK       I    between atoms: N3_14  and  C8_15 
REMARK    3  A    between atoms: C8_15  and  C9_17 
REMARK    4  A    between atoms: C9_17  and  O2_18 
REMARK    5  A    between atoms: O2_18  and  C10_19 
REMARK    6  A    between atoms: C10_19  and  C11_21 
REMARK    7  A    between atoms: C11_21  and  C12_22 
REMARK    8  A    between atoms: C11_21  and  N4_29 
REMARK    9  A    between atoms: C12_22  and  C13_23 
REMARK       I    between atoms: N4_29  and  C19_31 
REMARK   10  A    between atoms: C19_31  and  C20_33 
REMARK   11  A    between atoms: C20_33  and  C21_34 
REMARK   12  A    between atoms: C21_34  and  C22_35 
REMARK   13  A    between atoms: C22_35  and  C23_36 
REMARK   14  A    between atoms: C23_36  and  C24_37 
ROOT
HETATM    1  C10 UNL     1      19.402  29.516  15.005  1.00  0.00     0.282 C 
HETATM    2  O3  UNL     1      20.346  28.925  15.635  1.00  0.00    -0.263 OA
ENDROOT
BRANCH   1   3
HETATM    3  O2  UNL     1      18.425  28.687  14.518  1.00  0.00    -0.310 OA
BRANCH   3   4
HETATM    4  C9  UNL     1      18.007  28.807  13.160  1.00  0.00     0.281 C 
BRANCH   4   5
HETATM    5  C8  UNL     1      18.581  27.710  12.341  1.00  0.00     0.244 C 
HETATM    6  N3  UNL     1      19.878  27.813  11.715  1.00  0.00    -0.350 N 
HETATM    7  C7  UNL     1      20.561  29.061  11.837  1.00  0.00     0.126 C 
HETATM    8  C27 UNL     1      20.355  26.619  11.055  1.00  0.00     0.132 C 
HETATM    9  C6  UNL     1      22.012  28.997  11.447  1.00  0.00     0.027 C 
HETATM   10  C5  UNL     1      22.506  27.599  11.660  1.00  0.00     0.025 C 
HETATM   11  C4  UNL     1      23.936  27.376  11.225  1.00  0.00     0.190 C 
HETATM   12  C28 UNL     1      21.773  26.718  10.643  1.00  0.00     0.032 C 
HETATM   13  C3  UNL     1      23.966  25.845  11.085  1.00  0.00     0.058 C 
HETATM   14  C2  UNL     1      22.555  25.425  10.733  1.00  0.00     0.084 C 
HETATM   15  O1  UNL     1      17.865  26.660  12.220  1.00  0.00    -0.271 OA
BRANCH  11  16
HETATM   16  N2  UNL     1      24.779  27.840  12.289  1.00  0.00    -0.075 N 
ATOM     17  H23 UNL     1      24.389  27.597  13.200  1.00  0.00     0.274 HD
ATOM     18  H22 UNL     1      25.645  27.303  12.334  1.00  0.00     0.274 HD
ATOM     19  H21 UNL     1      24.968  28.839  12.223  1.00  0.00     0.274 HD
ENDBRANCH  11  16
BRANCH  14  20
HETATM   20  N1  UNL     1      22.563  24.800   9.452  1.00  0.00    -0.421 N 
HETATM   21  C1  UNL     1      23.405  25.411   8.471  1.00  0.00     0.140 C 
ATOM     22  H1  UNL     1      22.005  23.971   9.248  1.00  0.00     0.153 HD
ENDBRANCH  14  20
ENDBRANCH   4   5
ENDBRANCH   3   4
ENDBRANCH   1   3
BRANCH   1  23
HETATM   23  C11 UNL     1      19.494  30.970  14.891  1.00  0.00     0.184 C 
BRANCH  23  24
HETATM   24  C12 UNL     1      18.532  31.777  15.680  1.00  0.00     0.040 C 
BRANCH  24  25
HETATM   25  C13 UNL     1      17.429  32.398  14.879  1.00  0.00    -0.012 C 
HETATM   26  C14 UNL     1      17.583  33.877  14.647  1.00  0.00     0.005 C 
HETATM   27  C15 UNL     1      17.388  34.694  15.885  1.00  0.00     0.000 C 
HETATM   28  C16 UNL     1      15.943  34.458  16.348  1.00  0.00     0.000 C 
HETATM   29  C17 UNL     1      15.850  33.001  16.726  1.00  0.00     0.000 C 
HETATM   30  C18 UNL     1      16.074  32.108  15.537  1.00  0.00     0.005 C 
ENDBRANCH  24  25
ENDBRANCH  23  24
BRANCH  23  31
HETATM   31  N4  UNL     1      20.868  31.377  15.159  1.00  0.00    -0.347 N 
HETATM   32  C19 UNL     1      21.589  32.121  14.214  1.00  0.00     0.218 C 
HETATM   33  O4  UNL     1      21.084  32.456  13.115  1.00  0.00    -0.274 OA
ATOM     34  H4  UNL     1      21.310  31.117  16.042  1.00  0.00     0.163 HD
BRANCH  32  35
HETATM   35  C20 UNL     1      22.990  32.526  14.526  1.00  0.00     0.103 C 
BRANCH  35  36
HETATM   36  C21 UNL     1      23.114  32.748  16.009  1.00  0.00     0.009 C 
BRANCH  36  37
HETATM   37  C22 UNL     1      22.628  34.140  16.413  1.00  0.00     0.002 C 
BRANCH  37  38
HETATM   38  C23 UNL     1      21.686  34.008  17.558  1.00  0.00     0.016 C 
BRANCH  38  39
HETATM   39  C24 UNL     1      21.631  35.194  18.465  1.00  0.00     0.059 C 
HETATM   40  C25 UNL     1      22.140  36.401  17.754  1.00  0.00     0.027 C 
HETATM   41  C26 UNL     1      22.147  37.550  18.762  1.00  0.00     0.087 C 
HETATM   42  S1  UNL     1      20.340  37.768  19.095  1.00  0.00    -0.097 SA
HETATM   43  S2  UNL     1      19.881  35.665  18.821  1.00  0.00    -0.093 SA
ENDBRANCH  38  39
ENDBRANCH  37  38
ENDBRANCH  36  37
ENDBRANCH  35  36
ENDBRANCH  32  35
ENDBRANCH  23  31
ENDBRANCH   1  23
TORSDOF 14
ENDMDL
