MODEL 1
REMARK VINA RESULT: -8.969472561      0.000      0.000
REMARK  15 active torsions:
REMARK  status: ('A' for Active; 'I' for Inactive)
REMARK    1  A    between atoms: C2_2  and  C3_3 
REMARK    2  A    between atoms: C3_3  and  C4_4 
REMARK    3  A    between atoms: C4_4  and  O1_7 
REMARK    4  A    between atoms: O1_7  and  C7_8 
REMARK       I    between atoms: C7_8  and  N1_10 
REMARK    5  A    between atoms: N1_10  and  C8_12 
REMARK    6  A    between atoms: C8_12  and  C10_14 
REMARK    7  A    between atoms: C10_14  and  C11_16 
REMARK    8  A    between atoms: C11_16  and  C12_17 
REMARK    9  A    between atoms: C11_16  and  N2_20 
REMARK   10  A    between atoms: C17_23  and  C18_24 
REMARK   11  A    between atoms: C18_24  and  N3_26 
REMARK   12  A    between atoms: N3_26  and  C20_28 
REMARK   13  A    between atoms: C20_28  and  C21_29 
REMARK   14  A    between atoms: C21_29  and  O4_32 
REMARK   15  A    between atoms: O4_32  and  C24_33 
REMARK       I    between atoms: C24_33  and  N4_35 
ROOT
HETATM    1  N2  UNL     1      20.347  32.000  15.401  1.00  0.00    -0.401 N 
HETATM    2  C15 UNL     1      19.701  31.153  16.279  1.00  0.00     0.118 C 
HETATM    3  C16 UNL     1      18.389  30.652  15.603  1.00  0.00     0.026 C 
HETATM    4  C17 UNL     1      18.677  30.439  14.157  1.00  0.00     0.010 C 
HETATM    5  C30 UNL     1      18.847  31.804  13.473  1.00  0.00     0.026 C 
HETATM    6  C31 UNL     1      19.417  32.713  14.539  1.00  0.00     0.118 C 
ENDROOT
BRANCH   1   7
HETATM    7  C11 UNL     1      21.465  32.784  15.729  1.00  0.00     0.154 C 
BRANCH   7   8
HETATM    8  C10 UNL     1      21.533  33.465  17.016  1.00  0.00     0.171 C 
HETATM    9  O3  UNL     1      22.171  32.779  17.865  1.00  0.00    -0.293 OA
BRANCH   8  10
HETATM   10  C8  UNL     1      21.070  34.700  17.573  1.00  0.00     0.154 C 
HETATM   11  C9  UNL     1      21.580  35.967  16.906  1.00  0.00     0.040 C 
BRANCH  10  12
HETATM   12  N1  UNL     1      19.611  34.820  17.343  1.00  0.00    -0.326 N 
HETATM   13  C7  UNL     1      18.693  35.004  18.410  1.00  0.00     0.361 C 
HETATM   14  O2  UNL     1      19.091  35.077  19.613  1.00  0.00    -0.238 OA
ATOM     15  H1  UNL     1      19.256  34.769  16.388  1.00  0.00     0.165 HD
BRANCH  13  16
HETATM   16  O1  UNL     1      17.400  35.124  18.387  1.00  0.00    -0.294 OA
BRANCH  16  17
HETATM   17  C4  UNL     1      16.188  35.325  18.052  1.00  0.00     0.065 C 
HETATM   18  C5  UNL     1      15.599  36.437  18.987  1.00  0.00     0.046 C 
HETATM   19  C6  UNL     1      16.383  36.287  16.763  1.00  0.00     0.046 C 
BRANCH  17  20
HETATM   20  C3  UNL     1      15.075  34.489  17.669  1.00  0.00     0.037 C 
BRANCH  20  21
HETATM   21  C2  UNL     1      15.285  33.081  17.214  1.00  0.00    -0.002 C 
HETATM   22  C1  UNL     1      15.654  32.860  15.792  1.00  0.00     0.005 C 
ENDBRANCH  20  21
ENDBRANCH  17  20
ENDBRANCH  16  17
ENDBRANCH  13  16
ENDBRANCH  10  12
ENDBRANCH   8  10
ENDBRANCH   7   8
BRANCH   7  23
HETATM   23  C12 UNL     1      22.736  32.048  15.354  1.00  0.00     0.007 C 
HETATM   24  C13 UNL     1      22.418  31.199  14.151  1.00  0.00     0.012 C 
HETATM   25  C14 UNL     1      23.747  33.095  14.871  1.00  0.00     0.012 C 
ENDBRANCH   7  23
ENDBRANCH   1   7
BRANCH   4  26
HETATM   26  C18 UNL     1      17.901  29.461  13.394  1.00  0.00     0.076 C 
HETATM   27  C19 UNL     1      17.910  28.156  14.266  1.00  0.00     0.032 C 
BRANCH  26  28
HETATM   28  N3  UNL     1      18.370  29.053  12.141  1.00  0.00    -0.414 N 
ATOM     29  H3  UNL     1      19.352  29.205  11.911  1.00  0.00     0.153 HD
BRANCH  28  30
HETATM   30  C20 UNL     1      17.541  28.442  11.187  1.00  0.00     0.152 C 
BRANCH  30  31
HETATM   31  C21 UNL     1      18.250  27.214  10.598  1.00  0.00     0.080 C 
HETATM   32  C22 UNL     1      17.456  26.807   9.386  1.00  0.00     0.048 C 
HETATM   33  C23 UNL     1      18.121  26.100  11.630  1.00  0.00     0.048 C 
BRANCH  31  34
HETATM   34  O4  UNL     1      19.597  27.408  10.350  1.00  0.00    -0.292 OA
BRANCH  34  35
HETATM   35  C24 UNL     1      20.601  26.458  10.323  1.00  0.00     0.363 C 
HETATM   36  O5  UNL     1      20.503  25.534   9.478  1.00  0.00    -0.238 OA
HETATM   37  N4  UNL     1      21.727  26.514  11.224  1.00  0.00    -0.328 N 
HETATM   38  C25 UNL     1      21.867  27.549  12.203  1.00  0.00     0.128 C 
HETATM   39  C29 UNL     1      22.732  25.485  11.121  1.00  0.00     0.128 C 
HETATM   40  C26 UNL     1      23.200  28.218  12.033  1.00  0.00     0.020 C 
HETATM   41  C27 UNL     1      24.339  27.238  11.967  1.00  0.00     0.003 C 
HETATM   42  C28 UNL     1      24.083  26.111  11.017  1.00  0.00     0.020 C 
ENDBRANCH  34  35
ENDBRANCH  31  34
ENDBRANCH  30  31
ENDBRANCH  28  30
ENDBRANCH  26  28
ENDBRANCH   4  26
TORSDOF 15
ENDMDL
MODEL 2
REMARK VINA RESULT: -8.826394262      0.558      1.431
REMARK  15 active torsions:
REMARK  status: ('A' for Active; 'I' for Inactive)
REMARK    1  A    between atoms: C2_2  and  C3_3 
REMARK    2  A    between atoms: C3_3  and  C4_4 
REMARK    3  A    between atoms: C4_4  and  O1_7 
REMARK    4  A    between atoms: O1_7  and  C7_8 
REMARK       I    between atoms: C7_8  and  N1_10 
REMARK    5  A    between atoms: N1_10  and  C8_12 
REMARK    6  A    between atoms: C8_12  and  C10_14 
REMARK    7  A    between atoms: C10_14  and  C11_16 
REMARK    8  A    between atoms: C11_16  and  C12_17 
REMARK    9  A    between atoms: C11_16  and  N2_20 
REMARK   10  A    between atoms: C17_23  and  C18_24 
REMARK   11  A    between atoms: C18_24  and  N3_26 
REMARK   12  A    between atoms: N3_26  and  C20_28 
REMARK   13  A    between atoms: C20_28  and  C21_29 
REMARK   14  A    between atoms: C21_29  and  O4_32 
REMARK   15  A    between atoms: O4_32  and  C24_33 
REMARK       I    between atoms: C24_33  and  N4_35 
ROOT
HETATM    1  N2  UNL     1      20.355  32.105  15.390  1.00  0.00    -0.401 N 
HETATM    2  C15 UNL     1      19.617  31.348  16.277  1.00  0.00     0.118 C 
HETATM    3  C16 UNL     1      18.324  30.866  15.553  1.00  0.00     0.026 C 
HETATM    4  C17 UNL     1      18.686  30.545  14.144  1.00  0.00     0.010 C 
HETATM    5  C30 UNL     1      18.964  31.852  13.389  1.00  0.00     0.026 C 
HETATM    6  C31 UNL     1      19.515  32.802  14.428  1.00  0.00     0.118 C 
ENDROOT
BRANCH   1   7
HETATM    7  C11 UNL     1      21.490  32.856  15.737  1.00  0.00     0.154 C 
BRANCH   7   8
HETATM    8  C10 UNL     1      21.547  33.554  17.016  1.00  0.00     0.171 C 
HETATM    9  O3  UNL     1      22.244  32.916  17.856  1.00  0.00    -0.293 OA
BRANCH   8  10
HETATM   10  C8  UNL     1      21.025  34.766  17.571  1.00  0.00     0.154 C 
HETATM   11  C9  UNL     1      21.610  36.058  17.027  1.00  0.00     0.040 C 
BRANCH  10  12
HETATM   12  N1  UNL     1      19.602  34.906  17.180  1.00  0.00    -0.326 N 
HETATM   13  C7  UNL     1      18.554  34.917  18.137  1.00  0.00     0.361 C 
HETATM   14  O2  UNL     1      18.799  34.809  19.378  1.00  0.00    -0.238 OA
ATOM     15  H1  UNL     1      19.369  34.997  16.191  1.00  0.00     0.165 HD
BRANCH  13  16
HETATM   16  O1  UNL     1      17.271  35.027  17.970  1.00  0.00    -0.294 OA
BRANCH  16  17
HETATM   17  C4  UNL     1      16.105  35.347  17.573  1.00  0.00     0.065 C 
HETATM   18  C5  UNL     1      16.033  35.111  16.024  1.00  0.00     0.046 C 
HETATM   19  C6  UNL     1      15.270  34.019  17.977  1.00  0.00     0.046 C 
BRANCH  17  20
HETATM   20  C3  UNL     1      15.177  36.415  17.861  1.00  0.00     0.037 C 
BRANCH  20  21
HETATM   21  C2  UNL     1      15.656  37.752  18.327  1.00  0.00    -0.002 C 
HETATM   22  C1  UNL     1      16.664  38.456  17.494  1.00  0.00     0.005 C 
ENDBRANCH  20  21
ENDBRANCH  17  20
ENDBRANCH  16  17
ENDBRANCH  13  16
ENDBRANCH  10  12
ENDBRANCH   8  10
ENDBRANCH   7   8
BRANCH   7  23
HETATM   23  C12 UNL     1      22.745  32.073  15.407  1.00  0.00     0.007 C 
HETATM   24  C13 UNL     1      22.411  31.167  14.250  1.00  0.00     0.012 C 
HETATM   25  C14 UNL     1      23.780  33.069  14.872  1.00  0.00     0.012 C 
ENDBRANCH   7  23
ENDBRANCH   1   7
BRANCH   4  26
HETATM   26  C18 UNL     1      17.909  29.556  13.398  1.00  0.00     0.076 C 
HETATM   27  C19 UNL     1      17.922  28.262  14.287  1.00  0.00     0.032 C 
BRANCH  26  28
HETATM   28  N3  UNL     1      18.373  29.132  12.148  1.00  0.00    -0.414 N 
ATOM     29  H3  UNL     1      19.354  29.281  11.913  1.00  0.00     0.153 HD
BRANCH  28  30
HETATM   30  C20 UNL     1      17.540  28.509  11.205  1.00  0.00     0.152 C 
BRANCH  30  31
HETATM   31  C21 UNL     1      18.252  27.279  10.622  1.00  0.00     0.080 C 
HETATM   32  C22 UNL     1      17.470  26.878   9.399  1.00  0.00     0.048 C 
HETATM   33  C23 UNL     1      18.107  26.164  11.650  1.00  0.00     0.048 C 
BRANCH  31  34
HETATM   34  O4  UNL     1      19.602  27.469  10.390  1.00  0.00    -0.292 OA
BRANCH  34  35
HETATM   35  C24 UNL     1      20.599  26.512  10.345  1.00  0.00     0.363 C 
HETATM   36  O5  UNL     1      20.490  25.601   9.488  1.00  0.00    -0.238 OA
HETATM   37  N4  UNL     1      21.728  26.546  11.243  1.00  0.00    -0.328 N 
HETATM   38  C25 UNL     1      21.880  27.565  12.236  1.00  0.00     0.128 C 
HETATM   39  C29 UNL     1      22.725  25.511  11.122  1.00  0.00     0.128 C 
HETATM   40  C26 UNL     1      23.217  28.227  12.071  1.00  0.00     0.020 C 
HETATM   41  C27 UNL     1      24.349  27.238  11.987  1.00  0.00     0.003 C 
HETATM   42  C28 UNL     1      24.080  26.127  11.022  1.00  0.00     0.020 C 
ENDBRANCH  34  35
ENDBRANCH  31  34
ENDBRANCH  30  31
ENDBRANCH  28  30
ENDBRANCH  26  28
ENDBRANCH   4  26
TORSDOF 15
ENDMDL
MODEL 3
REMARK VINA RESULT: -8.534310331      1.901      9.369
REMARK  15 active torsions:
REMARK  status: ('A' for Active; 'I' for Inactive)
REMARK    1  A    between atoms: C2_2  and  C3_3 
REMARK    2  A    between atoms: C3_3  and  C4_4 
REMARK    3  A    between atoms: C4_4  and  O1_7 
REMARK    4  A    between atoms: O1_7  and  C7_8 
REMARK       I    between atoms: C7_8  and  N1_10 
REMARK    5  A    between atoms: N1_10  and  C8_12 
REMARK    6  A    between atoms: C8_12  and  C10_14 
REMARK    7  A    between atoms: C10_14  and  C11_16 
REMARK    8  A    between atoms: C11_16  and  C12_17 
REMARK    9  A    between atoms: C11_16  and  N2_20 
REMARK   10  A    between atoms: C17_23  and  C18_24 
REMARK   11  A    between atoms: C18_24  and  N3_26 
REMARK   12  A    between atoms: N3_26  and  C20_28 
REMARK   13  A    between atoms: C20_28  and  C21_29 
REMARK   14  A    between atoms: C21_29  and  O4_32 
REMARK   15  A    between atoms: O4_32  and  C24_33 
REMARK       I    between atoms: C24_33  and  N4_35 
ROOT
HETATM    1  N2  UNL     1      19.729  32.160  14.803  1.00  0.00    -0.401 N 
HETATM    2  C15 UNL     1      18.749  32.637  13.957  1.00  0.00     0.118 C 
HETATM    3  C16 UNL     1      17.370  32.491  14.670  1.00  0.00     0.026 C 
HETATM    4  C17 UNL     1      17.572  32.797  16.113  1.00  0.00     0.010 C 
HETATM    5  C30 UNL     1      18.353  31.646  16.765  1.00  0.00     0.026 C 
HETATM    6  C31 UNL     1      19.240  31.098  15.670  1.00  0.00     0.118 C 
ENDROOT
BRANCH   1   7
HETATM    7  C11 UNL     1      21.070  31.962  14.436  1.00  0.00     0.154 C 
BRANCH   7   8
HETATM    8  C10 UNL     1      21.404  31.112  13.301  1.00  0.00     0.171 C 
HETATM    9  O3  UNL     1      21.366  31.760  12.215  1.00  0.00    -0.293 OA
BRANCH   8  10
HETATM   10  C8  UNL     1      21.762  29.742  13.088  1.00  0.00     0.154 C 
HETATM   11  C9  UNL     1      21.977  28.905  14.337  1.00  0.00     0.040 C 
BRANCH  10  12
HETATM   12  N1  UNL     1      20.622  29.035  12.458  1.00  0.00    -0.326 N 
HETATM   13  C7  UNL     1      20.802  28.113  11.394  1.00  0.00     0.361 C 
HETATM   14  O2  UNL     1      21.958  27.855  10.938  1.00  0.00    -0.238 OA
ATOM     15  H1  UNL     1      19.678  29.216  12.801  1.00  0.00     0.165 HD
BRANCH  13  16
HETATM   16  O1  UNL     1      19.926  27.416  10.735  1.00  0.00    -0.294 OA
BRANCH  16  17
HETATM   17  C4  UNL     1      18.856  26.902  10.276  1.00  0.00     0.065 C 
HETATM   18  C5  UNL     1      19.247  25.886   9.147  1.00  0.00     0.046 C 
HETATM   19  C6  UNL     1      18.549  25.779  11.402  1.00  0.00     0.046 C 
BRANCH  17  20
HETATM   20  C3  UNL     1      17.541  27.393   9.939  1.00  0.00     0.037 C 
BRANCH  20  21
HETATM   21  C2  UNL     1      17.134  28.796  10.255  1.00  0.00    -0.002 C 
HETATM   22  C1  UNL     1      17.066  29.192  11.684  1.00  0.00     0.005 C 
ENDBRANCH  20  21
ENDBRANCH  17  20
ENDBRANCH  16  17
ENDBRANCH  13  16
ENDBRANCH  10  12
ENDBRANCH   8  10
ENDBRANCH   7   8
BRANCH   7  23
HETATM   23  C12 UNL     1      21.808  33.286  14.451  1.00  0.00     0.007 C 
HETATM   24  C13 UNL     1      21.274  34.078  15.617  1.00  0.00     0.012 C 
HETATM   25  C14 UNL     1      23.275  32.991  14.784  1.00  0.00     0.012 C 
ENDBRANCH   7  23
ENDBRANCH   1   7
BRANCH   4  26
HETATM   26  C18 UNL     1      16.463  33.318  16.912  1.00  0.00     0.076 C 
HETATM   27  C19 UNL     1      15.215  32.463  16.491  1.00  0.00     0.032 C 
BRANCH  26  28
HETATM   28  N3  UNL     1      16.061  34.645  16.730  1.00  0.00    -0.414 N 
ATOM     29  H3  UNL     1      15.066  34.848  16.637  1.00  0.00     0.153 HD
BRANCH  28  30
HETATM   30  C20 UNL     1      16.975  35.709  16.671  1.00  0.00     0.152 C 
BRANCH  30  31
HETATM   31  C21 UNL     1      16.612  36.761  17.730  1.00  0.00     0.080 C 
HETATM   32  C22 UNL     1      15.139  36.600  17.998  1.00  0.00     0.048 C 
HETATM   33  C23 UNL     1      16.817  38.123  17.079  1.00  0.00     0.048 C 
BRANCH  31  34
HETATM   34  O4  UNL     1      17.400  36.710  18.865  1.00  0.00    -0.292 OA
BRANCH  34  35
HETATM   35  C24 UNL     1      18.552  35.974  19.067  1.00  0.00     0.363 C 
HETATM   36  O5  UNL     1      18.430  34.732  19.214  1.00  0.00    -0.238 OA
HETATM   37  N4  UNL     1      19.854  36.594  19.108  1.00  0.00    -0.328 N 
HETATM   38  C25 UNL     1      20.030  38.006  18.952  1.00  0.00     0.128 C 
HETATM   39  C29 UNL     1      21.004  35.748  19.317  1.00  0.00     0.128 C 
HETATM   40  C26 UNL     1      21.004  38.266  17.840  1.00  0.00     0.020 C 
HETATM   41  C27 UNL     1      22.275  37.473  17.982  1.00  0.00     0.003 C 
HETATM   42  C28 UNL     1      22.028  36.025  18.267  1.00  0.00     0.020 C 
ENDBRANCH  34  35
ENDBRANCH  31  34
ENDBRANCH  30  31
ENDBRANCH  28  30
ENDBRANCH  26  28
ENDBRANCH   4  26
TORSDOF 15
ENDMDL
MODEL 4
REMARK VINA RESULT: -8.375678767      2.173     10.358
REMARK  15 active torsions:
REMARK  status: ('A' for Active; 'I' for Inactive)
REMARK    1  A    between atoms: C2_2  and  C3_3 
REMARK    2  A    between atoms: C3_3  and  C4_4 
REMARK    3  A    between atoms: C4_4  and  O1_7 
REMARK    4  A    between atoms: O1_7  and  C7_8 
REMARK       I    between atoms: C7_8  and  N1_10 
REMARK    5  A    between atoms: N1_10  and  C8_12 
REMARK    6  A    between atoms: C8_12  and  C10_14 
REMARK    7  A    between atoms: C10_14  and  C11_16 
REMARK    8  A    between atoms: C11_16  and  C12_17 
REMARK    9  A    between atoms: C11_16  and  N2_20 
REMARK   10  A    between atoms: C17_23  and  C18_24 
REMARK   11  A    between atoms: C18_24  and  N3_26 
REMARK   12  A    between atoms: N3_26  and  C20_28 
REMARK   13  A    between atoms: C20_28  and  C21_29 
REMARK   14  A    between atoms: C21_29  and  O4_32 
REMARK   15  A    between atoms: O4_32  and  C24_33 
REMARK       I    between atoms: C24_33  and  N4_35 
ROOT
HETATM    1  N2  UNL     1      20.031  32.047  14.628  1.00  0.00    -0.401 N 
HETATM    2  C15 UNL     1      20.231  31.525  15.890  1.00  0.00     0.118 C 
HETATM    3  C16 UNL     1      21.537  32.142  16.476  1.00  0.00     0.026 C 
HETATM    4  C17 UNL     1      21.597  33.567  16.045  1.00  0.00     0.010 C 
HETATM    5  C30 UNL     1      21.905  33.623  14.542  1.00  0.00     0.026 C 
HETATM    6  C31 UNL     1      21.283  32.373  13.962  1.00  0.00     0.118 C 
ENDROOT
BRANCH   1   7
HETATM    7  C11 UNL     1      19.059  31.591  13.723  1.00  0.00     0.154 C 
BRANCH   7   8
HETATM    8  C10 UNL     1      19.065  30.204  13.275  1.00  0.00     0.171 C 
HETATM    9  O3  UNL     1      18.660  30.105  12.081  1.00  0.00    -0.293 OA
BRANCH   8  10
HETATM   10  C8  UNL     1      19.407  28.927  13.826  1.00  0.00     0.154 C 
HETATM   11  C9  UNL     1      18.295  27.892  13.858  1.00  0.00     0.040 C 
BRANCH  10  12
HETATM   12  N1  UNL     1      20.393  28.264  12.941  1.00  0.00    -0.326 N 
HETATM   13  C7  UNL     1      21.793  28.391  13.144  1.00  0.00     0.361 C 
HETATM   14  O2  UNL     1      22.257  29.081  14.103  1.00  0.00    -0.238 OA
ATOM     15  H1  UNL     1      20.056  27.699  12.162  1.00  0.00     0.165 HD
BRANCH  13  16
HETATM   16  O1  UNL     1      22.783  27.886  12.472  1.00  0.00    -0.294 OA
BRANCH  16  17
HETATM   17  C4  UNL     1      23.511  27.277  11.624  1.00  0.00     0.065 C 
HETATM   18  C5  UNL     1      23.745  28.233  10.404  1.00  0.00     0.046 C 
HETATM   19  C6  UNL     1      24.979  27.488  12.276  1.00  0.00     0.046 C 
BRANCH  17  20
HETATM   20  C3  UNL     1      23.577  25.933  11.102  1.00  0.00     0.037 C 
BRANCH  20  21
HETATM   21  C2  UNL     1      22.449  25.352  10.313  1.00  0.00    -0.002 C 
HETATM   22  C1  UNL     1      21.115  25.281  10.961  1.00  0.00     0.005 C 
ENDBRANCH  20  21
ENDBRANCH  17  20
ENDBRANCH  16  17
ENDBRANCH  13  16
ENDBRANCH  10  12
ENDBRANCH   8  10
ENDBRANCH   7   8
BRANCH   7  23
HETATM   23  C12 UNL     1      17.692  32.097  14.138  1.00  0.00     0.007 C 
HETATM   24  C13 UNL     1      17.354  31.436  15.450  1.00  0.00     0.012 C 
HETATM   25  C14 UNL     1      17.831  33.592  14.448  1.00  0.00     0.012 C 
ENDBRANCH   7  23
ENDBRANCH   1   7
BRANCH   4  26
HETATM   26  C18 UNL     1      22.319  34.546  16.858  1.00  0.00     0.076 C 
HETATM   27  C19 UNL     1      22.023  34.145  18.347  1.00  0.00     0.032 C 
BRANCH  26  28
HETATM   28  N3  UNL     1      21.958  35.895  16.776  1.00  0.00    -0.414 N 
ATOM     29  H3  UNL     1      21.371  36.198  15.999  1.00  0.00     0.153 HD
BRANCH  28  30
HETATM   30  C20 UNL     1      22.372  36.846  17.720  1.00  0.00     0.152 C 
BRANCH  30  31
HETATM   31  C21 UNL     1      21.176  37.715  18.136  1.00  0.00     0.080 C 
HETATM   32  C22 UNL     1      21.572  39.141  17.860  1.00  0.00     0.048 C 
HETATM   33  C23 UNL     1      21.029  37.561  19.644  1.00  0.00     0.048 C 
BRANCH  31  34
HETATM   34  O4  UNL     1      19.980  37.340  17.552  1.00  0.00    -0.292 OA
BRANCH  34  35
HETATM   35  C24 UNL     1      18.699  37.665  17.957  1.00  0.00     0.363 C 
HETATM   36  O5  UNL     1      18.345  38.866  17.856  1.00  0.00    -0.238 OA
HETATM   37  N4  UNL     1      17.789  36.673  18.477  1.00  0.00    -0.328 N 
HETATM   38  C25 UNL     1      18.161  35.297  18.613  1.00  0.00     0.128 C 
HETATM   39  C29 UNL     1      16.469  37.099  18.870  1.00  0.00     0.128 C 
HETATM   40  C26 UNL     1      17.163  34.438  17.892  1.00  0.00     0.020 C 
HETATM   41  C27 UNL     1      15.742  34.759  18.266  1.00  0.00     0.003 C 
HETATM   42  C28 UNL     1      15.446  36.225  18.225  1.00  0.00     0.020 C 
ENDBRANCH  34  35
ENDBRANCH  31  34
ENDBRANCH  30  31
ENDBRANCH  28  30
ENDBRANCH  26  28
ENDBRANCH   4  26
TORSDOF 15
ENDMDL
MODEL 5
REMARK VINA RESULT: -8.358630399      2.118      9.639
REMARK  15 active torsions:
REMARK  status: ('A' for Active; 'I' for Inactive)
REMARK    1  A    between atoms: C2_2  and  C3_3 
REMARK    2  A    between atoms: C3_3  and  C4_4 
REMARK    3  A    between atoms: C4_4  and  O1_7 
REMARK    4  A    between atoms: O1_7  and  C7_8 
REMARK       I    between atoms: C7_8  and  N1_10 
REMARK    5  A    between atoms: N1_10  and  C8_12 
REMARK    6  A    between atoms: C8_12  and  C10_14 
REMARK    7  A    between atoms: C10_14  and  C11_16 
REMARK    8  A    between atoms: C11_16  and  C12_17 
REMARK    9  A    between atoms: C11_16  and  N2_20 
REMARK   10  A    between atoms: C17_23  and  C18_24 
REMARK   11  A    between atoms: C18_24  and  N3_26 
REMARK   12  A    between atoms: N3_26  and  C20_28 
REMARK   13  A    between atoms: C20_28  and  C21_29 
REMARK   14  A    between atoms: C21_29  and  O4_32 
REMARK   15  A    between atoms: O4_32  and  C24_33 
REMARK       I    between atoms: C24_33  and  N4_35 
ROOT
HETATM    1  N2  UNL     1      19.816  32.285  14.880  1.00  0.00    -0.401 N 
HETATM    2  C15 UNL     1      18.881  32.895  14.069  1.00  0.00     0.118 C 
HETATM    3  C16 UNL     1      17.490  32.801  14.766  1.00  0.00     0.026 C 
HETATM    4  C17 UNL     1      17.703  32.984  16.229  1.00  0.00     0.010 C 
HETATM    5  C30 UNL     1      18.391  31.733  16.796  1.00  0.00     0.026 C 
HETATM    6  C31 UNL     1      19.242  31.202  15.665  1.00  0.00     0.118 C 
ENDROOT
BRANCH   1   7
HETATM    7  C11 UNL     1      21.142  32.014  14.503  1.00  0.00     0.154 C 
BRANCH   7   8
HETATM    8  C10 UNL     1      21.419  31.206  13.322  1.00  0.00     0.171 C 
HETATM    9  O3  UNL     1      21.320  31.891  12.263  1.00  0.00    -0.293 OA
BRANCH   8  10
HETATM   10  C8  UNL     1      21.771  29.847  13.042  1.00  0.00     0.154 C 
HETATM   11  C9  UNL     1      21.981  28.948  14.249  1.00  0.00     0.040 C 
BRANCH  10  12
HETATM   12  N1  UNL     1      20.630  29.176  12.377  1.00  0.00    -0.326 N 
HETATM   13  C7  UNL     1      20.816  28.153  11.410  1.00  0.00     0.361 C 
HETATM   14  O2  UNL     1      21.979  27.769  11.077  1.00  0.00    -0.238 OA
ATOM     15  H1  UNL     1      19.680  29.457  12.622  1.00  0.00     0.165 HD
BRANCH  13  16
HETATM   16  O1  UNL     1      19.939  27.470  10.737  1.00  0.00    -0.294 OA
BRANCH  16  17
HETATM   17  C4  UNL     1      18.873  26.934  10.295  1.00  0.00     0.065 C 
HETATM   18  C5  UNL     1      19.265  25.934   9.153  1.00  0.00     0.046 C 
HETATM   19  C6  UNL     1      18.614  25.798  11.421  1.00  0.00     0.046 C 
BRANCH  17  20
HETATM   20  C3  UNL     1      17.540  27.396   9.987  1.00  0.00     0.037 C 
BRANCH  20  21
HETATM   21  C2  UNL     1      17.122  28.802  10.276  1.00  0.00    -0.002 C 
HETATM   22  C1  UNL     1      17.025  29.217  11.698  1.00  0.00     0.005 C 
ENDBRANCH  20  21
ENDBRANCH  17  20
ENDBRANCH  16  17
ENDBRANCH  13  16
ENDBRANCH  10  12
ENDBRANCH   8  10
ENDBRANCH   7   8
BRANCH   7  23
HETATM   23  C12 UNL     1      21.970  33.280  14.590  1.00  0.00     0.007 C 
HETATM   24  C13 UNL     1      21.623  33.947  15.896  1.00  0.00     0.012 C 
HETATM   25  C14 UNL     1      23.439  32.860  14.713  1.00  0.00     0.012 C 
ENDBRANCH   7  23
ENDBRANCH   1   7
BRANCH   4  26
HETATM   26  C18 UNL     1      16.630  33.527  17.062  1.00  0.00     0.076 C 
HETATM   27  C19 UNL     1      15.516  33.984  16.054  1.00  0.00     0.032 C 
BRANCH  26  28
HETATM   28  N3  UNL     1      16.885  34.657  17.845  1.00  0.00    -0.414 N 
ATOM     29  H3  UNL     1      16.632  34.636  18.833  1.00  0.00     0.153 HD
BRANCH  28  30
HETATM   30  C20 UNL     1      17.473  35.820  17.324  1.00  0.00     0.152 C 
BRANCH  30  31
HETATM   31  C21 UNL     1      17.051  37.034  18.166  1.00  0.00     0.080 C 
HETATM   32  C22 UNL     1      15.779  36.639  18.869  1.00  0.00     0.048 C 
HETATM   33  C23 UNL     1      16.710  38.147  17.183  1.00  0.00     0.048 C 
BRANCH  31  34
HETATM   34  O4  UNL     1      18.040  37.502  19.011  1.00  0.00    -0.292 OA
BRANCH  34  35
HETATM   35  C24 UNL     1      19.345  37.830  18.692  1.00  0.00     0.363 C 
HETATM   36  O5  UNL     1      19.548  38.944  18.151  1.00  0.00    -0.238 OA
HETATM   37  N4  UNL     1      20.443  36.935  18.966  1.00  0.00    -0.328 N 
HETATM   38  C25 UNL     1      20.247  35.654  19.575  1.00  0.00     0.128 C 
HETATM   39  C29 UNL     1      21.773  37.360  18.605  1.00  0.00     0.128 C 
HETATM   40  C26 UNL     1      21.115  35.545  20.795  1.00  0.00     0.020 C 
HETATM   41  C27 UNL     1      22.548  35.915  20.524  1.00  0.00     0.003 C 
HETATM   42  C28 UNL     1      22.685  37.203  19.776  1.00  0.00     0.020 C 
ENDBRANCH  34  35
ENDBRANCH  31  34
ENDBRANCH  30  31
ENDBRANCH  28  30
ENDBRANCH  26  28
ENDBRANCH   4  26
TORSDOF 15
ENDMDL
