MODEL 1
REMARK VINA RESULT: -7.080074975      0.000      0.000
REMARK  14 active torsions:
REMARK  status: ('A' for Active; 'I' for Inactive)
REMARK    1  A    between atoms: C2_2  and  C4_4 
REMARK    2  A    between atoms: C6_6  and  O1_7 
REMARK    3  A    between atoms: C9_10  and  O2_11 
REMARK    4  A    between atoms: C12_14  and  C13_15 
REMARK    5  A    between atoms: C13_15  and  O3_18 
REMARK    6  A    between atoms: C16_20  and  N1_21 
REMARK       I    between atoms: N1_21  and  C17_23 
REMARK    7  A    between atoms: C17_23  and  C18_25 
REMARK    8  A    between atoms: C18_25  and  N2_26 
REMARK    9  A    between atoms: C18_25  and  C23_35 
REMARK       I    between atoms: N2_26  and  C19_28 
REMARK   10  A    between atoms: C19_28  and  O6_30 
REMARK   11  A    between atoms: O6_30  and  C20_31 
REMARK   12  A    between atoms: C20_31  and  C21_32 
REMARK   13  A    between atoms: C21_32  and  O7_33 
REMARK   14  A    between atoms: C29_41  and  C30_42 
ROOT
HETATM    1  C4  UNL     1      17.441  40.115  18.117  1.00  0.00     0.022 C 
HETATM    2  C5  UNL     1      18.520  40.687  18.964  1.00  0.00     0.048 C 
HETATM    3  C6  UNL     1      19.898  40.222  18.685  1.00  0.00     0.075 C 
HETATM    4  C8  UNL     1      19.826  38.673  19.027  1.00  0.00     0.073 C 
HETATM    5  C9  UNL     1      21.222  38.330  18.876  1.00  0.00     0.130 C 
HETATM    6  C11 UNL     1      21.855  39.488  19.765  1.00  0.00     0.043 C 
HETATM    7  C12 UNL     1      20.845  40.572  19.785  1.00  0.00     0.057 C 
HETATM    8  C16 UNL     1      18.724  37.952  18.407  1.00  0.00     0.098 C 
HETATM    9  C29 UNL     1      17.728  38.762  17.592  1.00  0.00     0.017 C 
ENDROOT
BRANCH   8  10
HETATM   10  N1  UNL     1      19.032  36.771  17.659  1.00  0.00    -0.354 N 
HETATM   11  C17 UNL     1      19.002  35.378  18.073  1.00  0.00     0.241 C 
HETATM   12  O4  UNL     1      18.777  35.183  19.283  1.00  0.00    -0.271 OA
ATOM     13  H1  UNL     1      19.315  36.931  16.692  1.00  0.00     0.162 HD
BRANCH  11  14
HETATM   14  C18 UNL     1      19.229  34.328  17.099  1.00  0.00     0.183 C 
BRANCH  14  15
HETATM   15  N2  UNL     1      20.128  33.250  17.134  1.00  0.00    -0.323 N 
HETATM   16  C19 UNL     1      21.259  33.336  16.180  1.00  0.00     0.361 C 
HETATM   17  O5  UNL     1      21.277  34.451  15.527  1.00  0.00    -0.238 OA
ATOM     18  H2  UNL     1      20.011  32.463  17.772  1.00  0.00     0.165 HD
BRANCH  16  19
HETATM   19  O6  UNL     1      22.184  32.458  15.921  1.00  0.00    -0.302 OA
BRANCH  19  20
HETATM   20  C20 UNL     1      22.725  31.757  14.894  1.00  0.00     0.207 C 
BRANCH  20  21
HETATM   21  C21 UNL     1      21.876  31.111  13.844  1.00  0.00     0.193 C 
BRANCH  21  22
HETATM   22  O7  UNL     1      21.377  32.119  12.971  1.00  0.00    -0.394 OA
HETATM   23  C22 UNL     1      19.992  32.108  12.896  1.00  0.00     0.201 C 
ENDBRANCH  21  22
ENDBRANCH  20  21
ENDBRANCH  19  20
ENDBRANCH  16  19
ENDBRANCH  14  15
BRANCH  14  24
HETATM   24  C23 UNL     1      17.792  33.619  16.966  1.00  0.00     0.018 C 
HETATM   25  C24 UNL     1      18.005  32.180  16.627  1.00  0.00     0.007 C 
HETATM   26  C25 UNL     1      16.752  31.564  16.041  1.00  0.00     0.000 C 
HETATM   27  C26 UNL     1      15.533  32.370  16.344  1.00  0.00     0.000 C 
HETATM   28  C27 UNL     1      15.616  33.795  15.883  1.00  0.00     0.000 C 
HETATM   29  C28 UNL     1      17.055  34.279  15.850  1.00  0.00     0.007 C 
ENDBRANCH  14  24
ENDBRANCH  11  14
ENDBRANCH   8  10
BRANCH   9  30
HETATM   30  C30 UNL     1      16.433  38.070  17.385  1.00  0.00     0.003 C 
HETATM   31  C31 UNL     1      15.966  37.025  18.343  1.00  0.00     0.005 C 
ENDBRANCH   9  30
BRANCH   3  32
HETATM   32  O1  UNL     1      20.357  40.222  17.426  1.00  0.00    -0.384 OA
HETATM   33  C7  UNL     1      20.163  41.195  16.542  1.00  0.00     0.202 C 
ENDBRANCH   3  32
BRANCH   5  34
HETATM   34  O2  UNL     1      21.814  38.446  17.636  1.00  0.00    -0.390 OA
HETATM   35  C10 UNL     1      22.518  37.337  17.228  1.00  0.00     0.202 C 
ENDBRANCH   5  34
BRANCH   1  36
HETATM   36  C2  UNL     1      16.162  40.327  18.842  1.00  0.00    -0.088 C 
HETATM   37  C1  UNL     1      15.147  40.943  18.202  1.00  0.00     0.014 C 
HETATM   38  C3  UNL     1      15.938  39.956  20.252  1.00  0.00     0.043 C 
ENDBRANCH   1  36
BRANCH   7  39
HETATM   39  C13 UNL     1      21.544  41.877  19.754  1.00  0.00     0.057 C 
HETATM   40  C14 UNL     1      22.354  41.934  21.075  1.00  0.00     0.045 C 
HETATM   41  C15 UNL     1      20.658  43.089  19.819  1.00  0.00     0.045 C 
BRANCH  39  42
HETATM   42  O3  UNL     1      22.532  41.955  18.786  1.00  0.00    -0.390 OA
ATOM     43  H3  UNL     1      23.324  41.481  19.012  1.00  0.00     0.210 HD
ENDBRANCH  39  42
ENDBRANCH   7  39
TORSDOF 14
ENDMDL
MODEL 2
REMARK VINA RESULT: -7.044802847      3.098      5.401
REMARK  14 active torsions:
REMARK  status: ('A' for Active; 'I' for Inactive)
REMARK    1  A    between atoms: C2_2  and  C4_4 
REMARK    2  A    between atoms: C6_6  and  O1_7 
REMARK    3  A    between atoms: C9_10  and  O2_11 
REMARK    4  A    between atoms: C12_14  and  C13_15 
REMARK    5  A    between atoms: C13_15  and  O3_18 
REMARK    6  A    between atoms: C16_20  and  N1_21 
REMARK       I    between atoms: N1_21  and  C17_23 
REMARK    7  A    between atoms: C17_23  and  C18_25 
REMARK    8  A    between atoms: C18_25  and  N2_26 
REMARK    9  A    between atoms: C18_25  and  C23_35 
REMARK       I    between atoms: N2_26  and  C19_28 
REMARK   10  A    between atoms: C19_28  and  O6_30 
REMARK   11  A    between atoms: O6_30  and  C20_31 
REMARK   12  A    between atoms: C20_31  and  C21_32 
REMARK   13  A    between atoms: C21_32  and  O7_33 
REMARK   14  A    between atoms: C29_41  and  C30_42 
ROOT
HETATM    1  C4  UNL     1      17.983  35.311  16.655  1.00  0.00     0.022 C 
HETATM    2  C5  UNL     1      18.919  35.597  17.774  1.00  0.00     0.048 C 
HETATM    3  C6  UNL     1      20.340  35.242  17.555  1.00  0.00     0.075 C 
HETATM    4  C8  UNL     1      20.292  33.663  17.397  1.00  0.00     0.073 C 
HETATM    5  C9  UNL     1      21.710  33.385  17.339  1.00  0.00     0.130 C 
HETATM    6  C11 UNL     1      22.172  34.215  18.616  1.00  0.00     0.043 C 
HETATM    7  C12 UNL     1      21.122  35.239  18.827  1.00  0.00     0.057 C 
HETATM    8  C16 UNL     1      19.311  33.165  16.444  1.00  0.00     0.098 C 
HETATM    9  C29 UNL     1      18.393  34.185  15.787  1.00  0.00     0.017 C 
ENDROOT
BRANCH   8  10
HETATM   10  N1  UNL     1      19.763  32.272  15.422  1.00  0.00    -0.354 N 
HETATM   11  C17 UNL     1      19.986  30.836  15.477  1.00  0.00     0.241 C 
HETATM   12  O4  UNL     1      19.869  30.319  16.605  1.00  0.00    -0.271 OA
ATOM     13  H1  UNL     1      19.957  32.706  14.519  1.00  0.00     0.162 HD
BRANCH  11  14
HETATM   14  C18 UNL     1      20.323  30.109  14.269  1.00  0.00     0.183 C 
BRANCH  14  15
HETATM   15  N2  UNL     1      21.137  28.976  14.101  1.00  0.00    -0.323 N 
HETATM   16  C19 UNL     1      22.386  29.201  13.336  1.00  0.00     0.361 C 
HETATM   17  O5  UNL     1      22.564  30.443  13.025  1.00  0.00    -0.238 OA
ATOM     18  H2  UNL     1      20.885  28.063  14.479  1.00  0.00     0.165 HD
BRANCH  16  19
HETATM   19  O6  UNL     1      23.277  28.336  12.947  1.00  0.00    -0.302 OA
BRANCH  19  20
HETATM   20  C20 UNL     1      23.901  27.887  11.829  1.00  0.00     0.207 C 
BRANCH  20  21
HETATM   21  C21 UNL     1      24.945  26.815  11.884  1.00  0.00     0.193 C 
BRANCH  21  22
HETATM   22  O7  UNL     1      24.339  25.566  11.570  1.00  0.00    -0.394 OA
HETATM   23  C22 UNL     1      23.320  25.698  10.640  1.00  0.00     0.201 C 
ENDBRANCH  21  22
ENDBRANCH  20  21
ENDBRANCH  19  20
ENDBRANCH  16  19
ENDBRANCH  14  15
BRANCH  14  24
HETATM   24  C23 UNL     1      18.895  29.636  13.703  1.00  0.00     0.018 C 
HETATM   25  C24 UNL     1      18.670  28.218  14.112  1.00  0.00     0.007 C 
HETATM   26  C25 UNL     1      17.605  27.563  13.257  1.00  0.00     0.000 C 
HETATM   27  C26 UNL     1      16.758  28.565  12.546  1.00  0.00     0.000 C 
HETATM   28  C27 UNL     1      17.534  29.516  11.684  1.00  0.00     0.000 C 
HETATM   29  C28 UNL     1      18.944  29.712  12.214  1.00  0.00     0.007 C 
ENDBRANCH  14  24
ENDBRANCH  11  14
ENDBRANCH   8  10
BRANCH   9  30
HETATM   30  C30 UNL     1      17.167  33.587  15.207  1.00  0.00     0.003 C 
HETATM   31  C31 UNL     1      16.751  32.200  15.566  1.00  0.00     0.005 C 
ENDBRANCH   9  30
BRANCH   3  32
HETATM   32  O1  UNL     1      20.957  35.630  16.430  1.00  0.00    -0.384 OA
HETATM   33  C7  UNL     1      21.125  36.891  16.047  1.00  0.00     0.202 C 
ENDBRANCH   3  32
BRANCH   5  34
HETATM   34  O2  UNL     1      22.450  33.877  16.285  1.00  0.00    -0.390 OA
HETATM   35  C10 UNL     1      23.209  32.938  15.627  1.00  0.00     0.202 C 
ENDBRANCH   5  34
BRANCH   1  36
HETATM   36  C2  UNL     1      16.614  35.287  17.230  1.00  0.00    -0.088 C 
HETATM   37  C1  UNL     1      15.725  36.219  16.828  1.00  0.00     0.014 C 
HETATM   38  C3  UNL     1      16.168  34.339  18.267  1.00  0.00     0.043 C 
ENDBRANCH   1  36
BRANCH   7  39
HETATM   39  C13 UNL     1      21.763  36.492  19.290  1.00  0.00     0.057 C 
HETATM   40  C14 UNL     1      22.470  36.119  20.619  1.00  0.00     0.045 C 
HETATM   41  C15 UNL     1      20.822  37.596  19.677  1.00  0.00     0.045 C 
BRANCH  39  42
HETATM   42  O3  UNL     1      22.815  36.905  18.489  1.00  0.00    -0.390 OA
ATOM     43  H3  UNL     1      23.655  36.544  18.748  1.00  0.00     0.210 HD
ENDBRANCH  39  42
ENDBRANCH   7  39
TORSDOF 14
ENDMDL
MODEL 3
REMARK VINA RESULT: -7.003581130      2.606      8.502
REMARK  14 active torsions:
REMARK  status: ('A' for Active; 'I' for Inactive)
REMARK    1  A    between atoms: C2_2  and  C4_4 
REMARK    2  A    between atoms: C6_6  and  O1_7 
REMARK    3  A    between atoms: C9_10  and  O2_11 
REMARK    4  A    between atoms: C12_14  and  C13_15 
REMARK    5  A    between atoms: C13_15  and  O3_18 
REMARK    6  A    between atoms: C16_20  and  N1_21 
REMARK       I    between atoms: N1_21  and  C17_23 
REMARK    7  A    between atoms: C17_23  and  C18_25 
REMARK    8  A    between atoms: C18_25  and  N2_26 
REMARK    9  A    between atoms: C18_25  and  C23_35 
REMARK       I    between atoms: N2_26  and  C19_28 
REMARK   10  A    between atoms: C19_28  and  O6_30 
REMARK   11  A    between atoms: O6_30  and  C20_31 
REMARK   12  A    between atoms: C20_31  and  C21_32 
REMARK   13  A    between atoms: C21_32  and  O7_33 
REMARK   14  A    between atoms: C29_41  and  C30_42 
ROOT
HETATM    1  C4  UNL     1      17.503  32.813  16.380  1.00  0.00     0.022 C 
HETATM    2  C5  UNL     1      18.291  32.337  15.212  1.00  0.00     0.048 C 
HETATM    3  C6  UNL     1      19.755  32.225  15.403  1.00  0.00     0.075 C 
HETATM    4  C8  UNL     1      20.196  33.728  15.666  1.00  0.00     0.073 C 
HETATM    5  C9  UNL     1      21.631  33.556  15.691  1.00  0.00     0.130 C 
HETATM    6  C11 UNL     1      21.799  32.720  14.348  1.00  0.00     0.043 C 
HETATM    7  C12 UNL     1      20.483  32.083  14.108  1.00  0.00     0.057 C 
HETATM    8  C16 UNL     1      19.427  34.430  16.683  1.00  0.00     0.098 C 
HETATM    9  C29 UNL     1      18.251  33.694  17.304  1.00  0.00     0.017 C 
ENDROOT
BRANCH   8  10
HETATM   10  N1  UNL     1      20.145  35.067  17.745  1.00  0.00    -0.354 N 
HETATM   11  C17 UNL     1      20.888  36.316  17.743  1.00  0.00     0.241 C 
HETATM   12  O4  UNL     1      21.010  36.866  16.630  1.00  0.00    -0.271 OA
ATOM     13  H1  UNL     1      20.134  34.570  18.636  1.00  0.00     0.162 HD
BRANCH  11  14
HETATM   14  C18 UNL     1      21.432  36.837  18.982  1.00  0.00     0.183 C 
BRANCH  14  15
HETATM   15  N2  UNL     1      22.668  36.582  19.597  1.00  0.00    -0.323 N 
HETATM   16  C19 UNL     1      22.597  35.858  20.888  1.00  0.00     0.361 C 
HETATM   17  O5  UNL     1      21.394  35.498  21.192  1.00  0.00    -0.238 OA
ATOM     18  H2  UNL     1      23.554  36.875  19.183  1.00  0.00     0.165 HD
BRANCH  16  19
HETATM   19  O6  UNL     1      23.554  35.569  21.721  1.00  0.00    -0.302 OA
BRANCH  19  20
HETATM   20  C20 UNL     1      24.831  35.907  22.029  1.00  0.00     0.207 C 
BRANCH  20  21
HETATM   21  C21 UNL     1      25.262  37.335  22.157  1.00  0.00     0.193 C 
BRANCH  21  22
HETATM   22  O7  UNL     1      25.299  37.682  23.537  1.00  0.00    -0.394 OA
HETATM   23  C22 UNL     1      26.378  38.497  23.843  1.00  0.00     0.201 C 
ENDBRANCH  21  22
ENDBRANCH  20  21
ENDBRANCH  19  20
ENDBRANCH  16  19
ENDBRANCH  14  15
BRANCH  14  24
HETATM   24  C23 UNL     1      21.446  38.428  18.748  1.00  0.00     0.018 C 
HETATM   25  C24 UNL     1      22.507  39.023  19.614  1.00  0.00     0.007 C 
HETATM   26  C25 UNL     1      22.287  40.508  19.807  1.00  0.00     0.000 C 
HETATM   27  C26 UNL     1      21.373  41.082  18.777  1.00  0.00     0.000 C 
HETATM   28  C27 UNL     1      20.032  40.412  18.714  1.00  0.00     0.000 C 
HETATM   29  C28 UNL     1      20.119  38.965  19.166  1.00  0.00     0.007 C 
ENDBRANCH  14  24
ENDBRANCH  11  14
ENDBRANCH   8  10
BRANCH   9  30
HETATM   30  C30 UNL     1      17.275  34.593  17.965  1.00  0.00     0.003 C 
HETATM   31  C31 UNL     1      17.334  36.069  17.755  1.00  0.00     0.005 C 
ENDBRANCH   9  30
BRANCH   3  32
HETATM   32  O1  UNL     1      20.239  31.587  16.478  1.00  0.00    -0.384 OA
HETATM   33  C7  UNL     1      19.813  30.410  16.924  1.00  0.00     0.202 C 
ENDBRANCH   3  32
BRANCH   5  34
HETATM   34  O2  UNL     1      22.200  32.786  16.684  1.00  0.00    -0.390 OA
HETATM   35  C10 UNL     1      23.068  33.460  17.509  1.00  0.00     0.202 C 
ENDBRANCH   5  34
BRANCH   1  36
HETATM   36  C2  UNL     1      16.199  33.294  15.856  1.00  0.00    -0.088 C 
HETATM   37  C1  UNL     1      15.078  32.622  16.188  1.00  0.00     0.014 C 
HETATM   38  C3  UNL     1      16.047  34.439  14.939  1.00  0.00     0.043 C 
ENDBRANCH   1  36
BRANCH   7  39
HETATM   39  C13 UNL     1      20.703  30.731  13.542  1.00  0.00     0.057 C 
HETATM   40  C14 UNL     1      21.258  30.974  12.114  1.00  0.00     0.045 C 
HETATM   41  C15 UNL     1      19.463  29.915  13.314  1.00  0.00     0.045 C 
BRANCH  39  42
HETATM   42  O3  UNL     1      21.730  30.034  14.155  1.00  0.00    -0.390 OA
ATOM     43  H3  UNL     1      22.023  29.276  13.663  1.00  0.00     0.210 HD
ENDBRANCH  39  42
ENDBRANCH   7  39
TORSDOF 14
ENDMDL
MODEL 4
REMARK VINA RESULT: -6.988930501      3.362      5.844
REMARK  14 active torsions:
REMARK  status: ('A' for Active; 'I' for Inactive)
REMARK    1  A    between atoms: C2_2  and  C4_4 
REMARK    2  A    between atoms: C6_6  and  O1_7 
REMARK    3  A    between atoms: C9_10  and  O2_11 
REMARK    4  A    between atoms: C12_14  and  C13_15 
REMARK    5  A    between atoms: C13_15  and  O3_18 
REMARK    6  A    between atoms: C16_20  and  N1_21 
REMARK       I    between atoms: N1_21  and  C17_23 
REMARK    7  A    between atoms: C17_23  and  C18_25 
REMARK    8  A    between atoms: C18_25  and  N2_26 
REMARK    9  A    between atoms: C18_25  and  C23_35 
REMARK       I    between atoms: N2_26  and  C19_28 
REMARK   10  A    between atoms: C19_28  and  O6_30 
REMARK   11  A    between atoms: O6_30  and  C20_31 
REMARK   12  A    between atoms: C20_31  and  C21_32 
REMARK   13  A    between atoms: C21_32  and  O7_33 
REMARK   14  A    between atoms: C29_41  and  C30_42 
ROOT
HETATM    1  C4  UNL     1      18.195  34.813  16.154  1.00  0.00     0.022 C 
HETATM    2  C5  UNL     1      18.995  35.168  17.355  1.00  0.00     0.048 C 
HETATM    3  C6  UNL     1      20.453  34.917  17.277  1.00  0.00     0.075 C 
HETATM    4  C8  UNL     1      20.534  33.338  17.127  1.00  0.00     0.073 C 
HETATM    5  C9  UNL     1      21.968  33.164  17.208  1.00  0.00     0.130 C 
HETATM    6  C11 UNL     1      22.243  34.027  18.516  1.00  0.00     0.043 C 
HETATM    7  C12 UNL     1      21.107  34.971  18.617  1.00  0.00     0.057 C 
HETATM    8  C16 UNL     1      19.688  32.770  16.088  1.00  0.00     0.098 C 
HETATM    9  C29 UNL     1      18.767  33.719  15.338  1.00  0.00     0.017 C 
ENDROOT
BRANCH   8  10
HETATM   10  N1  UNL     1      20.300  31.910  15.121  1.00  0.00    -0.354 N 
HETATM   11  C17 UNL     1      20.461  30.465  15.136  1.00  0.00     0.241 C 
HETATM   12  O4  UNL     1      20.112  29.898  16.189  1.00  0.00    -0.271 OA
ATOM     13  H1  UNL     1      20.679  32.381  14.300  1.00  0.00     0.162 HD
BRANCH  11  14
HETATM   14  C18 UNL     1      21.002  29.786  13.974  1.00  0.00     0.183 C 
BRANCH  14  15
HETATM   15  N2  UNL     1      21.958  28.760  13.899  1.00  0.00    -0.323 N 
HETATM   16  C19 UNL     1      22.607  28.594  12.577  1.00  0.00     0.361 C 
HETATM   17  O5  UNL     1      22.243  29.495  11.725  1.00  0.00    -0.238 OA
ATOM     18  H2  UNL     1      22.190  28.171  14.698  1.00  0.00     0.165 HD
BRANCH  16  19
HETATM   19  O6  UNL     1      23.449  27.683  12.184  1.00  0.00    -0.302 OA
BRANCH  19  20
HETATM   20  C20 UNL     1      23.842  27.008  11.075  1.00  0.00     0.207 C 
BRANCH  20  21
HETATM   21  C21 UNL     1      23.077  25.833  10.553  1.00  0.00     0.193 C 
BRANCH  21  22
HETATM   22  O7  UNL     1      22.265  25.311  11.599  1.00  0.00    -0.394 OA
HETATM   23  C22 UNL     1      20.922  25.282  11.255  1.00  0.00     0.201 C 
ENDBRANCH  21  22
ENDBRANCH  20  21
ENDBRANCH  19  20
ENDBRANCH  16  19
ENDBRANCH  14  15
BRANCH  14  24
HETATM   24  C23 UNL     1      19.704  29.146  13.274  1.00  0.00     0.018 C 
HETATM   25  C24 UNL     1      18.982  30.227  12.539  1.00  0.00     0.007 C 
HETATM   26  C25 UNL     1      17.549  29.831  12.251  1.00  0.00     0.000 C 
HETATM   27  C26 UNL     1      17.338  28.357  12.362  1.00  0.00     0.000 C 
HETATM   28  C27 UNL     1      17.725  27.787  13.694  1.00  0.00     0.000 C 
HETATM   29  C28 UNL     1      18.818  28.613  14.349  1.00  0.00     0.007 C 
ENDBRANCH  14  24
ENDBRANCH  11  14
ENDBRANCH   8  10
BRANCH   9  30
HETATM   30  C30 UNL     1      17.649  33.033  14.648  1.00  0.00     0.003 C 
HETATM   31  C31 UNL     1      17.046  31.792  15.217  1.00  0.00     0.005 C 
ENDBRANCH   9  30
BRANCH   3  32
HETATM   32  O1  UNL     1      21.145  35.347  16.213  1.00  0.00    -0.384 OA
HETATM   33  C7  UNL     1      21.245  36.615  15.828  1.00  0.00     0.202 C 
ENDBRANCH   3  32
BRANCH   5  34
HETATM   34  O2  UNL     1      22.769  33.707  16.226  1.00  0.00    -0.390 OA
HETATM   35  C10 UNL     1      23.471  32.789  15.482  1.00  0.00     0.202 C 
ENDBRANCH   5  34
BRANCH   1  36
HETATM   36  C2  UNL     1      16.782  34.691  16.595  1.00  0.00    -0.088 C 
HETATM   37  C1  UNL     1      15.814  35.239  15.832  1.00  0.00     0.014 C 
HETATM   38  C3  UNL     1      16.360  34.052  17.855  1.00  0.00     0.043 C 
ENDBRANCH   1  36
BRANCH   7  39
HETATM   39  C13 UNL     1      21.608  36.268  19.130  1.00  0.00     0.057 C 
HETATM   40  C14 UNL     1      22.269  35.938  20.493  1.00  0.00     0.045 C 
HETATM   41  C15 UNL     1      20.553  37.280  19.475  1.00  0.00     0.045 C 
BRANCH  39  42
HETATM   42  O3  UNL     1      22.663  36.784  18.395  1.00  0.00    -0.390 OA
ATOM     43  H3  UNL     1      22.425  37.534  17.862  1.00  0.00     0.210 HD
ENDBRANCH  39  42
ENDBRANCH   7  39
TORSDOF 14
ENDMDL
MODEL 5
REMARK VINA RESULT: -6.533352514      0.963      1.007
REMARK  14 active torsions:
REMARK  status: ('A' for Active; 'I' for Inactive)
REMARK    1  A    between atoms: C2_2  and  C4_4 
REMARK    2  A    between atoms: C6_6  and  O1_7 
REMARK    3  A    between atoms: C9_10  and  O2_11 
REMARK    4  A    between atoms: C12_14  and  C13_15 
REMARK    5  A    between atoms: C13_15  and  O3_18 
REMARK    6  A    between atoms: C16_20  and  N1_21 
REMARK       I    between atoms: N1_21  and  C17_23 
REMARK    7  A    between atoms: C17_23  and  C18_25 
REMARK    8  A    between atoms: C18_25  and  N2_26 
REMARK    9  A    between atoms: C18_25  and  C23_35 
REMARK       I    between atoms: N2_26  and  C19_28 
REMARK   10  A    between atoms: C19_28  and  O6_30 
REMARK   11  A    between atoms: O6_30  and  C20_31 
REMARK   12  A    between atoms: C20_31  and  C21_32 
REMARK   13  A    between atoms: C21_32  and  O7_33 
REMARK   14  A    between atoms: C29_41  and  C30_42 
ROOT
HETATM    1  C4  UNL     1      18.503  40.637  17.849  1.00  0.00     0.022 C 
HETATM    2  C5  UNL     1      19.651  40.991  18.724  1.00  0.00     0.048 C 
HETATM    3  C6  UNL     1      20.887  40.194  18.548  1.00  0.00     0.075 C 
HETATM    4  C8  UNL     1      20.431  38.732  18.967  1.00  0.00     0.073 C 
HETATM    5  C9  UNL     1      21.709  38.058  18.914  1.00  0.00     0.130 C 
HETATM    6  C11 UNL     1      22.562  39.088  19.776  1.00  0.00     0.043 C 
HETATM    7  C12 UNL     1      21.842  40.380  19.681  1.00  0.00     0.057 C 
HETATM    8  C16 UNL     1      19.215  38.255  18.324  1.00  0.00     0.098 C 
HETATM    9  C29 UNL     1      18.479  39.224  17.412  1.00  0.00     0.017 C 
ENDROOT
BRANCH   8  10
HETATM   10  N1  UNL     1      19.262  36.989  17.658  1.00  0.00    -0.354 N 
HETATM   11  C17 UNL     1      19.044  35.653  18.190  1.00  0.00     0.241 C 
HETATM   12  O4  UNL     1      18.897  35.586  19.425  1.00  0.00    -0.271 OA
ATOM     13  H1  UNL     1      19.481  37.029  16.663  1.00  0.00     0.162 HD
BRANCH  11  14
HETATM   14  C18 UNL     1      19.012  34.514  17.293  1.00  0.00     0.183 C 
BRANCH  14  15
HETATM   15  N2  UNL     1      19.762  33.327  17.324  1.00  0.00    -0.323 N 
HETATM   16  C19 UNL     1      20.732  33.161  16.216  1.00  0.00     0.361 C 
HETATM   17  O5  UNL     1      20.790  34.196  15.444  1.00  0.00    -0.238 OA
ATOM     18  H2  UNL     1      19.647  32.628  18.058  1.00  0.00     0.165 HD
BRANCH  16  19
HETATM   19  O6  UNL     1      21.487  32.140  15.932  1.00  0.00    -0.302 OA
BRANCH  19  20
HETATM   20  C20 UNL     1      22.444  31.738  15.058  1.00  0.00     0.207 C 
BRANCH  20  21
HETATM   21  C21 UNL     1      22.104  31.028  13.785  1.00  0.00     0.193 C 
BRANCH  21  22
HETATM   22  O7  UNL     1      21.483  31.949  12.896  1.00  0.00    -0.394 OA
HETATM   23  C22 UNL     1      20.161  31.619  12.638  1.00  0.00     0.201 C 
ENDBRANCH  21  22
ENDBRANCH  20  21
ENDBRANCH  19  20
ENDBRANCH  16  19
ENDBRANCH  14  15
BRANCH  14  24
HETATM   24  C23 UNL     1      17.491  34.003  17.386  1.00  0.00     0.018 C 
HETATM   25  C24 UNL     1      17.364  32.748  16.587  1.00  0.00     0.007 C 
HETATM   26  C25 UNL     1      15.918  32.461  16.242  1.00  0.00     0.000 C 
HETATM   27  C26 UNL     1      14.970  33.212  17.117  1.00  0.00     0.000 C 
HETATM   28  C27 UNL     1      15.173  34.699  17.098  1.00  0.00     0.000 C 
HETATM   29  C28 UNL     1      16.616  35.052  16.787  1.00  0.00     0.007 C 
ENDBRANCH  14  24
ENDBRANCH  11  14
ENDBRANCH   8  10
BRANCH   9  30
HETATM   30  C30 UNL     1      17.066  38.847  17.169  1.00  0.00     0.003 C 
HETATM   31  C31 UNL     1      16.282  38.114  18.207  1.00  0.00     0.005 C 
ENDBRANCH   9  30
BRANCH   3  32
HETATM   32  O1  UNL     1      21.386  40.004  17.319  1.00  0.00    -0.384 OA
HETATM   33  C7  UNL     1      21.487  40.941  16.382  1.00  0.00     0.202 C 
ENDBRANCH   3  32
BRANCH   5  34
HETATM   34  O2  UNL     1      22.364  37.950  17.705  1.00  0.00    -0.390 OA
HETATM   35  C10 UNL     1      22.672  36.663  17.330  1.00  0.00     0.202 C 
ENDBRANCH   5  34
BRANCH   1  36
HETATM   36  C2  UNL     1      17.283  41.193  18.488  1.00  0.00    -0.088 C 
HETATM   37  C1  UNL     1      16.401  41.871  17.724  1.00  0.00     0.014 C 
HETATM   38  C3  UNL     1      16.990  41.103  19.930  1.00  0.00     0.043 C 
ENDBRANCH   1  36
BRANCH   7  39
HETATM   39  C13 UNL     1      22.836  41.477  19.621  1.00  0.00     0.057 C 
HETATM   40  C14 UNL     1      23.598  41.408  20.970  1.00  0.00     0.045 C 
HETATM   41  C15 UNL     1      22.266  42.867  19.598  1.00  0.00     0.045 C 
BRANCH  39  42
HETATM   42  O3  UNL     1      23.841  41.266  18.691  1.00  0.00    -0.390 OA
ATOM     43  H3  UNL     1      24.406  40.532  18.902  1.00  0.00     0.210 HD
ENDBRANCH  39  42
ENDBRANCH   7  39
TORSDOF 14
ENDMDL
