MODEL 1
REMARK VINA RESULT: -8.244126556      0.000      0.000
REMARK  16 active torsions:
REMARK  status: ('A' for Active; 'I' for Inactive)
REMARK    1  A    between atoms: C2_2  and  C3_3 
REMARK    2  A    between atoms: C3_3  and  C4_4 
REMARK    3  A    between atoms: C4_4  and  C5_5 
REMARK    4  A    between atoms: C5_5  and  C6_6 
REMARK    5  A    between atoms: C5_5  and  N1_11 
REMARK    6  A    between atoms: C6_6  and  O1_7 
REMARK    7  A    between atoms: O1_7  and  C7_8 
REMARK       I    between atoms: N1_11  and  C9_13 
REMARK    8  A    between atoms: C9_13  and  C10_15 
REMARK    9  A    between atoms: C10_15  and  N2_17 
REMARK   10  A    between atoms: C17_24  and  C18_25 
REMARK   11  A    between atoms: C19_26  and  C20_27 
REMARK   12  A    between atoms: C22_29  and  C23_30 
REMARK   13  A    between atoms: C23_30  and  C24_31 
REMARK   14  A    between atoms: C24_31  and  C25_32 
REMARK   15  A    between atoms: C25_32  and  C27_34 
REMARK   16  A    between atoms: C33_42  and  O6_43 
ROOT
HETATM    1  C3  UNL     1      18.390  32.177  15.883  1.00  0.00     0.014 C 
HETATM    2  C13 UNL     1      17.970  32.369  14.500  1.00  0.00    -0.072 C 
HETATM    3  C14 UNL     1      18.467  33.630  13.805  1.00  0.00     0.044 C 
HETATM    4  C15 UNL     1      17.855  31.356  13.485  1.00  0.00     0.011 C 
HETATM    5  C16 UNL     1      18.118  30.152  13.004  1.00  0.00    -0.047 C 
HETATM    6  C17 UNL     1      17.554  29.844  11.728  1.00  0.00     0.008 C 
HETATM    7  C28 UNL     1      18.877  29.054  13.583  1.00  0.00     0.089 C 
HETATM    8  C29 UNL     1      17.910  27.944  14.043  1.00  0.00     0.023 C 
HETATM    9  C30 UNL     1      19.731  29.385  14.738  1.00  0.00     0.162 C 
HETATM   10  O5  UNL     1      19.918  28.327  15.375  1.00  0.00    -0.292 OA
HETATM   11  C31 UNL     1      20.364  30.563  15.278  1.00  0.00    -0.008 C 
HETATM   12  C32 UNL     1      21.236  31.240  14.241  1.00  0.00     0.050 C 
HETATM   13  C33 UNL     1      19.637  31.417  16.195  1.00  0.00     0.163 C 
ENDROOT
BRANCH   1  14
HETATM   14  C2  UNL     1      17.270  31.779  16.821  1.00  0.00     0.012 C 
HETATM   15  C1  UNL     1      15.880  32.092  16.398  1.00  0.00     0.006 C 
ENDBRANCH   1  14
BRANCH   1  16
HETATM   16  C4  UNL     1      18.734  33.550  16.411  1.00  0.00     0.044 C 
BRANCH  16  17
HETATM   17  C5  UNL     1      18.486  34.234  17.621  1.00  0.00     0.110 C 
BRANCH  17  18
HETATM   18  C6  UNL     1      19.528  35.076  18.309  1.00  0.00     0.204 C 
BRANCH  18  19
HETATM   19  O1  UNL     1      20.240  35.856  17.295  1.00  0.00    -0.320 OA
BRANCH  19  20
HETATM   20  C7  UNL     1      21.608  35.827  17.207  1.00  0.00     0.254 C 
HETATM   21  C8  UNL     1      22.456  36.981  17.573  1.00  0.00     0.126 C 
HETATM   22  O2  UNL     1      22.168  34.774  16.797  1.00  0.00    -0.266 OA
ENDBRANCH  19  20
ENDBRANCH  18  19
ENDBRANCH  17  18
BRANCH  17  23
HETATM   23  N1  UNL     1      17.482  35.307  17.240  1.00  0.00    -0.353 N 
HETATM   24  C9  UNL     1      16.314  35.483  17.998  1.00  0.00     0.240 C 
HETATM   25  O3  UNL     1      16.060  34.753  19.025  1.00  0.00    -0.271 OA
ATOM     26  H1  UNL     1      17.657  35.902  16.430  1.00  0.00     0.163 HD
BRANCH  24  27
HETATM   27  C10 UNL     1      15.286  36.501  17.698  1.00  0.00     0.165 C 
HETATM   28  C11 UNL     1      13.959  35.744  17.539  1.00  0.00     0.042 C 
BRANCH  27  29
HETATM   29  N2  UNL     1      15.190  37.533  18.676  1.00  0.00    -0.414 N 
HETATM   30  C12 UNL     1      16.380  38.311  18.856  1.00  0.00     0.140 C 
ATOM     31  H2  UNL     1      14.337  37.705  19.209  1.00  0.00     0.153 HD
ENDBRANCH  27  29
ENDBRANCH  24  27
ENDBRANCH  17  23
ENDBRANCH  16  17
ENDBRANCH   1  16
BRANCH  13  32
HETATM   32  O6  UNL     1      20.648  32.186  16.824  1.00  0.00    -0.390 OA
ATOM     33  H6  UNL     1      21.484  31.743  16.902  1.00  0.00     0.210 HD
ENDBRANCH  13  32
BRANCH   6  34
HETATM   34  C18 UNL     1      17.530  28.896  10.866  1.00  0.00     0.001 C 
HETATM   35  C19 UNL     1      18.421  28.029  10.204  1.00  0.00     0.007 C 
BRANCH  35  36
HETATM   36  C20 UNL     1      18.101  27.064   9.302  1.00  0.00    -0.062 C 
HETATM   37  C21 UNL     1      17.617  25.770   9.727  1.00  0.00     0.048 C 
HETATM   38  C22 UNL     1      18.290  27.406   7.910  1.00  0.00     0.007 C 
BRANCH  38  39
HETATM   39  C23 UNL     1      18.107  26.813   6.804  1.00  0.00     0.001 C 
BRANCH  39  40
HETATM   40  C24 UNL     1      18.865  26.830   5.601  1.00  0.00     0.010 C 
BRANCH  40  41
HETATM   41  C25 UNL     1      19.651  25.831   5.179  1.00  0.00    -0.024 C 
HETATM   42  C26 UNL     1      19.239  25.001   4.022  1.00  0.00     0.051 C 
BRANCH  41  43
HETATM   43  C27 UNL     1      20.896  25.551   5.841  1.00  0.00     0.265 C 
HETATM   44  O4  UNL     1      21.992  25.739   5.186  1.00  0.00    -0.302 OA
ENDBRANCH  41  43
ENDBRANCH  40  41
ENDBRANCH  39  40
ENDBRANCH  38  39
ENDBRANCH  35  36
ENDBRANCH   6  34
TORSDOF 16
ENDMDL
MODEL 2
REMARK VINA RESULT: -8.183150228      3.672     11.438
REMARK  16 active torsions:
REMARK  status: ('A' for Active; 'I' for Inactive)
REMARK    1  A    between atoms: C2_2  and  C3_3 
REMARK    2  A    between atoms: C3_3  and  C4_4 
REMARK    3  A    between atoms: C4_4  and  C5_5 
REMARK    4  A    between atoms: C5_5  and  C6_6 
REMARK    5  A    between atoms: C5_5  and  N1_11 
REMARK    6  A    between atoms: C6_6  and  O1_7 
REMARK    7  A    between atoms: O1_7  and  C7_8 
REMARK       I    between atoms: N1_11  and  C9_13 
REMARK    8  A    between atoms: C9_13  and  C10_15 
REMARK    9  A    between atoms: C10_15  and  N2_17 
REMARK   10  A    between atoms: C17_24  and  C18_25 
REMARK   11  A    between atoms: C19_26  and  C20_27 
REMARK   12  A    between atoms: C22_29  and  C23_30 
REMARK   13  A    between atoms: C23_30  and  C24_31 
REMARK   14  A    between atoms: C24_31  and  C25_32 
REMARK   15  A    between atoms: C25_32  and  C27_34 
REMARK   16  A    between atoms: C33_42  and  O6_43 
ROOT
HETATM    1  C3  UNL     1      19.894  29.897  13.470  1.00  0.00     0.014 C 
HETATM    2  C13 UNL     1      18.469  29.974  13.766  1.00  0.00    -0.072 C 
HETATM    3  C14 UNL     1      17.787  28.677  14.184  1.00  0.00     0.044 C 
HETATM    4  C15 UNL     1      17.787  31.039  14.453  1.00  0.00     0.011 C 
HETATM    5  C16 UNL     1      17.780  32.106  15.234  1.00  0.00    -0.047 C 
HETATM    6  C17 UNL     1      16.503  32.692  15.493  1.00  0.00     0.008 C 
HETATM    7  C28 UNL     1      18.882  32.817  15.864  1.00  0.00     0.089 C 
HETATM    8  C29 UNL     1      19.115  34.157  15.136  1.00  0.00     0.023 C 
HETATM    9  C30 UNL     1      20.180  32.116  15.897  1.00  0.00     0.162 C 
HETATM   10  O5  UNL     1      21.067  32.988  16.016  1.00  0.00    -0.292 OA
HETATM   11  C31 UNL     1      20.643  30.753  15.831  1.00  0.00    -0.008 C 
HETATM   12  C32 UNL     1      19.976  29.896  16.885  1.00  0.00     0.050 C 
HETATM   13  C33 UNL     1      20.903  30.142  14.543  1.00  0.00     0.163 C 
ENDROOT
BRANCH   1  14
HETATM   14  C2  UNL     1      20.298  30.590  12.185  1.00  0.00     0.012 C 
HETATM   15  C1  UNL     1      20.514  32.059  12.241  1.00  0.00     0.006 C 
ENDBRANCH   1  14
BRANCH   1  16
HETATM   16  C4  UNL     1      20.172  28.454  13.118  1.00  0.00     0.044 C 
BRANCH  16  17
HETATM   17  C5  UNL     1      20.030  27.677  11.949  1.00  0.00     0.110 C 
BRANCH  17  18
HETATM   18  C6  UNL     1      19.125  28.072  10.812  1.00  0.00     0.204 C 
BRANCH  18  19
HETATM   19  O1  UNL     1      18.063  27.072  10.694  1.00  0.00    -0.320 OA
BRANCH  19  20
HETATM   20  C7  UNL     1      18.118  26.085   9.744  1.00  0.00     0.254 C 
HETATM   21  C8  UNL     1      17.080  25.919   8.703  1.00  0.00     0.126 C 
HETATM   22  O2  UNL     1      19.092  25.284   9.756  1.00  0.00    -0.266 OA
ENDBRANCH  19  20
ENDBRANCH  18  19
ENDBRANCH  17  18
BRANCH  17  23
HETATM   23  N1  UNL     1      21.382  27.784  11.266  1.00  0.00    -0.353 N 
HETATM   24  C9  UNL     1      22.223  26.663  11.185  1.00  0.00     0.240 C 
HETATM   25  O3  UNL     1      21.881  25.526  11.677  1.00  0.00    -0.271 OA
ATOM     26  H1  UNL     1      21.679  28.673  10.866  1.00  0.00     0.163 HD
BRANCH  24  27
HETATM   27  C10 UNL     1      23.551  26.679  10.539  1.00  0.00     0.165 C 
HETATM   28  C11 UNL     1      23.805  28.129  10.103  1.00  0.00     0.042 C 
BRANCH  27  29
HETATM   29  N2  UNL     1      24.603  26.185  11.364  1.00  0.00    -0.414 N 
HETATM   30  C12 UNL     1      25.222  27.162  12.209  1.00  0.00     0.140 C 
ATOM     31  H2  UNL     1      24.892  25.206  11.355  1.00  0.00     0.153 HD
ENDBRANCH  27  29
ENDBRANCH  24  27
ENDBRANCH  17  23
ENDBRANCH  16  17
ENDBRANCH   1  16
BRANCH  13  32
HETATM   32  O6  UNL     1      21.711  29.019  14.852  1.00  0.00    -0.390 OA
ATOM     33  H6  UNL     1      21.244  28.304  15.268  1.00  0.00     0.210 HD
ENDBRANCH  13  32
BRANCH   6  34
HETATM   34  C18 UNL     1      15.978  33.652  16.160  1.00  0.00     0.001 C 
HETATM   35  C19 UNL     1      15.923  34.129  17.484  1.00  0.00     0.007 C 
BRANCH  35  36
HETATM   36  C20 UNL     1      15.265  35.234  17.927  1.00  0.00    -0.062 C 
HETATM   37  C21 UNL     1      13.848  35.405  17.700  1.00  0.00     0.048 C 
HETATM   38  C22 UNL     1      16.069  36.220  18.614  1.00  0.00     0.007 C 
BRANCH  38  39
HETATM   39  C23 UNL     1      15.844  37.338  19.167  1.00  0.00     0.001 C 
BRANCH  39  40
HETATM   40  C24 UNL     1      16.560  38.566  19.113  1.00  0.00     0.010 C 
BRANCH  40  41
HETATM   41  C25 UNL     1      16.135  39.672  18.489  1.00  0.00    -0.024 C 
HETATM   42  C26 UNL     1      15.035  40.477  19.072  1.00  0.00     0.051 C 
BRANCH  41  43
HETATM   43  C27 UNL     1      16.736  40.090  17.251  1.00  0.00     0.265 C 
HETATM   44  O4  UNL     1      17.421  39.225  16.583  1.00  0.00    -0.302 OA
ENDBRANCH  41  43
ENDBRANCH  40  41
ENDBRANCH  39  40
ENDBRANCH  38  39
ENDBRANCH  35  36
ENDBRANCH   6  34
TORSDOF 16
ENDMDL
MODEL 3
REMARK VINA RESULT: -8.171744497      0.969      1.230
REMARK  16 active torsions:
REMARK  status: ('A' for Active; 'I' for Inactive)
REMARK    1  A    between atoms: C2_2  and  C3_3 
REMARK    2  A    between atoms: C3_3  and  C4_4 
REMARK    3  A    between atoms: C4_4  and  C5_5 
REMARK    4  A    between atoms: C5_5  and  C6_6 
REMARK    5  A    between atoms: C5_5  and  N1_11 
REMARK    6  A    between atoms: C6_6  and  O1_7 
REMARK    7  A    between atoms: O1_7  and  C7_8 
REMARK       I    between atoms: N1_11  and  C9_13 
REMARK    8  A    between atoms: C9_13  and  C10_15 
REMARK    9  A    between atoms: C10_15  and  N2_17 
REMARK   10  A    between atoms: C17_24  and  C18_25 
REMARK   11  A    between atoms: C19_26  and  C20_27 
REMARK   12  A    between atoms: C22_29  and  C23_30 
REMARK   13  A    between atoms: C23_30  and  C24_31 
REMARK   14  A    between atoms: C24_31  and  C25_32 
REMARK   15  A    between atoms: C25_32  and  C27_34 
REMARK   16  A    between atoms: C33_42  and  O6_43 
ROOT
HETATM    1  C3  UNL     1      18.447  32.254  15.913  1.00  0.00     0.014 C 
HETATM    2  C13 UNL     1      18.162  32.349  14.486  1.00  0.00    -0.072 C 
HETATM    3  C14 UNL     1      18.700  33.577  13.762  1.00  0.00     0.044 C 
HETATM    4  C15 UNL     1      18.166  31.272  13.532  1.00  0.00     0.011 C 
HETATM    5  C16 UNL     1      18.498  30.048  13.158  1.00  0.00    -0.047 C 
HETATM    6  C17 UNL     1      18.069  29.647  11.856  1.00  0.00     0.008 C 
HETATM    7  C28 UNL     1      19.218  29.008  13.877  1.00  0.00     0.089 C 
HETATM    8  C29 UNL     1      18.231  27.905  14.312  1.00  0.00     0.023 C 
HETATM    9  C30 UNL     1      19.947  29.432  15.086  1.00  0.00     0.162 C 
HETATM   10  O5  UNL     1      20.090  28.420  15.805  1.00  0.00    -0.292 OA
HETATM   11  C31 UNL     1      20.502  30.656  15.607  1.00  0.00    -0.008 C 
HETATM   12  C32 UNL     1      21.458  31.289  14.618  1.00  0.00     0.050 C 
HETATM   13  C33 UNL     1      19.672  31.547  16.393  1.00  0.00     0.163 C 
ENDROOT
BRANCH   1  14
HETATM   14  C2  UNL     1      17.248  31.887  16.762  1.00  0.00     0.012 C 
HETATM   15  C1  UNL     1      15.904  32.238  16.234  1.00  0.00     0.006 C 
ENDBRANCH   1  14
BRANCH   1  16
HETATM   16  C4  UNL     1      18.711  33.666  16.383  1.00  0.00     0.044 C 
BRANCH  16  17
HETATM   17  C5  UNL     1      18.514  34.356  17.598  1.00  0.00     0.110 C 
BRANCH  17  18
HETATM   18  C6  UNL     1      19.585  35.198  18.240  1.00  0.00     0.204 C 
BRANCH  18  19
HETATM   19  O1  UNL     1      20.353  35.859  17.184  1.00  0.00    -0.320 OA
BRANCH  19  20
HETATM   20  C7  UNL     1      21.723  35.884  17.212  1.00  0.00     0.254 C 
HETATM   21  C8  UNL     1      22.492  37.092  17.580  1.00  0.00     0.126 C 
HETATM   22  O2  UNL     1      22.357  34.836  16.911  1.00  0.00    -0.266 OA
ENDBRANCH  19  20
ENDBRANCH  18  19
ENDBRANCH  17  18
BRANCH  17  23
HETATM   23  N1  UNL     1      17.498  35.431  17.252  1.00  0.00    -0.353 N 
HETATM   24  C9  UNL     1      16.307  35.539  17.986  1.00  0.00     0.240 C 
HETATM   25  O3  UNL     1      16.040  34.745  18.961  1.00  0.00    -0.271 OA
ATOM     26  H1  UNL     1      17.683  36.076  16.484  1.00  0.00     0.163 HD
BRANCH  24  27
HETATM   27  C10 UNL     1      15.267  36.553  17.718  1.00  0.00     0.165 C 
HETATM   28  C11 UNL     1      13.940  35.792  17.589  1.00  0.00     0.042 C 
BRANCH  27  29
HETATM   29  N2  UNL     1      15.191  37.581  18.702  1.00  0.00    -0.414 N 
HETATM   30  C12 UNL     1      16.258  38.537  18.664  1.00  0.00     0.140 C 
ATOM     31  H2  UNL     1      14.434  37.632  19.384  1.00  0.00     0.153 HD
ENDBRANCH  27  29
ENDBRANCH  24  27
ENDBRANCH  17  23
ENDBRANCH  16  17
ENDBRANCH   1  16
BRANCH  13  32
HETATM   32  O6  UNL     1      20.601  32.379  17.066  1.00  0.00    -0.390 OA
ATOM     33  H6  UNL     1      20.354  32.600  17.957  1.00  0.00     0.210 HD
ENDBRANCH  13  32
BRANCH   6  34
HETATM   34  C18 UNL     1      18.147  28.647  11.058  1.00  0.00     0.001 C 
HETATM   35  C19 UNL     1      19.127  27.874  10.405  1.00  0.00     0.007 C 
BRANCH  35  36
HETATM   36  C20 UNL     1      18.915  26.811   9.584  1.00  0.00    -0.062 C 
HETATM   37  C21 UNL     1      19.891  25.752   9.461  1.00  0.00     0.048 C 
HETATM   38  C22 UNL     1      17.674  26.817   8.842  1.00  0.00     0.007 C 
BRANCH  38  39
HETATM   39  C23 UNL     1      17.118  26.037   8.013  1.00  0.00     0.001 C 
BRANCH  39  40
HETATM   40  C24 UNL     1      17.347  25.836   6.624  1.00  0.00     0.010 C 
BRANCH  40  41
HETATM   41  C25 UNL     1      18.199  26.551   5.878  1.00  0.00    -0.024 C 
HETATM   42  C26 UNL     1      19.612  26.123   5.748  1.00  0.00     0.051 C 
BRANCH  41  43
HETATM   43  C27 UNL     1      17.756  27.740   5.201  1.00  0.00     0.265 C 
HETATM   44  O4  UNL     1      18.538  28.766   5.194  1.00  0.00    -0.302 OA
ENDBRANCH  41  43
ENDBRANCH  40  41
ENDBRANCH  39  40
ENDBRANCH  38  39
ENDBRANCH  35  36
ENDBRANCH   6  34
TORSDOF 16
ENDMDL
MODEL 4
REMARK VINA RESULT: -8.059617191      3.618     11.216
REMARK  16 active torsions:
REMARK  status: ('A' for Active; 'I' for Inactive)
REMARK    1  A    between atoms: C2_2  and  C3_3 
REMARK    2  A    between atoms: C3_3  and  C4_4 
REMARK    3  A    between atoms: C4_4  and  C5_5 
REMARK    4  A    between atoms: C5_5  and  C6_6 
REMARK    5  A    between atoms: C5_5  and  N1_11 
REMARK    6  A    between atoms: C6_6  and  O1_7 
REMARK    7  A    between atoms: O1_7  and  C7_8 
REMARK       I    between atoms: N1_11  and  C9_13 
REMARK    8  A    between atoms: C9_13  and  C10_15 
REMARK    9  A    between atoms: C10_15  and  N2_17 
REMARK   10  A    between atoms: C17_24  and  C18_25 
REMARK   11  A    between atoms: C19_26  and  C20_27 
REMARK   12  A    between atoms: C22_29  and  C23_30 
REMARK   13  A    between atoms: C23_30  and  C24_31 
REMARK   14  A    between atoms: C24_31  and  C25_32 
REMARK   15  A    between atoms: C25_32  and  C27_34 
REMARK   16  A    between atoms: C33_42  and  O6_43 
ROOT
HETATM    1  C3  UNL     1      20.330  30.718  13.600  1.00  0.00     0.014 C 
HETATM    2  C13 UNL     1      18.899  30.996  13.568  1.00  0.00    -0.072 C 
HETATM    3  C14 UNL     1      17.973  29.795  13.433  1.00  0.00     0.044 C 
HETATM    4  C15 UNL     1      18.194  31.976  14.350  1.00  0.00     0.011 C 
HETATM    5  C16 UNL     1      18.106  32.805  15.377  1.00  0.00    -0.047 C 
HETATM    6  C17 UNL     1      16.890  33.547  15.489  1.00  0.00     0.008 C 
HETATM    7  C28 UNL     1      19.073  33.116  16.419  1.00  0.00     0.089 C 
HETATM    8  C29 UNL     1      19.662  34.520  16.174  1.00  0.00     0.023 C 
HETATM    9  C30 UNL     1      20.213  32.190  16.553  1.00  0.00     0.162 C 
HETATM   10  O5  UNL     1      21.135  32.818  17.114  1.00  0.00    -0.292 OA
HETATM   11  C31 UNL     1      20.503  30.819  16.213  1.00  0.00    -0.008 C 
HETATM   12  C32 UNL     1      19.470  29.880  16.798  1.00  0.00     0.050 C 
HETATM   13  C33 UNL     1      21.028  30.497  14.901  1.00  0.00     0.163 C 
ENDROOT
BRANCH   1  14
HETATM   14  C2  UNL     1      21.155  31.608  12.693  1.00  0.00     0.012 C 
HETATM   15  C1  UNL     1      22.060  32.592  13.341  1.00  0.00     0.006 C 
ENDBRANCH   1  14
BRANCH   1  16
HETATM   16  C4  UNL     1      20.512  29.376  12.929  1.00  0.00     0.044 C 
BRANCH  16  17
HETATM   17  C5  UNL     1      20.957  28.960  11.657  1.00  0.00     0.110 C 
BRANCH  17  18
HETATM   18  C6  UNL     1      22.403  28.665  11.354  1.00  0.00     0.204 C 
BRANCH  18  19
HETATM   19  O1  UNL     1      22.813  27.497  12.136  1.00  0.00    -0.320 OA
BRANCH  19  20
HETATM   20  C7  UNL     1      23.994  26.851  11.882  1.00  0.00     0.254 C 
HETATM   21  C8  UNL     1      25.311  27.507  12.026  1.00  0.00     0.126 C 
HETATM   22  O2  UNL     1      23.960  25.646  11.508  1.00  0.00    -0.266 OA
ENDBRANCH  19  20
ENDBRANCH  18  19
ENDBRANCH  17  18
BRANCH  17  23
HETATM   23  N1  UNL     1      20.360  27.573  11.491  1.00  0.00    -0.353 N 
HETATM   24  C9  UNL     1      19.148  27.403  10.805  1.00  0.00     0.240 C 
HETATM   25  O3  UNL     1      18.512  28.399  10.300  1.00  0.00    -0.271 OA
ATOM     26  H1  UNL     1      20.843  26.763  11.881  1.00  0.00     0.163 HD
BRANCH  24  27
HETATM   27  C10 UNL     1      18.499  26.092  10.599  1.00  0.00     0.165 C 
HETATM   28  C11 UNL     1      17.902  25.684  11.954  1.00  0.00     0.042 C 
BRANCH  27  29
HETATM   29  N2  UNL     1      17.516  26.088   9.567  1.00  0.00    -0.414 N 
HETATM   30  C12 UNL     1      17.930  25.483   8.336  1.00  0.00     0.140 C 
ATOM     31  H2  UNL     1      16.585  26.486   9.696  1.00  0.00     0.153 HD
ENDBRANCH  27  29
ENDBRANCH  24  27
ENDBRANCH  17  23
ENDBRANCH  16  17
ENDBRANCH   1  16
BRANCH  13  32
HETATM   32  O6  UNL     1      21.574  29.198  15.058  1.00  0.00    -0.390 OA
ATOM     33  H6  UNL     1      21.943  29.031  15.917  1.00  0.00     0.210 HD
ENDBRANCH  13  32
BRANCH   6  34
HETATM   34  C18 UNL     1      16.326  34.401  16.260  1.00  0.00     0.001 C 
HETATM   35  C19 UNL     1      16.371  35.780  16.542  1.00  0.00     0.007 C 
BRANCH  35  36
HETATM   36  C20 UNL     1      15.612  36.453  17.448  1.00  0.00    -0.062 C 
HETATM   37  C21 UNL     1      14.323  35.951  17.867  1.00  0.00     0.048 C 
HETATM   38  C22 UNL     1      16.165  37.693  17.945  1.00  0.00     0.007 C 
BRANCH  38  39
HETATM   39  C23 UNL     1      15.791  38.576  18.774  1.00  0.00     0.001 C 
BRANCH  39  40
HETATM   40  C24 UNL     1      15.429  39.939  18.585  1.00  0.00     0.010 C 
BRANCH  40  41
HETATM   41  C25 UNL     1      16.287  40.924  18.289  1.00  0.00    -0.024 C 
HETATM   42  C26 UNL     1      16.964  41.670  19.376  1.00  0.00     0.051 C 
BRANCH  41  43
HETATM   43  C27 UNL     1      16.560  41.269  16.920  1.00  0.00     0.265 C 
HETATM   44  O4  UNL     1      17.481  40.614  16.297  1.00  0.00    -0.302 OA
ENDBRANCH  41  43
ENDBRANCH  40  41
ENDBRANCH  39  40
ENDBRANCH  38  39
ENDBRANCH  35  36
ENDBRANCH   6  34
TORSDOF 16
ENDMDL
MODEL 5
REMARK VINA RESULT: -8.044081644      1.389      1.488
REMARK  16 active torsions:
REMARK  status: ('A' for Active; 'I' for Inactive)
REMARK    1  A    between atoms: C2_2  and  C3_3 
REMARK    2  A    between atoms: C3_3  and  C4_4 
REMARK    3  A    between atoms: C4_4  and  C5_5 
REMARK    4  A    between atoms: C5_5  and  C6_6 
REMARK    5  A    between atoms: C5_5  and  N1_11 
REMARK    6  A    between atoms: C6_6  and  O1_7 
REMARK    7  A    between atoms: O1_7  and  C7_8 
REMARK       I    between atoms: N1_11  and  C9_13 
REMARK    8  A    between atoms: C9_13  and  C10_15 
REMARK    9  A    between atoms: C10_15  and  N2_17 
REMARK   10  A    between atoms: C17_24  and  C18_25 
REMARK   11  A    between atoms: C19_26  and  C20_27 
REMARK   12  A    between atoms: C22_29  and  C23_30 
REMARK   13  A    between atoms: C23_30  and  C24_31 
REMARK   14  A    between atoms: C24_31  and  C25_32 
REMARK   15  A    between atoms: C25_32  and  C27_34 
REMARK   16  A    between atoms: C33_42  and  O6_43 
ROOT
HETATM    1  C3  UNL     1      18.265  32.193  15.957  1.00  0.00     0.014 C 
HETATM    2  C13 UNL     1      17.850  32.367  14.571  1.00  0.00    -0.072 C 
HETATM    3  C14 UNL     1      18.336  33.627  13.867  1.00  0.00     0.044 C 
HETATM    4  C15 UNL     1      17.752  31.343  13.565  1.00  0.00     0.011 C 
HETATM    5  C16 UNL     1      18.031  30.138  13.097  1.00  0.00    -0.047 C 
HETATM    6  C17 UNL     1      17.478  29.813  11.821  1.00  0.00     0.008 C 
HETATM    7  C28 UNL     1      18.800  29.055  13.689  1.00  0.00     0.089 C 
HETATM    8  C29 UNL     1      17.844  27.938  14.155  1.00  0.00     0.023 C 
HETATM    9  C30 UNL     1      19.644  29.406  14.846  1.00  0.00     0.162 C 
HETATM   10  O5  UNL     1      19.840  28.356  15.494  1.00  0.00    -0.292 OA
HETATM   11  C31 UNL     1      20.261  30.596  15.378  1.00  0.00    -0.008 C 
HETATM   12  C32 UNL     1      21.130  31.273  14.339  1.00  0.00     0.050 C 
HETATM   13  C33 UNL     1      19.519  31.450  16.283  1.00  0.00     0.163 C 
ENDROOT
BRANCH   1  14
HETATM   14  C2  UNL     1      17.145  31.790  16.894  1.00  0.00     0.012 C 
HETATM   15  C1  UNL     1      15.756  32.107  16.473  1.00  0.00     0.006 C 
ENDBRANCH   1  14
BRANCH   1  16
HETATM   16  C4  UNL     1      18.591  33.574  16.475  1.00  0.00     0.044 C 
BRANCH  16  17
HETATM   17  C5  UNL     1      18.340  34.262  17.682  1.00  0.00     0.110 C 
BRANCH  17  18
HETATM   18  C6  UNL     1      19.381  35.105  18.371  1.00  0.00     0.204 C 
BRANCH  18  19
HETATM   19  O1  UNL     1      20.415  35.457  17.396  1.00  0.00    -0.320 OA
BRANCH  19  20
HETATM   20  C7  UNL     1      21.743  35.447  17.733  1.00  0.00     0.254 C 
HETATM   21  C8  UNL     1      22.584  36.663  17.700  1.00  0.00     0.126 C 
HETATM   22  O2  UNL     1      22.273  34.358  18.086  1.00  0.00    -0.266 OA
ENDBRANCH  19  20
ENDBRANCH  18  19
ENDBRANCH  17  18
BRANCH  17  23
HETATM   23  N1  UNL     1      17.338  35.335  17.296  1.00  0.00    -0.353 N 
HETATM   24  C9  UNL     1      16.155  35.495  18.033  1.00  0.00     0.240 C 
HETATM   25  O3  UNL     1      15.884  34.750  19.044  1.00  0.00    -0.271 OA
ATOM     26  H1  UNL     1      17.526  35.942  16.498  1.00  0.00     0.163 HD
BRANCH  24  27
HETATM   27  C10 UNL     1      15.128  36.512  17.726  1.00  0.00     0.165 C 
HETATM   28  C11 UNL     1      13.787  35.767  17.652  1.00  0.00     0.042 C 
BRANCH  27  29
HETATM   29  N2  UNL     1      15.082  37.588  18.658  1.00  0.00    -0.414 N 
HETATM   30  C12 UNL     1      16.355  38.148  19.002  1.00  0.00     0.140 C 
ATOM     31  H2  UNL     1      14.207  37.935  19.052  1.00  0.00     0.153 HD
ENDBRANCH  27  29
ENDBRANCH  24  27
ENDBRANCH  17  23
ENDBRANCH  16  17
ENDBRANCH   1  16
BRANCH  13  32
HETATM   32  O6  UNL     1      20.518  32.237  16.911  1.00  0.00    -0.390 OA
ATOM     33  H6  UNL     1      20.391  33.174  16.819  1.00  0.00     0.210 HD
ENDBRANCH  13  32
BRANCH   6  34
HETATM   34  C18 UNL     1      17.469  28.856  10.967  1.00  0.00     0.001 C 
HETATM   35  C19 UNL     1      18.356  28.185  10.103  1.00  0.00     0.007 C 
BRANCH  35  36
HETATM   36  C20 UNL     1      18.062  27.146   9.277  1.00  0.00    -0.062 C 
HETATM   37  C21 UNL     1      17.585  25.885   9.798  1.00  0.00     0.048 C 
HETATM   38  C22 UNL     1      18.269  27.378   7.865  1.00  0.00     0.007 C 
BRANCH  38  39
HETATM   39  C23 UNL     1      18.110  26.696   6.809  1.00  0.00     0.001 C 
BRANCH  39  40
HETATM   40  C24 UNL     1      18.246  25.299   6.571  1.00  0.00     0.010 C 
BRANCH  40  41
HETATM   41  C25 UNL     1      17.238  24.476   6.257  1.00  0.00    -0.024 C 
HETATM   42  C26 UNL     1      16.119  24.960   5.415  1.00  0.00     0.051 C 
BRANCH  41  43
HETATM   43  C27 UNL     1      17.228  23.119   6.732  1.00  0.00     0.265 C 
HETATM   44  O4  UNL     1      16.734  22.884   7.900  1.00  0.00    -0.302 OA
ENDBRANCH  41  43
ENDBRANCH  40  41
ENDBRANCH  39  40
ENDBRANCH  38  39
ENDBRANCH  35  36
ENDBRANCH   6  34
TORSDOF 16
ENDMDL
