MODEL 1
REMARK VINA RESULT: -8.915221610      0.000      0.000
REMARK  16 active torsions:
REMARK  status: ('A' for Active; 'I' for Inactive)
REMARK    1  A    between atoms: O1_2  and  C2_3 
REMARK    2  A    between atoms: C2_3  and  C3_4 
REMARK    3  A    between atoms: C3_4  and  C4_5 
REMARK    4  A    between atoms: C4_5  and  C5_6 
REMARK    5  A    between atoms: C4_5  and  O5_36 
REMARK    6  A    between atoms: C5_6  and  C6_7 
REMARK    7  A    between atoms: C6_7  and  C7_8 
REMARK    8  A    between atoms: C7_8  and  C8_9 
REMARK    9  A    between atoms: C9_10  and  O2_11 
REMARK   10  A    between atoms: C19_22  and  O3_23 
REMARK   11  A    between atoms: O5_36  and  C30_37 
REMARK   12  A    between atoms: C30_37  and  C31_38 
REMARK   13  A    between atoms: C31_38  and  O6_39 
REMARK   14  A    between atoms: O6_39  and  C32_40 
REMARK   15  A    between atoms: C32_40  and  C33_41 
REMARK   16  A    between atoms: C33_41  and  O7_42 
ROOT
HETATM    1  C8  UNL     1      19.270  28.956  13.902  1.00  0.00     0.042 C 
HETATM    2  C9  UNL     1      20.667  28.522  13.933  1.00  0.00     0.126 C 
HETATM    3  C10 UNL     1      21.490  29.698  13.392  1.00  0.00     0.033 C 
HETATM    4  C11 UNL     1      21.270  30.769  14.485  1.00  0.00     0.012 C 
HETATM    5  C12 UNL     1      19.904  31.420  14.275  1.00  0.00    -0.033 C 
HETATM    6  C13 UNL     1      20.183  32.562  13.383  1.00  0.00     0.016 C 
HETATM    7  C14 UNL     1      19.040  30.418  13.609  1.00  0.00     0.004 C 
HETATM    8  C15 UNL     1      17.558  30.618  13.773  1.00  0.00     0.006 C 
HETATM    9  C16 UNL     1      17.178  31.966  14.333  1.00  0.00     0.006 C 
HETATM   10  C17 UNL     1      17.898  32.104  15.661  1.00  0.00     0.001 C 
HETATM   11  C18 UNL     1      19.328  31.776  15.640  1.00  0.00     0.028 C 
HETATM   12  C19 UNL     1      20.166  32.594  16.526  1.00  0.00     0.123 C 
HETATM   13  C20 UNL     1      19.776  34.065  16.644  1.00  0.00     0.038 C 
HETATM   14  C21 UNL     1      18.360  33.999  17.225  1.00  0.00     0.012 C 
HETATM   15  C22 UNL     1      18.011  35.246  17.897  1.00  0.00     0.018 C 
HETATM   16  C23 UNL     1      18.580  35.164  19.336  1.00  0.00     0.023 C 
HETATM   17  C24 UNL     1      18.617  36.503  17.324  1.00  0.00     0.023 C 
HETATM   18  C25 UNL     1      16.540  35.390  18.124  1.00  0.00     0.135 C 
HETATM   19  O4  UNL     1      16.160  36.296  18.821  1.00  0.00    -0.297 OA
HETATM   20  C26 UNL     1      15.541  34.471  17.531  1.00  0.00     0.080 C 
HETATM   21  C27 UNL     1      16.123  33.195  17.033  1.00  0.00     0.017 C 
HETATM   22  C28 UNL     1      17.412  33.403  16.251  1.00  0.00    -0.035 C 
HETATM   23  C29 UNL     1      16.983  34.350  15.140  1.00  0.00     0.016 C 
ENDROOT
BRANCH   1  24
HETATM   24  C7  UNL     1      18.503  28.183  12.901  1.00  0.00    -0.019 C 
BRANCH  24  25
HETATM   25  C6  UNL     1      18.609  28.264  11.482  1.00  0.00    -0.005 C 
BRANCH  25  26
HETATM   26  C5  UNL     1      18.956  27.811  10.359  1.00  0.00     0.004 C 
BRANCH  26  27
HETATM   27  C4  UNL     1      18.752  26.644   9.490  1.00  0.00     0.146 C 
BRANCH  27  28
HETATM   28  C3  UNL     1      17.369  26.209   9.224  1.00  0.00     0.062 C 
BRANCH  28  29
HETATM   29  C2  UNL     1      17.260  25.372   7.979  1.00  0.00     0.169 C 
BRANCH  29  30
HETATM   30  O1  UNL     1      17.226  24.052   8.072  1.00  0.00    -0.396 OA
HETATM   31  C1  UNL     1      16.477  23.263   7.289  1.00  0.00     0.201 C 
ENDBRANCH  29  30
ENDBRANCH  28  29
ENDBRANCH  27  28
BRANCH  27  32
HETATM   32  O5  UNL     1      19.436  25.581  10.122  1.00  0.00    -0.380 OA
BRANCH  32  33
HETATM   33  C30 UNL     1      20.790  25.666  10.089  1.00  0.00     0.194 C 
BRANCH  33  34
HETATM   34  C31 UNL     1      21.426  25.284  11.416  1.00  0.00     0.193 C 
BRANCH  34  35
HETATM   35  O6  UNL     1      22.744  25.631  11.538  1.00  0.00    -0.387 OA
BRANCH  35  36
HETATM   36  C32 UNL     1      23.036  26.963  11.292  1.00  0.00     0.193 C 
BRANCH  36  37
HETATM   37  C33 UNL     1      24.365  27.361  11.917  1.00  0.00     0.190 C 
BRANCH  37  38
HETATM   38  O7  UNL     1      25.085  26.223  12.304  1.00  0.00    -0.399 OA
ATOM     39  H7  UNL     1      25.851  26.470  12.809  1.00  0.00     0.209 HD
ENDBRANCH  37  38
ENDBRANCH  36  37
ENDBRANCH  35  36
ENDBRANCH  34  35
ENDBRANCH  33  34
ENDBRANCH  32  33
ENDBRANCH  27  32
ENDBRANCH  26  27
ENDBRANCH  25  26
ENDBRANCH  24  25
ENDBRANCH   1  24
BRANCH   2  40
HETATM   40  O2  UNL     1      21.199  28.340  15.233  1.00  0.00    -0.395 OA
ATOM     41  H2  UNL     1      22.068  28.704  15.360  1.00  0.00     0.210 HD
ENDBRANCH   2  40
BRANCH  12  42
HETATM   42  O3  UNL     1      21.534  32.484  16.388  1.00  0.00    -0.395 OA
ATOM     43  H3  UNL     1      22.020  33.279  16.200  1.00  0.00     0.210 HD
ENDBRANCH  12  42
TORSDOF 16
ENDMDL
MODEL 2
REMARK VINA RESULT: -8.840123735      2.101     10.034
REMARK  16 active torsions:
REMARK  status: ('A' for Active; 'I' for Inactive)
REMARK    1  A    between atoms: O1_2  and  C2_3 
REMARK    2  A    between atoms: C2_3  and  C3_4 
REMARK    3  A    between atoms: C3_4  and  C4_5 
REMARK    4  A    between atoms: C4_5  and  C5_6 
REMARK    5  A    between atoms: C4_5  and  O5_36 
REMARK    6  A    between atoms: C5_6  and  C6_7 
REMARK    7  A    between atoms: C6_7  and  C7_8 
REMARK    8  A    between atoms: C7_8  and  C8_9 
REMARK    9  A    between atoms: C9_10  and  O2_11 
REMARK   10  A    between atoms: C19_22  and  O3_23 
REMARK   11  A    between atoms: O5_36  and  C30_37 
REMARK   12  A    between atoms: C30_37  and  C31_38 
REMARK   13  A    between atoms: C31_38  and  O6_39 
REMARK   14  A    between atoms: O6_39  and  C32_40 
REMARK   15  A    between atoms: C32_40  and  C33_41 
REMARK   16  A    between atoms: C33_41  and  O7_42 
ROOT
HETATM    1  C8  UNL     1      19.863  32.763  14.286  1.00  0.00     0.042 C 
HETATM    2  C9  UNL     1      21.171  33.167  14.805  1.00  0.00     0.126 C 
HETATM    3  C10 UNL     1      21.635  32.028  15.721  1.00  0.00     0.033 C 
HETATM    4  C11 UNL     1      21.828  30.870  14.715  1.00  0.00     0.012 C 
HETATM    5  C12 UNL     1      20.465  30.265  14.385  1.00  0.00    -0.033 C 
HETATM    6  C13 UNL     1      20.293  29.199  15.392  1.00  0.00     0.016 C 
HETATM    7  C14 UNL     1      19.458  31.336  14.560  1.00  0.00     0.004 C 
HETATM    8  C15 UNL     1      18.166  31.150  13.813  1.00  0.00     0.006 C 
HETATM    9  C16 UNL     1      17.979  29.766  13.243  1.00  0.00     0.006 C 
HETATM   10  C17 UNL     1      19.173  29.500  12.346  1.00  0.00     0.001 C 
HETATM   11  C18 UNL     1      20.484  29.802  12.934  1.00  0.00     0.028 C 
HETATM   12  C19 UNL     1      21.568  28.896  12.535  1.00  0.00     0.123 C 
HETATM   13  C20 UNL     1      21.185  27.427  12.371  1.00  0.00     0.038 C 
HETATM   14  C21 UNL     1      20.138  27.469  11.253  1.00  0.00     0.012 C 
HETATM   15  C22 UNL     1      20.032  26.175  10.587  1.00  0.00     0.018 C 
HETATM   16  C23 UNL     1      21.145  26.121   9.512  1.00  0.00     0.023 C 
HETATM   17  C24 UNL     1      20.281  24.961  11.448  1.00  0.00     0.023 C 
HETATM   18  C25 UNL     1      18.778  26.039   9.783  1.00  0.00     0.135 C 
HETATM   19  O4  UNL     1      18.672  25.083   9.058  1.00  0.00    -0.297 OA
HETATM   20  C26 UNL     1      17.674  27.023   9.842  1.00  0.00     0.080 C 
HETATM   21  C27 UNL     1      18.065  28.327  10.443  1.00  0.00     0.017 C 
HETATM   22  C28 UNL     1      18.906  28.164  11.701  1.00  0.00    -0.035 C 
HETATM   23  C29 UNL     1      18.009  27.325  12.600  1.00  0.00     0.016 C 
ENDROOT
BRANCH   1  24
HETATM   24  C7  UNL     1      18.795  33.633  14.822  1.00  0.00    -0.019 C 
BRANCH  24  25
HETATM   25  C6  UNL     1      18.465  33.852  16.190  1.00  0.00    -0.005 C 
BRANCH  25  26
HETATM   26  C5  UNL     1      18.747  34.201  17.367  1.00  0.00     0.004 C 
BRANCH  26  27
HETATM   27  C4  UNL     1      18.316  35.142  18.410  1.00  0.00     0.146 C 
BRANCH  27  28
HETATM   28  C3  UNL     1      17.320  36.167  18.051  1.00  0.00     0.062 C 
BRANCH  28  29
HETATM   29  C2  UNL     1      15.994  35.940  18.725  1.00  0.00     0.169 C 
BRANCH  29  30
HETATM   30  O1  UNL     1      15.529  34.709  18.865  1.00  0.00    -0.396 OA
HETATM   31  C1  UNL     1      15.020  33.980  17.862  1.00  0.00     0.201 C 
ENDBRANCH  29  30
ENDBRANCH  28  29
ENDBRANCH  27  28
BRANCH  27  32
HETATM   32  O5  UNL     1      19.494  35.799  18.833  1.00  0.00    -0.380 OA
BRANCH  32  33
HETATM   33  C30 UNL     1      19.988  36.715  17.962  1.00  0.00     0.194 C 
BRANCH  33  34
HETATM   34  C31 UNL     1      20.604  37.911  18.668  1.00  0.00     0.193 C 
BRANCH  34  35
HETATM   35  O6  UNL     1      21.048  37.659  19.938  1.00  0.00    -0.387 OA
BRANCH  35  36
HETATM   36  C32 UNL     1      22.362  37.230  20.036  1.00  0.00     0.193 C 
BRANCH  36  37
HETATM   37  C33 UNL     1      22.455  35.895  20.760  1.00  0.00     0.190 C 
BRANCH  37  38
HETATM   38  O7  UNL     1      21.199  35.515  21.249  1.00  0.00    -0.399 OA
ATOM     39  H7  UNL     1      21.181  34.583  21.431  1.00  0.00     0.209 HD
ENDBRANCH  37  38
ENDBRANCH  36  37
ENDBRANCH  35  36
ENDBRANCH  34  35
ENDBRANCH  33  34
ENDBRANCH  32  33
ENDBRANCH  27  32
ENDBRANCH  26  27
ENDBRANCH  25  26
ENDBRANCH  24  25
ENDBRANCH   1  24
BRANCH   2  40
HETATM   40  O2  UNL     1      22.199  33.226  13.833  1.00  0.00    -0.395 OA
ATOM     41  H2  UNL     1      23.080  33.170  14.184  1.00  0.00     0.210 HD
ENDBRANCH   2  40
BRANCH  12  42
HETATM   42  O3  UNL     1      22.761  28.992  13.219  1.00  0.00    -0.395 OA
ATOM     43  H3  UNL     1      23.480  29.437  12.786  1.00  0.00     0.210 HD
ENDBRANCH  12  42
TORSDOF 16
ENDMDL
MODEL 3
REMARK VINA RESULT: -8.805458359      2.509     10.446
REMARK  16 active torsions:
REMARK  status: ('A' for Active; 'I' for Inactive)
REMARK    1  A    between atoms: O1_2  and  C2_3 
REMARK    2  A    between atoms: C2_3  and  C3_4 
REMARK    3  A    between atoms: C3_4  and  C4_5 
REMARK    4  A    between atoms: C4_5  and  C5_6 
REMARK    5  A    between atoms: C4_5  and  O5_36 
REMARK    6  A    between atoms: C5_6  and  C6_7 
REMARK    7  A    between atoms: C6_7  and  C7_8 
REMARK    8  A    between atoms: C7_8  and  C8_9 
REMARK    9  A    between atoms: C9_10  and  O2_11 
REMARK   10  A    between atoms: C19_22  and  O3_23 
REMARK   11  A    between atoms: O5_36  and  C30_37 
REMARK   12  A    between atoms: C30_37  and  C31_38 
REMARK   13  A    between atoms: C31_38  and  O6_39 
REMARK   14  A    between atoms: O6_39  and  C32_40 
REMARK   15  A    between atoms: C32_40  and  C33_41 
REMARK   16  A    between atoms: C33_41  and  O7_42 
ROOT
HETATM    1  C8  UNL     1      20.862  32.267  16.193  1.00  0.00     0.042 C 
HETATM    2  C9  UNL     1      19.664  32.979  16.640  1.00  0.00     0.126 C 
HETATM    3  C10 UNL     1      19.043  33.599  15.381  1.00  0.00     0.033 C 
HETATM    4  C11 UNL     1      18.615  32.343  14.588  1.00  0.00     0.012 C 
HETATM    5  C12 UNL     1      19.840  31.755  13.890  1.00  0.00    -0.033 C 
HETATM    6  C13 UNL     1      19.862  32.428  12.576  1.00  0.00     0.016 C 
HETATM    7  C14 UNL     1      21.024  32.122  14.700  1.00  0.00     0.004 C 
HETATM    8  C15 UNL     1      22.236  31.248  14.524  1.00  0.00     0.006 C 
HETATM    9  C16 UNL     1      22.158  30.321  13.337  1.00  0.00     0.006 C 
HETATM   10  C17 UNL     1      20.904  29.487  13.517  1.00  0.00     0.001 C 
HETATM   11  C18 UNL     1      19.688  30.239  13.850  1.00  0.00     0.028 C 
HETATM   12  C19 UNL     1      18.450  29.707  13.269  1.00  0.00     0.123 C 
HETATM   13  C20 UNL     1      18.566  29.131  11.859  1.00  0.00     0.038 C 
HETATM   14  C21 UNL     1      19.562  27.981  12.040  1.00  0.00     0.012 C 
HETATM   15  C22 UNL     1      19.418  26.992  10.977  1.00  0.00     0.018 C 
HETATM   16  C23 UNL     1      18.274  26.036  11.395  1.00  0.00     0.023 C 
HETATM   17  C24 UNL     1      18.993  27.521   9.629  1.00  0.00     0.023 C 
HETATM   18  C25 UNL     1      20.598  26.080  10.871  1.00  0.00     0.135 C 
HETATM   19  O4  UNL     1      20.511  25.124  10.145  1.00  0.00    -0.297 OA
HETATM   20  C26 UNL     1      21.858  26.305  11.615  1.00  0.00     0.080 C 
HETATM   21  C27 UNL     1      21.722  27.258  12.750  1.00  0.00     0.017 C 
HETATM   22  C28 UNL     1      20.912  28.494  12.384  1.00  0.00    -0.035 C 
HETATM   23  C29 UNL     1      21.681  29.063  11.201  1.00  0.00     0.016 C 
ENDROOT
BRANCH   1  24
HETATM   24  C7  UNL     1      22.084  32.923  16.704  1.00  0.00    -0.019 C 
BRANCH  24  25
HETATM   25  C6  UNL     1      22.364  34.320  16.740  1.00  0.00    -0.005 C 
BRANCH  25  26
HETATM   26  C5  UNL     1      22.198  35.483  17.195  1.00  0.00     0.004 C 
BRANCH  26  27
HETATM   27  C4  UNL     1      21.555  36.187  18.312  1.00  0.00     0.146 C 
BRANCH  27  28
HETATM   28  C3  UNL     1      21.722  35.635  19.669  1.00  0.00     0.062 C 
BRANCH  28  29
HETATM   29  C2  UNL     1      22.748  36.386  20.472  1.00  0.00     0.169 C 
BRANCH  29  30
HETATM   30  O1  UNL     1      23.214  35.867  21.597  1.00  0.00    -0.396 OA
HETATM   31  C1  UNL     1      24.506  35.886  21.954  1.00  0.00     0.201 C 
ENDBRANCH  29  30
ENDBRANCH  28  29
ENDBRANCH  27  28
BRANCH  27  32
HETATM   32  O5  UNL     1      20.175  36.197  18.006  1.00  0.00    -0.380 OA
BRANCH  32  33
HETATM   33  C30 UNL     1      19.368  35.680  18.967  1.00  0.00     0.194 C 
BRANCH  33  34
HETATM   34  C31 UNL     1      17.897  35.764  18.593  1.00  0.00     0.193 C 
BRANCH  34  35
HETATM   35  O6  UNL     1      17.257  34.557  18.513  1.00  0.00    -0.387 OA
BRANCH  35  36
HETATM   36  C32 UNL     1      15.909  34.616  18.201  1.00  0.00     0.193 C 
BRANCH  36  37
HETATM   37  C33 UNL     1      15.654  34.167  16.770  1.00  0.00     0.190 C 
BRANCH  37  38
HETATM   38  O7  UNL     1      15.776  32.776  16.664  1.00  0.00    -0.399 OA
ATOM     39  H7  UNL     1      16.684  32.533  16.520  1.00  0.00     0.209 HD
ENDBRANCH  37  38
ENDBRANCH  36  37
ENDBRANCH  35  36
ENDBRANCH  34  35
ENDBRANCH  33  34
ENDBRANCH  32  33
ENDBRANCH  27  32
ENDBRANCH  26  27
ENDBRANCH  25  26
ENDBRANCH  24  25
ENDBRANCH   1  24
BRANCH   2  40
HETATM   40  O2  UNL     1      18.627  32.145  17.123  1.00  0.00    -0.395 OA
ATOM     41  H2  UNL     1      18.500  32.177  18.065  1.00  0.00     0.210 HD
ENDBRANCH   2  40
BRANCH  12  42
HETATM   42  O3  UNL     1      17.317  30.488  13.361  1.00  0.00    -0.395 OA
ATOM     43  H3  UNL     1      17.397  31.404  13.124  1.00  0.00     0.210 HD
ENDBRANCH  12  42
TORSDOF 16
ENDMDL
MODEL 4
REMARK VINA RESULT: -8.724757839      1.597      2.017
REMARK  16 active torsions:
REMARK  status: ('A' for Active; 'I' for Inactive)
REMARK    1  A    between atoms: O1_2  and  C2_3 
REMARK    2  A    between atoms: C2_3  and  C3_4 
REMARK    3  A    between atoms: C3_4  and  C4_5 
REMARK    4  A    between atoms: C4_5  and  C5_6 
REMARK    5  A    between atoms: C4_5  and  O5_36 
REMARK    6  A    between atoms: C5_6  and  C6_7 
REMARK    7  A    between atoms: C6_7  and  C7_8 
REMARK    8  A    between atoms: C7_8  and  C8_9 
REMARK    9  A    between atoms: C9_10  and  O2_11 
REMARK   10  A    between atoms: C19_22  and  O3_23 
REMARK   11  A    between atoms: O5_36  and  C30_37 
REMARK   12  A    between atoms: C30_37  and  C31_38 
REMARK   13  A    between atoms: C31_38  and  O6_39 
REMARK   14  A    between atoms: O6_39  and  C32_40 
REMARK   15  A    between atoms: C32_40  and  C33_41 
REMARK   16  A    between atoms: C33_41  and  O7_42 
ROOT
HETATM    1  C8  UNL     1      19.166  28.690  12.968  1.00  0.00     0.042 C 
HETATM    2  C9  UNL     1      20.376  28.067  12.430  1.00  0.00     0.126 C 
HETATM    3  C10 UNL     1      21.091  29.155  11.619  1.00  0.00     0.033 C 
HETATM    4  C11 UNL     1      21.491  30.160  12.724  1.00  0.00     0.012 C 
HETATM    5  C12 UNL     1      20.274  31.007  13.090  1.00  0.00    -0.033 C 
HETATM    6  C13 UNL     1      20.354  32.165  12.177  1.00  0.00     0.016 C 
HETATM    7  C14 UNL     1      19.072  30.188  12.813  1.00  0.00     0.004 C 
HETATM    8  C15 UNL     1      17.826  30.578  13.561  1.00  0.00     0.006 C 
HETATM    9  C16 UNL     1      17.914  31.918  14.245  1.00  0.00     0.006 C 
HETATM   10  C17 UNL     1      19.112  31.855  15.174  1.00  0.00     0.001 C 
HETATM   11  C18 UNL     1      20.347  31.336  14.576  1.00  0.00     0.028 C 
HETATM   12  C19 UNL     1      21.584  31.960  15.063  1.00  0.00     0.123 C 
HETATM   13  C20 UNL     1      21.508  33.458  15.348  1.00  0.00     0.038 C 
HETATM   14  C21 UNL     1      20.445  33.544  16.448  1.00  0.00     0.012 C 
HETATM   15  C22 UNL     1      20.590  34.772  17.221  1.00  0.00     0.018 C 
HETATM   16  C23 UNL     1      21.659  34.504  18.309  1.00  0.00     0.023 C 
HETATM   17  C24 UNL     1      21.109  35.974  16.471  1.00  0.00     0.023 C 
HETATM   18  C25 UNL     1      19.370  35.100  18.022  1.00  0.00     0.135 C 
HETATM   19  O4  UNL     1      19.443  35.994  18.825  1.00  0.00    -0.297 OA
HETATM   20  C26 UNL     1      18.087  34.376  17.867  1.00  0.00     0.080 C 
HETATM   21  C27 UNL     1      18.217  33.073  17.159  1.00  0.00     0.017 C 
HETATM   22  C28 UNL     1      19.108  33.159  15.928  1.00  0.00    -0.035 C 
HETATM   23  C29 UNL     1      18.431  34.238  15.097  1.00  0.00     0.016 C 
ENDROOT
BRANCH   1  24
HETATM   24  C7  UNL     1      17.956  28.109  12.348  1.00  0.00    -0.019 C 
BRANCH  24  25
HETATM   25  C6  UNL     1      17.662  28.007  10.958  1.00  0.00    -0.005 C 
BRANCH  25  26
HETATM   26  C5  UNL     1      17.956  27.699   9.772  1.00  0.00     0.004 C 
BRANCH  26  27
HETATM   27  C4  UNL     1      18.484  26.576   8.985  1.00  0.00     0.146 C 
BRANCH  27  28
HETATM   28  C3  UNL     1      17.550  25.837   8.116  1.00  0.00     0.062 C 
BRANCH  28  29
HETATM   29  C2  UNL     1      17.569  26.335   6.697  1.00  0.00     0.169 C 
BRANCH  29  30
HETATM   30  O1  UNL     1      18.527  27.158   6.301  1.00  0.00    -0.396 OA
HETATM   31  C1  UNL     1      18.339  28.172   5.444  1.00  0.00     0.201 C 
ENDBRANCH  29  30
ENDBRANCH  28  29
ENDBRANCH  27  28
BRANCH  27  32
HETATM   32  O5  UNL     1      19.016  25.671   9.931  1.00  0.00    -0.380 OA
BRANCH  32  33
HETATM   33  C30 UNL     1      20.371  25.624   9.984  1.00  0.00     0.194 C 
BRANCH  33  34
HETATM   34  C31 UNL     1      20.877  24.911  11.227  1.00  0.00     0.193 C 
BRANCH  34  35
HETATM   35  O6  UNL     1      22.147  25.254  11.606  1.00  0.00    -0.387 OA
BRANCH  35  36
HETATM   36  C32 UNL     1      22.978  25.686  10.585  1.00  0.00     0.193 C 
BRANCH  36  37
HETATM   37  C33 UNL     1      24.027  26.660  11.102  1.00  0.00     0.190 C 
BRANCH  37  38
HETATM   38  O7  UNL     1      24.888  26.019  12.001  1.00  0.00    -0.399 OA
ATOM     39  H7  UNL     1      25.491  26.644  12.388  1.00  0.00     0.209 HD
ENDBRANCH  37  38
ENDBRANCH  36  37
ENDBRANCH  35  36
ENDBRANCH  34  35
ENDBRANCH  33  34
ENDBRANCH  32  33
ENDBRANCH  27  32
ENDBRANCH  26  27
ENDBRANCH  25  26
ENDBRANCH  24  25
ENDBRANCH   1  24
BRANCH   2  40
HETATM   40  O2  UNL     1      21.342  27.715  13.403  1.00  0.00    -0.395 OA
ATOM     41  H2  UNL     1      21.309  28.233  14.199  1.00  0.00     0.210 HD
ENDBRANCH   2  40
BRANCH  12  42
HETATM   42  O3  UNL     1      22.750  31.674  14.385  1.00  0.00    -0.395 OA
ATOM     43  H3  UNL     1      23.006  30.761  14.319  1.00  0.00     0.210 HD
ENDBRANCH  12  42
TORSDOF 16
ENDMDL
MODEL 5
REMARK VINA RESULT: -8.719301343      1.658      2.219
REMARK  16 active torsions:
REMARK  status: ('A' for Active; 'I' for Inactive)
REMARK    1  A    between atoms: O1_2  and  C2_3 
REMARK    2  A    between atoms: C2_3  and  C3_4 
REMARK    3  A    between atoms: C3_4  and  C4_5 
REMARK    4  A    between atoms: C4_5  and  C5_6 
REMARK    5  A    between atoms: C4_5  and  O5_36 
REMARK    6  A    between atoms: C5_6  and  C6_7 
REMARK    7  A    between atoms: C6_7  and  C7_8 
REMARK    8  A    between atoms: C7_8  and  C8_9 
REMARK    9  A    between atoms: C9_10  and  O2_11 
REMARK   10  A    between atoms: C19_22  and  O3_23 
REMARK   11  A    between atoms: O5_36  and  C30_37 
REMARK   12  A    between atoms: C30_37  and  C31_38 
REMARK   13  A    between atoms: C31_38  and  O6_39 
REMARK   14  A    between atoms: O6_39  and  C32_40 
REMARK   15  A    between atoms: C32_40  and  C33_41 
REMARK   16  A    between atoms: C33_41  and  O7_42 
ROOT
HETATM    1  C8  UNL     1      19.166  29.760  14.665  1.00  0.00     0.042 C 
HETATM    2  C9  UNL     1      20.241  28.805  14.390  1.00  0.00     0.126 C 
HETATM    3  C10 UNL     1      21.322  29.588  13.634  1.00  0.00     0.033 C 
HETATM    4  C11 UNL     1      21.800  30.589  14.711  1.00  0.00     0.012 C 
HETATM    5  C12 UNL     1      20.800  31.741  14.799  1.00  0.00    -0.033 C 
HETATM    6  C13 UNL     1      21.307  32.730  13.828  1.00  0.00     0.016 C 
HETATM    7  C14 UNL     1      19.482  31.208  14.383  1.00  0.00     0.004 C 
HETATM    8  C15 UNL     1      18.282  31.970  14.875  1.00  0.00     0.006 C 
HETATM    9  C16 UNL     1      18.609  33.320  15.461  1.00  0.00     0.006 C 
HETATM   10  C17 UNL     1      19.601  33.079  16.583  1.00  0.00     0.001 C 
HETATM   11  C18 UNL     1      20.736  32.212  16.246  1.00  0.00     0.028 C 
HETATM   12  C19 UNL     1      22.006  32.573  16.888  1.00  0.00     0.123 C 
HETATM   13  C20 UNL     1      22.276  34.068  17.042  1.00  0.00     0.038 C 
HETATM   14  C21 UNL     1      21.120  34.534  17.934  1.00  0.00     0.012 C 
HETATM   15  C22 UNL     1      21.460  35.773  18.626  1.00  0.00     0.018 C 
HETATM   16  C23 UNL     1      22.254  35.384  19.898  1.00  0.00     0.023 C 
HETATM   17  C24 UNL     1      22.374  36.719  17.887  1.00  0.00     0.023 C 
HETATM   18  C25 UNL     1      20.261  36.475  19.179  1.00  0.00     0.135 C 
HETATM   19  O4  UNL     1      20.442  37.413  19.912  1.00  0.00    -0.297 OA
HETATM   20  C26 UNL     1      18.873  36.068  18.862  1.00  0.00     0.080 C 
HETATM   21  C27 UNL     1      18.767  34.699  18.288  1.00  0.00     0.017 C 
HETATM   22  C28 UNL     1      19.821  34.425  17.225  1.00  0.00    -0.035 C 
HETATM   23  C29 UNL     1      19.572  35.530  16.210  1.00  0.00     0.016 C 
ENDROOT
BRANCH   1  24
HETATM   24  C7  UNL     1      17.952  29.418  13.893  1.00  0.00    -0.019 C 
BRANCH  24  25
HETATM   25  C6  UNL     1      17.832  29.302  12.478  1.00  0.00    -0.005 C 
BRANCH  25  26
HETATM   26  C5  UNL     1      17.822  28.639  11.407  1.00  0.00     0.004 C 
BRANCH  26  27
HETATM   27  C4  UNL     1      18.739  27.970  10.474  1.00  0.00     0.146 C 
BRANCH  27  28
HETATM   28  C3  UNL     1      18.174  27.383   9.245  1.00  0.00     0.062 C 
BRANCH  28  29
HETATM   29  C2  UNL     1      17.544  26.039   9.488  1.00  0.00     0.169 C 
BRANCH  29  30
HETATM   30  O1  UNL     1      17.918  24.996   8.764  1.00  0.00    -0.396 OA
HETATM   31  C1  UNL     1      18.182  25.050   7.451  1.00  0.00     0.201 C 
ENDBRANCH  29  30
ENDBRANCH  28  29
ENDBRANCH  27  28
BRANCH  27  32
HETATM   32  O5  UNL     1      19.344  26.934  11.220  1.00  0.00    -0.380 OA
BRANCH  32  33
HETATM   33  C30 UNL     1      20.698  26.886  11.147  1.00  0.00     0.194 C 
BRANCH  33  34
HETATM   34  C31 UNL     1      21.233  25.467  11.243  1.00  0.00     0.193 C 
BRANCH  34  35
HETATM   35  O6  UNL     1      22.579  25.378  11.474  1.00  0.00    -0.387 OA
BRANCH  35  36
HETATM   36  C32 UNL     1      23.385  26.051  10.572  1.00  0.00     0.193 C 
BRANCH  36  37
HETATM   37  C33 UNL     1      24.409  26.920  11.288  1.00  0.00     0.190 C 
BRANCH  37  38
HETATM   38  O7  UNL     1      25.039  26.195  12.307  1.00  0.00    -0.399 OA
ATOM     39  H7  UNL     1      25.966  26.099  12.123  1.00  0.00     0.209 HD
ENDBRANCH  37  38
ENDBRANCH  36  37
ENDBRANCH  35  36
ENDBRANCH  34  35
ENDBRANCH  33  34
ENDBRANCH  32  33
ENDBRANCH  27  32
ENDBRANCH  26  27
ENDBRANCH  25  26
ENDBRANCH  24  25
ENDBRANCH   1  24
BRANCH   2  40
HETATM   40  O2  UNL     1      20.931  28.347  15.539  1.00  0.00    -0.395 OA
ATOM     41  H2  UNL     1      21.593  27.687  15.366  1.00  0.00     0.210 HD
ENDBRANCH   2  40
BRANCH  12  42
HETATM   42  O3  UNL     1      23.146  31.938  16.444  1.00  0.00    -0.395 OA
ATOM     43  H3  UNL     1      23.759  31.628  17.100  1.00  0.00     0.210 HD
ENDBRANCH  12  42
TORSDOF 16
ENDMDL
