MODEL 1
REMARK VINA RESULT: -7.350267851      0.000      0.000
REMARK  16 active torsions:
REMARK  status: ('A' for Active; 'I' for Inactive)
REMARK    1  A    between atoms: C2_2  and  O1_3 
REMARK    2  A    between atoms: O1_3  and  C3_4 
REMARK    3  A    between atoms: C4_5  and  N1_6 
REMARK    4  A    between atoms: C8_14  and  C9_15 
REMARK       I    between atoms: C9_15  and  N3_17 
REMARK    5  A    between atoms: N3_17  and  C10_19 
REMARK    6  A    between atoms: C16_25  and  O4_26 
REMARK    7  A    between atoms: C18_28  and  C19_29 
REMARK       I    between atoms: C19_29  and  N4_31 
REMARK    8  A    between atoms: N4_31  and  C20_33 
REMARK    9  A    between atoms: C20_33  and  C21_34 
REMARK   10  A    between atoms: C21_34  and  C22_35 
REMARK   11  A    between atoms: C22_35  and  C23_36 
REMARK   12  A    between atoms: C23_36  and  C24_37 
REMARK   13  A    between atoms: C24_37  and  C25_38 
REMARK   14  A    between atoms: C25_38  and  C26_39 
REMARK   15  A    between atoms: C26_39  and  C27_40 
REMARK   16  A    between atoms: C27_40  and  N5_41 
ROOT
HETATM    1  C3  UNL     1      20.489  33.573  15.007  1.00  0.00     0.114 A 
HETATM    2  C4  UNL     1      21.469  34.299  15.576  1.00  0.00     0.072 A 
HETATM    3  C14 UNL     1      22.775  34.026  15.132  1.00  0.00     0.035 A 
HETATM    4  C15 UNL     1      23.069  33.078  14.184  1.00  0.00     0.040 A 
HETATM    5  C16 UNL     1      22.052  32.346  13.628  1.00  0.00     0.086 A 
HETATM    6  C18 UNL     1      20.730  32.580  14.032  1.00  0.00     0.101 A 
ENDROOT
BRANCH   6   7
HETATM    7  C19 UNL     1      19.722  31.698  13.506  1.00  0.00     0.268 C 
HETATM    8  O5  UNL     1      18.952  32.045  12.542  1.00  0.00    -0.266 OA
HETATM    9  N4  UNL     1      19.471  30.357  13.982  1.00  0.00    -0.292 N 
ATOM     10  H4  UNL     1      20.072  30.020  14.734  1.00  0.00     0.178 HD
BRANCH   9  11
HETATM   11  C20 UNL     1      18.527  29.504  13.538  1.00  0.00    -0.068 C 
BRANCH  11  12
HETATM   12  C21 UNL     1      17.530  28.601  13.053  1.00  0.00     0.104 C 
BRANCH  12  13
HETATM   13  C22 UNL     1      17.084  28.938  11.636  1.00  0.00     0.013 C 
BRANCH  13  14
HETATM   14  C23 UNL     1      17.530  27.944  10.641  1.00  0.00     0.001 C 
BRANCH  14  15
HETATM   15  C24 UNL     1      18.183  26.748  11.271  1.00  0.00     0.000 C 
BRANCH  15  16
HETATM   16  C25 UNL     1      19.612  26.714  10.717  1.00  0.00     0.002 C 
BRANCH  16  17
HETATM   17  C26 UNL     1      20.649  27.124  11.727  1.00  0.00     0.030 C 
BRANCH  17  18
HETATM   18  C27 UNL     1      21.981  27.159  10.977  1.00  0.00     0.272 C 
BRANCH  18  19
HETATM   19  N5  UNL     1      22.813  26.098  11.465  1.00  0.00     0.088 N 
HETATM   20  C28 UNL     1      23.122  25.090  10.456  1.00  0.00     0.272 C 
HETATM   21  C29 UNL     1      23.794  25.697   9.239  1.00  0.00     0.030 C 
HETATM   22  C30 UNL     1      25.124  26.270   9.713  1.00  0.00     0.003 C 
HETATM   23  C31 UNL     1      24.842  27.260  10.813  1.00  0.00     0.030 C 
HETATM   24  C32 UNL     1      24.095  26.631  11.954  1.00  0.00     0.272 C 
ENDBRANCH  18  19
ENDBRANCH  17  18
ENDBRANCH  16  17
ENDBRANCH  15  16
ENDBRANCH  14  15
ENDBRANCH  13  14
ENDBRANCH  12  13
ENDBRANCH  11  12
ENDBRANCH   9  11
ENDBRANCH   6   7
BRANCH   1  25
HETATM   25  O1  UNL     1      19.150  33.749  15.302  1.00  0.00    -0.348 OA
BRANCH  25  26
HETATM   26  C2  UNL     1      18.562  33.089  16.389  1.00  0.00     0.171 C 
HETATM   27  C1  UNL     1      17.281  32.387  16.224  1.00  0.00     0.034 C 
ENDBRANCH  25  26
ENDBRANCH   1  25
BRANCH   5  28
HETATM   28  O4  UNL     1      22.257  31.370  12.673  1.00  0.00    -0.355 OA
HETATM   29  C17 UNL     1      22.948  30.178  12.819  1.00  0.00     0.210 C 
ENDBRANCH   5  28
BRANCH   2  30
HETATM   30  N1  UNL     1      21.282  35.169  16.685  1.00  0.00    -0.298 N 
HETATM   31  C5  UNL     1      21.863  34.563  17.902  1.00  0.00     0.251 C 
HETATM   32  O2  UNL     1      21.769  33.289  18.058  1.00  0.00    -0.271 OA
HETATM   33  C6  UNL     1      22.539  35.395  18.919  1.00  0.00     0.335 C 
HETATM   34  N2  UNL     1      22.006  36.754  18.913  1.00  0.00    -0.064 N 
HETATM   35  C7  UNL     1      20.653  36.722  18.389  1.00  0.00     0.268 C 
ATOM     36  H22 UNL     1      22.059  37.198  19.830  1.00  0.00     0.277 HD
ATOM     37  H21 UNL     1      22.605  37.407  18.406  1.00  0.00     0.277 HD
HETATM   38  C8  UNL     1      20.682  36.402  16.863  1.00  0.00     0.210 C 
BRANCH  38  39
HETATM   39  C9  UNL     1      21.173  37.625  16.251  1.00  0.00     0.243 C 
HETATM   40  O3  UNL     1      22.416  37.561  15.899  1.00  0.00    -0.271 OA
HETATM   41  N3  UNL     1      20.532  38.841  15.983  1.00  0.00    -0.351 N 
ATOM     42  H3  UNL     1      19.551  38.963  16.235  1.00  0.00     0.163 HD
BRANCH  41  43
HETATM   43  C10 UNL     1      21.258  39.933  15.348  1.00  0.00     0.022 C 
HETATM   44  C11 UNL     1      20.367  41.146  15.447  1.00  0.00     0.037 C 
HETATM   45  C12 UNL     1      22.571  40.209  16.059  1.00  0.00     0.037 C 
HETATM   46  C13 UNL     1      21.579  39.685  13.903  1.00  0.00     0.037 C 
ENDBRANCH  41  43
ENDBRANCH  38  39
ENDBRANCH   2  30
TORSDOF 16
ENDMDL
MODEL 2
REMARK VINA RESULT: -7.261267215      4.096      7.119
REMARK  16 active torsions:
REMARK  status: ('A' for Active; 'I' for Inactive)
REMARK    1  A    between atoms: C2_2  and  O1_3 
REMARK    2  A    between atoms: O1_3  and  C3_4 
REMARK    3  A    between atoms: C4_5  and  N1_6 
REMARK    4  A    between atoms: C8_14  and  C9_15 
REMARK       I    between atoms: C9_15  and  N3_17 
REMARK    5  A    between atoms: N3_17  and  C10_19 
REMARK    6  A    between atoms: C16_25  and  O4_26 
REMARK    7  A    between atoms: C18_28  and  C19_29 
REMARK       I    between atoms: C19_29  and  N4_31 
REMARK    8  A    between atoms: N4_31  and  C20_33 
REMARK    9  A    between atoms: C20_33  and  C21_34 
REMARK   10  A    between atoms: C21_34  and  C22_35 
REMARK   11  A    between atoms: C22_35  and  C23_36 
REMARK   12  A    between atoms: C23_36  and  C24_37 
REMARK   13  A    between atoms: C24_37  and  C25_38 
REMARK   14  A    between atoms: C25_38  and  C26_39 
REMARK   15  A    between atoms: C26_39  and  C27_40 
REMARK   16  A    between atoms: C27_40  and  N5_41 
ROOT
HETATM    1  C3  UNL     1      18.463  37.524  18.121  1.00  0.00     0.114 A 
HETATM    2  C4  UNL     1      17.395  38.273  18.449  1.00  0.00     0.072 A 
HETATM    3  C14 UNL     1      16.161  37.600  18.495  1.00  0.00     0.035 A 
HETATM    4  C15 UNL     1      16.018  36.263  18.219  1.00  0.00     0.040 A 
HETATM    5  C16 UNL     1      17.123  35.526  17.879  1.00  0.00     0.086 A 
HETATM    6  C18 UNL     1      18.378  36.146  17.821  1.00  0.00     0.101 A 
ENDROOT
BRANCH   6   7
HETATM    7  C19 UNL     1      19.477  35.351  17.338  1.00  0.00     0.268 C 
HETATM    8  O5  UNL     1      20.427  34.969  18.107  1.00  0.00    -0.266 OA
HETATM    9  N4  UNL     1      19.628  34.898  15.974  1.00  0.00    -0.292 N 
ATOM     10  H4  UNL     1      18.886  35.154  15.323  1.00  0.00     0.178 HD
BRANCH   9  11
HETATM   11  C20 UNL     1      20.646  34.173  15.471  1.00  0.00    -0.068 C 
BRANCH  11  12
HETATM   12  C21 UNL     1      21.726  33.396  14.949  1.00  0.00     0.104 C 
BRANCH  12  13
HETATM   13  C22 UNL     1      21.250  32.315  13.987  1.00  0.00     0.013 C 
BRANCH  13  14
HETATM   14  C23 UNL     1      22.354  31.680  13.242  1.00  0.00     0.001 C 
BRANCH  14  15
HETATM   15  C24 UNL     1      22.008  30.300  12.761  1.00  0.00     0.000 C 
BRANCH  15  16
HETATM   16  C25 UNL     1      22.467  29.346  13.870  1.00  0.00     0.002 C 
BRANCH  16  17
HETATM   17  C26 UNL     1      21.339  28.560  14.482  1.00  0.00     0.030 C 
BRANCH  17  18
HETATM   18  C27 UNL     1      20.238  28.506  13.423  1.00  0.00     0.272 C 
BRANCH  18  19
HETATM   19  N5  UNL     1      18.964  28.553  14.079  1.00  0.00     0.088 N 
HETATM   20  C28 UNL     1      18.345  29.875  14.055  1.00  0.00     0.272 C 
HETATM   21  C29 UNL     1      18.167  30.386  12.638  1.00  0.00     0.030 C 
HETATM   22  C30 UNL     1      17.201  29.432  11.946  1.00  0.00     0.003 C 
HETATM   23  C31 UNL     1      17.777  28.043  12.025  1.00  0.00     0.030 C 
HETATM   24  C32 UNL     1      18.021  27.619  13.445  1.00  0.00     0.272 C 
ENDBRANCH  18  19
ENDBRANCH  17  18
ENDBRANCH  16  17
ENDBRANCH  15  16
ENDBRANCH  14  15
ENDBRANCH  13  14
ENDBRANCH  12  13
ENDBRANCH  11  12
ENDBRANCH   9  11
ENDBRANCH   6   7
BRANCH   1  25
HETATM   25  O1  UNL     1      19.751  38.024  18.073  1.00  0.00    -0.348 OA
BRANCH  25  26
HETATM   26  C2  UNL     1      20.230  38.664  16.922  1.00  0.00     0.171 C 
HETATM   27  C1  UNL     1      21.480  38.215  16.291  1.00  0.00     0.034 C 
ENDBRANCH  25  26
ENDBRANCH   1  25
BRANCH   5  28
HETATM   28  O4  UNL     1      17.070  34.178  17.582  1.00  0.00    -0.355 OA
HETATM   29  C17 UNL     1      16.159  33.529  16.764  1.00  0.00     0.210 C 
ENDBRANCH   5  28
BRANCH   2  30
HETATM   30  N1  UNL     1      17.417  39.689  18.573  1.00  0.00    -0.298 N 
HETATM   31  C5  UNL     1      16.819  40.308  17.371  1.00  0.00     0.251 C 
HETATM   32  O2  UNL     1      17.029  39.758  16.228  1.00  0.00    -0.271 OA
HETATM   33  C6  UNL     1      15.993  41.530  17.474  1.00  0.00     0.335 C 
HETATM   34  N2  UNL     1      16.385  42.322  18.637  1.00  0.00    -0.064 N 
HETATM   35  C7  UNL     1      17.767  42.021  18.962  1.00  0.00     0.268 C 
ATOM     36  H22 UNL     1      16.225  43.320  18.501  1.00  0.00     0.277 HD
ATOM     37  H21 UNL     1      15.759  42.187  19.431  1.00  0.00     0.277 HD
HETATM   38  C8  UNL     1      17.875  40.574  19.532  1.00  0.00     0.210 C 
BRANCH  38  39
HETATM   39  C9  UNL     1      17.306  40.672  20.866  1.00  0.00     0.243 C 
HETATM   40  O3  UNL     1      17.637  41.756  21.488  1.00  0.00    -0.271 OA
HETATM   41  N3  UNL     1      16.472  39.799  21.576  1.00  0.00    -0.351 N 
ATOM     42  H3  UNL     1      16.172  38.924  21.147  1.00  0.00     0.163 HD
BRANCH  41  43
HETATM   43  C10 UNL     1      16.032  40.135  22.924  1.00  0.00     0.022 C 
HETATM   44  C11 UNL     1      15.175  41.370  22.791  1.00  0.00     0.037 C 
HETATM   45  C12 UNL     1      15.211  39.012  23.531  1.00  0.00     0.037 C 
HETATM   46  C13 UNL     1      17.158  40.426  23.872  1.00  0.00     0.037 C 
ENDBRANCH  41  43
ENDBRANCH  38  39
ENDBRANCH   2  30
TORSDOF 16
ENDMDL
MODEL 3
REMARK VINA RESULT: -7.258930413      2.742      5.728
REMARK  16 active torsions:
REMARK  status: ('A' for Active; 'I' for Inactive)
REMARK    1  A    between atoms: C2_2  and  O1_3 
REMARK    2  A    between atoms: O1_3  and  C3_4 
REMARK    3  A    between atoms: C4_5  and  N1_6 
REMARK    4  A    between atoms: C8_14  and  C9_15 
REMARK       I    between atoms: C9_15  and  N3_17 
REMARK    5  A    between atoms: N3_17  and  C10_19 
REMARK    6  A    between atoms: C16_25  and  O4_26 
REMARK    7  A    between atoms: C18_28  and  C19_29 
REMARK       I    between atoms: C19_29  and  N4_31 
REMARK    8  A    between atoms: N4_31  and  C20_33 
REMARK    9  A    between atoms: C20_33  and  C21_34 
REMARK   10  A    between atoms: C21_34  and  C22_35 
REMARK   11  A    between atoms: C22_35  and  C23_36 
REMARK   12  A    between atoms: C23_36  and  C24_37 
REMARK   13  A    between atoms: C24_37  and  C25_38 
REMARK   14  A    between atoms: C25_38  and  C26_39 
REMARK   15  A    between atoms: C26_39  and  C27_40 
REMARK   16  A    between atoms: C27_40  and  N5_41 
ROOT
HETATM    1  C3  UNL     1      18.141  36.632  17.224  1.00  0.00     0.114 A 
HETATM    2  C4  UNL     1      17.155  37.545  17.288  1.00  0.00     0.072 A 
HETATM    3  C14 UNL     1      15.875  37.096  16.918  1.00  0.00     0.035 A 
HETATM    4  C15 UNL     1      15.614  35.814  16.505  1.00  0.00     0.040 A 
HETATM    5  C16 UNL     1      16.640  34.906  16.441  1.00  0.00     0.086 A 
HETATM    6  C18 UNL     1      17.936  35.301  16.801  1.00  0.00     0.101 A 
ENDROOT
BRANCH   6   7
HETATM    7  C19 UNL     1      18.990  34.342  16.595  1.00  0.00     0.268 C 
HETATM    8  O5  UNL     1      18.999  33.206  17.187  1.00  0.00    -0.266 OA
HETATM    9  N4  UNL     1      20.122  34.539  15.719  1.00  0.00    -0.292 N 
ATOM     10  H4  UNL     1      20.152  35.418  15.203  1.00  0.00     0.178 HD
BRANCH   9  11
HETATM   11  C20 UNL     1      21.141  33.684  15.511  1.00  0.00    -0.068 C 
BRANCH  11  12
HETATM   12  C21 UNL     1      22.216  32.765  15.295  1.00  0.00     0.104 C 
BRANCH  12  13
HETATM   13  C22 UNL     1      22.373  32.392  13.827  1.00  0.00     0.013 C 
BRANCH  13  14
HETATM   14  C23 UNL     1      21.208  31.662  13.290  1.00  0.00     0.001 C 
BRANCH  14  15
HETATM   15  C24 UNL     1      21.603  30.494  12.433  1.00  0.00     0.000 C 
BRANCH  15  16
HETATM   16  C25 UNL     1      22.186  29.451  13.393  1.00  0.00     0.002 C 
BRANCH  16  17
HETATM   17  C26 UNL     1      21.134  28.704  14.167  1.00  0.00     0.030 C 
BRANCH  17  18
HETATM   18  C27 UNL     1      20.058  28.316  13.152  1.00  0.00     0.272 C 
BRANCH  18  19
HETATM   19  N5  UNL     1      18.792  28.253  13.824  1.00  0.00     0.088 N 
HETATM   20  C28 UNL     1      18.120  29.545  13.919  1.00  0.00     0.272 C 
HETATM   21  C29 UNL     1      17.901  30.168  12.554  1.00  0.00     0.030 C 
HETATM   22  C30 UNL     1      16.965  29.238  11.793  1.00  0.00     0.003 C 
HETATM   23  C31 UNL     1      17.598  27.872  11.745  1.00  0.00     0.030 C 
HETATM   24  C32 UNL     1      17.879  27.338  13.121  1.00  0.00     0.272 C 
ENDBRANCH  18  19
ENDBRANCH  17  18
ENDBRANCH  16  17
ENDBRANCH  15  16
ENDBRANCH  14  15
ENDBRANCH  13  14
ENDBRANCH  12  13
ENDBRANCH  11  12
ENDBRANCH   9  11
ENDBRANCH   6   7
BRANCH   1  25
HETATM   25  O1  UNL     1      19.446  36.903  17.594  1.00  0.00    -0.348 OA
BRANCH  25  26
HETATM   26  C2  UNL     1      19.863  36.746  18.923  1.00  0.00     0.171 C 
HETATM   27  C1  UNL     1      20.975  35.841  19.248  1.00  0.00     0.034 C 
ENDBRANCH  25  26
ENDBRANCH   1  25
BRANCH   5  28
HETATM   28  O4  UNL     1      16.469  33.598  16.032  1.00  0.00    -0.355 OA
HETATM   29  C17 UNL     1      15.515  32.695  16.474  1.00  0.00     0.210 C 
ENDBRANCH   5  28
BRANCH   2  30
HETATM   30  N1  UNL     1      17.360  38.931  17.529  1.00  0.00    -0.298 N 
HETATM   31  C5  UNL     1      16.960  39.266  18.912  1.00  0.00     0.251 C 
HETATM   32  O2  UNL     1      15.940  38.667  19.417  1.00  0.00    -0.271 OA
HETATM   33  C6  UNL     1      17.713  40.261  19.703  1.00  0.00     0.335 C 
HETATM   34  N2  UNL     1      18.356  41.238  18.829  1.00  0.00    -0.064 N 
HETATM   35  C7  UNL     1      17.615  41.307  17.583  1.00  0.00     0.268 C 
ATOM     36  H22 UNL     1      18.459  42.151  19.272  1.00  0.00     0.277 HD
ATOM     37  H21 UNL     1      19.346  41.040  18.683  1.00  0.00     0.277 HD
HETATM   38  C8  UNL     1      17.820  39.992  16.770  1.00  0.00     0.210 C 
BRANCH  38  39
HETATM   39  C9  UNL     1      19.182  40.088  16.272  1.00  0.00     0.243 C 
HETATM   40  O3  UNL     1      19.568  41.304  16.061  1.00  0.00    -0.271 OA
HETATM   41  N3  UNL     1      20.129  39.096  15.988  1.00  0.00    -0.351 N 
ATOM     42  H3  UNL     1      19.893  38.114  16.131  1.00  0.00     0.163 HD
BRANCH  41  43
HETATM   43  C10 UNL     1      21.450  39.459  15.491  1.00  0.00     0.022 C 
HETATM   44  C11 UNL     1      22.319  38.240  15.676  1.00  0.00     0.037 C 
HETATM   45  C12 UNL     1      21.402  39.830  14.021  1.00  0.00     0.037 C 
HETATM   46  C13 UNL     1      22.073  40.614  16.221  1.00  0.00     0.037 C 
ENDBRANCH  41  43
ENDBRANCH  38  39
ENDBRANCH   2  30
TORSDOF 16
ENDMDL
MODEL 4
REMARK VINA RESULT: -7.227978174      2.682      5.652
REMARK  16 active torsions:
REMARK  status: ('A' for Active; 'I' for Inactive)
REMARK    1  A    between atoms: C2_2  and  O1_3 
REMARK    2  A    between atoms: O1_3  and  C3_4 
REMARK    3  A    between atoms: C4_5  and  N1_6 
REMARK    4  A    between atoms: C8_14  and  C9_15 
REMARK       I    between atoms: C9_15  and  N3_17 
REMARK    5  A    between atoms: N3_17  and  C10_19 
REMARK    6  A    between atoms: C16_25  and  O4_26 
REMARK    7  A    between atoms: C18_28  and  C19_29 
REMARK       I    between atoms: C19_29  and  N4_31 
REMARK    8  A    between atoms: N4_31  and  C20_33 
REMARK    9  A    between atoms: C20_33  and  C21_34 
REMARK   10  A    between atoms: C21_34  and  C22_35 
REMARK   11  A    between atoms: C22_35  and  C23_36 
REMARK   12  A    between atoms: C23_36  and  C24_37 
REMARK   13  A    between atoms: C24_37  and  C25_38 
REMARK   14  A    between atoms: C25_38  and  C26_39 
REMARK   15  A    between atoms: C26_39  and  C27_40 
REMARK   16  A    between atoms: C27_40  and  N5_41 
ROOT
HETATM    1  C3  UNL     1      18.133  36.533  17.159  1.00  0.00     0.114 A 
HETATM    2  C4  UNL     1      17.167  37.465  17.255  1.00  0.00     0.072 A 
HETATM    3  C14 UNL     1      15.873  37.048  16.896  1.00  0.00     0.035 A 
HETATM    4  C15 UNL     1      15.579  35.780  16.462  1.00  0.00     0.040 A 
HETATM    5  C16 UNL     1      16.585  34.853  16.365  1.00  0.00     0.086 A 
HETATM    6  C18 UNL     1      17.894  35.215  16.714  1.00  0.00     0.101 A 
ENDROOT
BRANCH   6   7
HETATM    7  C19 UNL     1      18.926  34.239  16.474  1.00  0.00     0.268 C 
HETATM    8  O5  UNL     1      19.050  33.191  17.201  1.00  0.00    -0.266 OA
HETATM    9  N4  UNL     1      19.905  34.320  15.415  1.00  0.00    -0.292 N 
ATOM     10  H4  UNL     1      19.837  35.124  14.791  1.00  0.00     0.178 HD
BRANCH   9  11
HETATM   11  C20 UNL     1      20.900  33.447  15.165  1.00  0.00    -0.068 C 
BRANCH  11  12
HETATM   12  C21 UNL     1      21.964  32.528  14.906  1.00  0.00     0.104 C 
BRANCH  12  13
HETATM   13  C22 UNL     1      21.912  31.963  13.493  1.00  0.00     0.013 C 
BRANCH  13  14
HETATM   14  C23 UNL     1      22.639  30.687  13.355  1.00  0.00     0.001 C 
BRANCH  14  15
HETATM   15  C24 UNL     1      22.212  29.907  12.145  1.00  0.00     0.000 C 
BRANCH  15  16
HETATM   16  C25 UNL     1      22.151  28.443  12.595  1.00  0.00     0.002 C 
BRANCH  16  17
HETATM   17  C26 UNL     1      20.841  27.776  12.270  1.00  0.00     0.030 C 
BRANCH  17  18
HETATM   18  C27 UNL     1      19.855  28.906  11.968  1.00  0.00     0.272 C 
BRANCH  18  19
HETATM   19  N5  UNL     1      18.605  28.607  12.603  1.00  0.00     0.088 N 
HETATM   20  C28 UNL     1      18.712  28.444  14.050  1.00  0.00     0.272 C 
HETATM   21  C29 UNL     1      19.298  29.675  14.714  1.00  0.00     0.030 C 
HETATM   22  C30 UNL     1      18.317  30.815  14.469  1.00  0.00     0.003 C 
HETATM   23  C31 UNL     1      18.126  30.956  12.982  1.00  0.00     0.030 C 
HETATM   24  C32 UNL     1      17.631  29.683  12.358  1.00  0.00     0.272 C 
ENDBRANCH  18  19
ENDBRANCH  17  18
ENDBRANCH  16  17
ENDBRANCH  15  16
ENDBRANCH  14  15
ENDBRANCH  13  14
ENDBRANCH  12  13
ENDBRANCH  11  12
ENDBRANCH   9  11
ENDBRANCH   6   7
BRANCH   1  25
HETATM   25  O1  UNL     1      19.448  36.770  17.514  1.00  0.00    -0.348 OA
BRANCH  25  26
HETATM   26  C2  UNL     1      19.860  36.671  18.850  1.00  0.00     0.171 C 
HETATM   27  C1  UNL     1      20.870  35.676  19.241  1.00  0.00     0.034 C 
ENDBRANCH  25  26
ENDBRANCH   1  25
BRANCH   5  28
HETATM   28  O4  UNL     1      16.382  33.557  15.935  1.00  0.00    -0.355 OA
HETATM   29  C17 UNL     1      15.465  32.640  16.424  1.00  0.00     0.210 C 
ENDBRANCH   5  28
BRANCH   2  30
HETATM   30  N1  UNL     1      17.404  38.841  17.518  1.00  0.00    -0.298 N 
HETATM   31  C5  UNL     1      17.036  39.156  18.915  1.00  0.00     0.251 C 
HETATM   32  O2  UNL     1      16.013  38.568  19.427  1.00  0.00    -0.271 OA
HETATM   33  C6  UNL     1      17.822  40.121  19.711  1.00  0.00     0.335 C 
HETATM   34  N2  UNL     1      18.469  41.102  18.845  1.00  0.00    -0.064 N 
HETATM   35  C7  UNL     1      17.707  41.210  17.614  1.00  0.00     0.268 C 
ATOM     36  H22 UNL     1      18.598  42.004  19.304  1.00  0.00     0.277 HD
ATOM     37  H21 UNL     1      19.452  40.888  18.677  1.00  0.00     0.277 HD
HETATM   38  C8  UNL     1      17.871  39.908  16.772  1.00  0.00     0.210 C 
BRANCH  38  39
HETATM   39  C9  UNL     1      19.225  39.987  16.251  1.00  0.00     0.243 C 
HETATM   40  O3  UNL     1      19.605  41.195  15.987  1.00  0.00    -0.271 OA
HETATM   41  N3  UNL     1      20.170  38.987  15.992  1.00  0.00    -0.351 N 
ATOM     42  H3  UNL     1      19.938  38.010  16.175  1.00  0.00     0.163 HD
BRANCH  41  43
HETATM   43  C10 UNL     1      21.483  39.333  15.462  1.00  0.00     0.022 C 
HETATM   44  C11 UNL     1      22.316  38.078  15.548  1.00  0.00     0.037 C 
HETATM   45  C12 UNL     1      21.392  39.783  14.016  1.00  0.00     0.037 C 
HETATM   46  C13 UNL     1      22.173  40.426  16.225  1.00  0.00     0.037 C 
ENDBRANCH  41  43
ENDBRANCH  38  39
ENDBRANCH   2  30
TORSDOF 16
ENDMDL
MODEL 5
REMARK VINA RESULT: -7.187981293      2.544     10.365
REMARK  16 active torsions:
REMARK  status: ('A' for Active; 'I' for Inactive)
REMARK    1  A    between atoms: C2_2  and  O1_3 
REMARK    2  A    between atoms: O1_3  and  C3_4 
REMARK    3  A    between atoms: C4_5  and  N1_6 
REMARK    4  A    between atoms: C8_14  and  C9_15 
REMARK       I    between atoms: C9_15  and  N3_17 
REMARK    5  A    between atoms: N3_17  and  C10_19 
REMARK    6  A    between atoms: C16_25  and  O4_26 
REMARK    7  A    between atoms: C18_28  and  C19_29 
REMARK       I    between atoms: C19_29  and  N4_31 
REMARK    8  A    between atoms: N4_31  and  C20_33 
REMARK    9  A    between atoms: C20_33  and  C21_34 
REMARK   10  A    between atoms: C21_34  and  C22_35 
REMARK   11  A    between atoms: C22_35  and  C23_36 
REMARK   12  A    between atoms: C23_36  and  C24_37 
REMARK   13  A    between atoms: C24_37  and  C25_38 
REMARK   14  A    between atoms: C25_38  and  C26_39 
REMARK   15  A    between atoms: C26_39  and  C27_40 
REMARK   16  A    between atoms: C27_40  and  N5_41 
ROOT
HETATM    1  C3  UNL     1      19.150  29.670  13.068  1.00  0.00     0.114 A 
HETATM    2  C4  UNL     1      19.932  29.002  12.201  1.00  0.00     0.072 A 
HETATM    3  C14 UNL     1      21.105  29.662  11.795  1.00  0.00     0.035 A 
HETATM    4  C15 UNL     1      21.457  30.915  12.230  1.00  0.00     0.040 A 
HETATM    5  C16 UNL     1      20.636  31.577  13.106  1.00  0.00     0.086 A 
HETATM    6  C18 UNL     1      19.455  30.963  13.546  1.00  0.00     0.101 A 
ENDROOT
BRANCH   6   7
HETATM    7  C19 UNL     1      18.575  31.755  14.366  1.00  0.00     0.268 C 
HETATM    8  O5  UNL     1      18.381  31.490  15.604  1.00  0.00    -0.266 OA
HETATM    9  N4  UNL     1      17.838  32.909  13.905  1.00  0.00    -0.292 N 
ATOM     10  H4  UNL     1      17.975  33.179  12.931  1.00  0.00     0.178 HD
BRANCH   9  11
HETATM   11  C20 UNL     1      16.988  33.666  14.626  1.00  0.00    -0.068 C 
BRANCH  11  12
HETATM   12  C21 UNL     1      16.097  34.473  15.400  1.00  0.00     0.104 C 
BRANCH  12  13
HETATM   13  C22 UNL     1      15.502  33.713  16.578  1.00  0.00     0.013 C 
BRANCH  13  14
HETATM   14  C23 UNL     1      15.006  34.603  17.646  1.00  0.00     0.001 C 
BRANCH  14  15
HETATM   15  C24 UNL     1      15.125  36.056  17.288  1.00  0.00     0.000 C 
BRANCH  15  16
HETATM   16  C25 UNL     1      15.887  36.708  18.448  1.00  0.00     0.002 C 
BRANCH  16  17
HETATM   17  C26 UNL     1      16.888  37.737  17.996  1.00  0.00     0.030 C 
BRANCH  17  18
HETATM   18  C27 UNL     1      18.049  36.956  17.380  1.00  0.00     0.272 C 
BRANCH  18  19
HETATM   19  N5  UNL     1      18.655  36.150  18.400  1.00  0.00     0.088 N 
HETATM   20  C28 UNL     1      18.864  34.763  17.997  1.00  0.00     0.272 C 
HETATM   21  C29 UNL     1      19.715  34.662  16.746  1.00  0.00     0.030 C 
HETATM   22  C30 UNL     1      21.084  35.231  17.099  1.00  0.00     0.003 C 
HETATM   23  C31 UNL     1      20.892  36.640  17.594  1.00  0.00     0.030 C 
HETATM   24  C32 UNL     1      19.968  36.696  18.777  1.00  0.00     0.272 C 
ENDBRANCH  18  19
ENDBRANCH  17  18
ENDBRANCH  16  17
ENDBRANCH  15  16
ENDBRANCH  14  15
ENDBRANCH  13  14
ENDBRANCH  12  13
ENDBRANCH  11  12
ENDBRANCH   9  11
ENDBRANCH   6   7
BRANCH   1  25
HETATM   25  O1  UNL     1      17.985  29.144  13.596  1.00  0.00    -0.348 OA
BRANCH  25  26
HETATM   26  C2  UNL     1      18.001  27.935  14.305  1.00  0.00     0.171 C 
HETATM   27  C1  UNL     1      17.122  26.828  13.901  1.00  0.00     0.034 C 
ENDBRANCH  25  26
ENDBRANCH   1  25
BRANCH   5  28
HETATM   28  O4  UNL     1      20.910  32.840  13.592  1.00  0.00    -0.355 OA
HETATM   29  C17 UNL     1      22.088  33.285  14.171  1.00  0.00     0.210 C 
ENDBRANCH   5  28
BRANCH   2  30
HETATM   30  N1  UNL     1      19.563  27.787  11.561  1.00  0.00    -0.298 N 
HETATM   31  C5  UNL     1      18.453  28.033  10.618  1.00  0.00     0.251 C 
HETATM   32  O2  UNL     1      17.550  28.890  10.942  1.00  0.00    -0.271 OA
HETATM   33  C6  UNL     1      18.376  27.316   9.328  1.00  0.00     0.335 C 
HETATM   34  N2  UNL     1      19.039  26.018   9.416  1.00  0.00    -0.064 N 
HETATM   35  C7  UNL     1      19.031  25.584  10.802  1.00  0.00     0.268 C 
ATOM     36  H22 UNL     1      18.630  25.327   8.789  1.00  0.00     0.277 HD
ATOM     37  H21 UNL     1      19.978  26.032   9.018  1.00  0.00     0.277 HD
HETATM   38  C8  UNL     1      19.995  26.475  11.643  1.00  0.00     0.210 C 
BRANCH  38  39
HETATM   39  C9  UNL     1      21.323  26.045  11.240  1.00  0.00     0.243 C 
HETATM   40  O3  UNL     1      21.666  24.901  11.738  1.00  0.00    -0.271 OA
HETATM   41  N3  UNL     1      22.277  26.654  10.415  1.00  0.00    -0.351 N 
ATOM     42  H3  UNL     1      22.074  27.558   9.989  1.00  0.00     0.163 HD
BRANCH  41  43
HETATM   43  C10 UNL     1      23.556  26.004  10.163  1.00  0.00     0.022 C 
HETATM   44  C11 UNL     1      23.236  24.696   9.482  1.00  0.00     0.037 C 
HETATM   45  C12 UNL     1      24.433  26.846   9.256  1.00  0.00     0.037 C 
HETATM   46  C13 UNL     1      24.345  25.721  11.408  1.00  0.00     0.037 C 
ENDBRANCH  41  43
ENDBRANCH  38  39
ENDBRANCH   2  30
TORSDOF 16
ENDMDL
