MODEL 1
REMARK VINA RESULT: -8.656341322      0.000      0.000
REMARK  18 active torsions:
REMARK  status: ('A' for Active; 'I' for Inactive)
REMARK    1  A    between atoms: N1_2  and  C3_4 
REMARK    2  A    between atoms: C3_4  and  C4_5 
REMARK    3  A    between atoms: C4_5  and  C5_6 
REMARK    4  A    between atoms: C5_6  and  C6_7 
REMARK    5  A    between atoms: C6_7  and  N2_8 
REMARK       I    between atoms: N2_8  and  C8_10 
REMARK    6  A    between atoms: C8_10  and  C9_12 
REMARK    7  A    between atoms: C9_12  and  C10_13 
REMARK    8  A    between atoms: C9_12  and  N4_25 
REMARK    9  A    between atoms: C10_13  and  C11_14 
REMARK   10  A    between atoms: C11_14  and  C12_15 
REMARK   11  A    between atoms: C12_15  and  C13_16 
REMARK   12  A    between atoms: C13_16  and  C14_17 
REMARK   13  A    between atoms: C14_17  and  C15_18 
REMARK   14  A    between atoms: C15_18  and  O2_19 
REMARK   15  A    between atoms: N3_21  and  O3_23 
REMARK       I    between atoms: N4_25  and  C16_27 
REMARK   16  A    between atoms: C16_27  and  C17_29 
REMARK       I    between atoms: N5_33  and  C21_34 
REMARK   17  A    between atoms: C21_34  and  O6_36 
REMARK   18  A    between atoms: O6_36  and  C22_37 
ROOT
HETATM    1  C9  UNL     1      21.452  30.118  13.889  1.00  0.00     0.176 C 
ENDROOT
BRANCH   1   2
HETATM    2  C8  UNL     1      20.353  29.177  14.233  1.00  0.00     0.242 C 
HETATM    3  N2  UNL     1      19.153  29.073  13.458  1.00  0.00    -0.355 N 
HETATM    4  C7  UNL     1      18.909  29.926  12.312  1.00  0.00     0.152 C 
HETATM    5  O1  UNL     1      20.427  28.418  15.240  1.00  0.00    -0.271 OA
BRANCH   3   6
HETATM    6  C6  UNL     1      18.137  28.141  13.816  1.00  0.00     0.125 C 
BRANCH   6   7
HETATM    7  C5  UNL     1      17.395  27.482  12.715  1.00  0.00     0.022 C 
BRANCH   7   8
HETATM    8  C4  UNL     1      17.972  26.159  12.292  1.00  0.00     0.032 C 
BRANCH   8   9
HETATM    9  C3  UNL     1      18.915  26.331  11.099  1.00  0.00     0.271 C 
BRANCH   9  10
HETATM   10  N1  UNL     1      20.263  26.118  11.506  1.00  0.00     0.080 N 
HETATM   11  C1  UNL     1      20.843  24.888  11.092  1.00  0.00     0.309 C 
HETATM   12  C2  UNL     1      21.137  27.219  11.192  1.00  0.00     0.309 C 
ENDBRANCH   9  10
ENDBRANCH   8   9
ENDBRANCH   7   8
ENDBRANCH   6   7
ENDBRANCH   3   6
ENDBRANCH   1   2
BRANCH   1  13
HETATM   13  C10 UNL     1      22.769  29.322  13.954  1.00  0.00     0.035 C 
BRANCH  13  14
HETATM   14  C11 UNL     1      23.594  29.490  12.710  1.00  0.00     0.002 C 
BRANCH  14  15
HETATM   15  C12 UNL     1      24.703  28.470  12.778  1.00  0.00     0.001 C 
BRANCH  15  16
HETATM   16  C13 UNL     1      24.904  27.837  11.425  1.00  0.00     0.008 C 
BRANCH  16  17
HETATM   17  C14 UNL     1      24.858  26.343  11.529  1.00  0.00     0.086 C 
BRANCH  17  18
HETATM   18  C15 UNL     1      24.427  25.820  10.190  1.00  0.00     0.135 C 
HETATM   19  N3  UNL     1      24.042  26.678   9.317  1.00  0.00    -0.251 N 
ATOM     20  H3  UNL     1      24.048  27.665   9.573  1.00  0.00     0.196 HD
BRANCH  18  21
HETATM   21  O2  UNL     1      24.426  24.483   9.867  1.00  0.00    -0.348 OA
ATOM     22  H2  UNL     1      24.100  24.147   9.041  1.00  0.00     0.219 HD
ENDBRANCH  18  21
BRANCH  19  23
HETATM   23  O3  UNL     1      23.624  26.336   8.059  1.00  0.00    -0.288 OA
ATOM     24  H3  UNL     1      23.441  26.973   7.378  1.00  0.00     0.244 HD
ENDBRANCH  19  23
ENDBRANCH  17  18
ENDBRANCH  16  17
ENDBRANCH  15  16
ENDBRANCH  14  15
ENDBRANCH  13  14
ENDBRANCH   1  13
BRANCH   1  25
HETATM   25  N4  UNL     1      21.565  31.184  14.909  1.00  0.00    -0.346 N 
HETATM   26  C16 UNL     1      22.042  32.448  14.598  1.00  0.00     0.241 C 
HETATM   27  O4  UNL     1      22.392  32.649  13.381  1.00  0.00    -0.271 OA
ATOM     28  H4  UNL     1      21.285  30.983  15.869  1.00  0.00     0.163 HD
BRANCH  26  29
HETATM   29  C17 UNL     1      22.180  33.550  15.525  1.00  0.00     0.181 C 
HETATM   30  C18 UNL     1      22.913  33.042  16.809  1.00  0.00     0.037 C 
HETATM   31  C19 UNL     1      22.302  33.815  17.944  1.00  0.00     0.022 C 
HETATM   32  C20 UNL     1      21.507  34.892  17.247  1.00  0.00     0.129 C 
HETATM   33  N5  UNL     1      21.037  34.158  16.083  1.00  0.00    -0.315 N 
HETATM   34  C21 UNL     1      19.688  34.193  15.682  1.00  0.00     0.363 C 
HETATM   35  O5  UNL     1      19.188  33.669  14.654  1.00  0.00    -0.238 OA
BRANCH  34  36
HETATM   36  O6  UNL     1      18.718  34.869  16.466  1.00  0.00    -0.298 OA
BRANCH  36  37
HETATM   37  C22 UNL     1      17.369  34.458  16.536  1.00  0.00     0.142 C 
HETATM   38  C23 UNL     1      16.491  35.270  15.600  1.00  0.00     0.016 C 
HETATM   39  C24 UNL     1      16.338  36.686  16.112  1.00  0.00     0.012 C 
HETATM   40  C28 UNL     1      15.140  34.588  15.567  1.00  0.00     0.012 C 
HETATM   41  C25 UNL     1      15.708  36.662  17.484  1.00  0.00    -0.013 C 
HETATM   42  C26 UNL     1      14.358  36.008  17.383  1.00  0.00     0.009 C 
HETATM   43  C31 UNL     1      16.644  35.937  18.419  1.00  0.00     0.012 C 
HETATM   44  C27 UNL     1      14.540  34.573  16.977  1.00  0.00    -0.013 C 
HETATM   45  C29 UNL     1      15.469  33.855  17.937  1.00  0.00     0.012 C 
HETATM   46  C30 UNL     1      16.828  34.511  17.928  1.00  0.00     0.016 C 
ENDBRANCH  36  37
ENDBRANCH  34  36
ENDBRANCH  26  29
ENDBRANCH   1  25
TORSDOF 18
ENDMDL
MODEL 2
REMARK VINA RESULT: -8.256557723      2.333      5.482
REMARK  18 active torsions:
REMARK  status: ('A' for Active; 'I' for Inactive)
REMARK    1  A    between atoms: N1_2  and  C3_4 
REMARK    2  A    between atoms: C3_4  and  C4_5 
REMARK    3  A    between atoms: C4_5  and  C5_6 
REMARK    4  A    between atoms: C5_6  and  C6_7 
REMARK    5  A    between atoms: C6_7  and  N2_8 
REMARK       I    between atoms: N2_8  and  C8_10 
REMARK    6  A    between atoms: C8_10  and  C9_12 
REMARK    7  A    between atoms: C9_12  and  C10_13 
REMARK    8  A    between atoms: C9_12  and  N4_25 
REMARK    9  A    between atoms: C10_13  and  C11_14 
REMARK   10  A    between atoms: C11_14  and  C12_15 
REMARK   11  A    between atoms: C12_15  and  C13_16 
REMARK   12  A    between atoms: C13_16  and  C14_17 
REMARK   13  A    between atoms: C14_17  and  C15_18 
REMARK   14  A    between atoms: C15_18  and  O2_19 
REMARK   15  A    between atoms: N3_21  and  O3_23 
REMARK       I    between atoms: N4_25  and  C16_27 
REMARK   16  A    between atoms: C16_27  and  C17_29 
REMARK       I    between atoms: N5_33  and  C21_34 
REMARK   17  A    between atoms: C21_34  and  O6_36 
REMARK   18  A    between atoms: O6_36  and  C22_37 
ROOT
HETATM    1  C9  UNL     1      18.503  30.471  13.480  1.00  0.00     0.176 C 
ENDROOT
BRANCH   1   2
HETATM    2  C8  UNL     1      19.838  30.761  12.894  1.00  0.00     0.242 C 
HETATM    3  N2  UNL     1      21.033  30.101  13.325  1.00  0.00    -0.355 N 
HETATM    4  C7  UNL     1      21.023  29.141  14.410  1.00  0.00     0.152 C 
HETATM    5  O1  UNL     1      19.982  31.618  11.976  1.00  0.00    -0.271 OA
BRANCH   3   6
HETATM    6  C6  UNL     1      22.286  30.399  12.718  1.00  0.00     0.125 C 
BRANCH   6   7
HETATM    7  C5  UNL     1      23.359  29.382  12.827  1.00  0.00     0.022 C 
BRANCH   7   8
HETATM    8  C4  UNL     1      23.480  28.488  11.623  1.00  0.00     0.032 C 
BRANCH   8   9
HETATM    9  C3  UNL     1      22.908  27.099  11.914  1.00  0.00     0.271 C 
BRANCH   9  10
HETATM   10  N1  UNL     1      23.866  26.097  11.587  1.00  0.00     0.080 N 
HETATM   11  C1  UNL     1      23.571  25.317  10.436  1.00  0.00     0.309 C 
HETATM   12  C2  UNL     1      25.217  26.594  11.527  1.00  0.00     0.309 C 
ENDBRANCH   9  10
ENDBRANCH   8   9
ENDBRANCH   7   8
ENDBRANCH   6   7
ENDBRANCH   3   6
ENDBRANCH   1   2
BRANCH   1  13
HETATM   13  C10 UNL     1      17.551  30.152  12.311  1.00  0.00     0.035 C 
BRANCH  13  14
HETATM   14  C11 UNL     1      17.371  28.674  12.114  1.00  0.00     0.002 C 
BRANCH  14  15
HETATM   15  C12 UNL     1      17.024  28.464  10.661  1.00  0.00     0.001 C 
BRANCH  15  16
HETATM   16  C13 UNL     1      17.684  27.210  10.149  1.00  0.00     0.008 C 
BRANCH  16  17
HETATM   17  C14 UNL     1      18.923  26.907  10.937  1.00  0.00     0.086 C 
BRANCH  17  18
HETATM   18  C15 UNL     1      18.819  25.481  11.392  1.00  0.00     0.135 C 
HETATM   19  N3  UNL     1      19.896  24.905  11.786  1.00  0.00    -0.251 N 
ATOM     20  H3  UNL     1      20.764  25.441  11.771  1.00  0.00     0.196 HD
BRANCH  18  21
HETATM   21  O2  UNL     1      17.637  24.777  11.403  1.00  0.00    -0.348 OA
ATOM     22  H2  UNL     1      17.310  24.297  10.651  1.00  0.00     0.219 HD
ENDBRANCH  18  21
BRANCH  19  23
HETATM   23  O3  UNL     1      19.941  23.610  12.225  1.00  0.00    -0.288 OA
ATOM     24  H3  UNL     1      19.360  23.263  12.893  1.00  0.00     0.244 HD
ENDBRANCH  19  23
ENDBRANCH  17  18
ENDBRANCH  16  17
ENDBRANCH  15  16
ENDBRANCH  14  15
ENDBRANCH  13  14
ENDBRANCH   1  13
BRANCH   1  25
HETATM   25  N4  UNL     1      17.951  31.673  14.143  1.00  0.00    -0.346 N 
HETATM   26  C16 UNL     1      17.170  31.586  15.286  1.00  0.00     0.241 C 
HETATM   27  O4  UNL     1      16.938  30.409  15.737  1.00  0.00    -0.271 OA
ATOM     28  H4  UNL     1      18.150  32.592  13.749  1.00  0.00     0.163 HD
BRANCH  26  29
HETATM   29  C17 UNL     1      16.596  32.704  16.003  1.00  0.00     0.181 C 
HETATM   30  C18 UNL     1      15.752  33.564  15.007  1.00  0.00     0.037 C 
HETATM   31  C19 UNL     1      15.924  34.984  15.469  1.00  0.00     0.022 C 
HETATM   32  C20 UNL     1      16.575  34.836  16.823  1.00  0.00     0.129 C 
HETATM   33  N5  UNL     1      17.430  33.685  16.577  1.00  0.00    -0.315 N 
HETATM   34  C21 UNL     1      18.787  33.679  16.949  1.00  0.00     0.363 C 
HETATM   35  O5  UNL     1      19.594  32.718  16.861  1.00  0.00    -0.238 OA
BRANCH  34  36
HETATM   36  O6  UNL     1      19.394  34.842  17.487  1.00  0.00    -0.298 OA
BRANCH  36  37
HETATM   37  C22 UNL     1      20.311  35.634  16.761  1.00  0.00     0.142 C 
HETATM   38  C23 UNL     1      21.711  35.048  16.809  1.00  0.00     0.016 C 
HETATM   39  C24 UNL     1      22.304  35.203  18.192  1.00  0.00     0.012 C 
HETATM   40  C28 UNL     1      22.542  35.820  15.806  1.00  0.00     0.012 C 
HETATM   41  C25 UNL     1      22.368  36.668  18.553  1.00  0.00    -0.013 C 
HETATM   42  C26 UNL     1      23.232  37.375  17.547  1.00  0.00     0.009 C 
HETATM   43  C31 UNL     1      20.958  37.204  18.597  1.00  0.00     0.012 C 
HETATM   44  C27 UNL     1      22.573  37.300  16.199  1.00  0.00    -0.013 C 
HETATM   45  C29 UNL     1      21.164  37.860  16.257  1.00  0.00     0.012 C 
HETATM   46  C30 UNL     1      20.328  37.054  17.223  1.00  0.00     0.016 C 
ENDBRANCH  36  37
ENDBRANCH  34  36
ENDBRANCH  26  29
ENDBRANCH   1  25
TORSDOF 18
ENDMDL
MODEL 3
REMARK VINA RESULT: -8.220211939      2.387      4.233
REMARK  18 active torsions:
REMARK  status: ('A' for Active; 'I' for Inactive)
REMARK    1  A    between atoms: N1_2  and  C3_4 
REMARK    2  A    between atoms: C3_4  and  C4_5 
REMARK    3  A    between atoms: C4_5  and  C5_6 
REMARK    4  A    between atoms: C5_6  and  C6_7 
REMARK    5  A    between atoms: C6_7  and  N2_8 
REMARK       I    between atoms: N2_8  and  C8_10 
REMARK    6  A    between atoms: C8_10  and  C9_12 
REMARK    7  A    between atoms: C9_12  and  C10_13 
REMARK    8  A    between atoms: C9_12  and  N4_25 
REMARK    9  A    between atoms: C10_13  and  C11_14 
REMARK   10  A    between atoms: C11_14  and  C12_15 
REMARK   11  A    between atoms: C12_15  and  C13_16 
REMARK   12  A    between atoms: C13_16  and  C14_17 
REMARK   13  A    between atoms: C14_17  and  C15_18 
REMARK   14  A    between atoms: C15_18  and  O2_19 
REMARK   15  A    between atoms: N3_21  and  O3_23 
REMARK       I    between atoms: N4_25  and  C16_27 
REMARK   16  A    between atoms: C16_27  and  C17_29 
REMARK       I    between atoms: N5_33  and  C21_34 
REMARK   17  A    between atoms: C21_34  and  O6_36 
REMARK   18  A    between atoms: O6_36  and  C22_37 
ROOT
HETATM    1  C9  UNL     1      20.663  29.085  11.605  1.00  0.00     0.176 C 
ENDROOT
BRANCH   1   2
HETATM    2  C8  UNL     1      20.405  27.655  11.295  1.00  0.00     0.242 C 
HETATM    3  N2  UNL     1      19.113  27.165  10.916  1.00  0.00    -0.355 N 
HETATM    4  C7  UNL     1      17.955  28.034  10.864  1.00  0.00     0.152 C 
HETATM    5  O1  UNL     1      21.326  26.790  11.356  1.00  0.00    -0.271 OA
BRANCH   3   6
HETATM    6  C6  UNL     1      18.921  25.789  10.608  1.00  0.00     0.125 C 
BRANCH   6   7
HETATM    7  C5  UNL     1      17.608  25.390  10.047  1.00  0.00     0.022 C 
BRANCH   7   8
HETATM    8  C4  UNL     1      17.557  25.395   8.544  1.00  0.00     0.032 C 
BRANCH   8   9
HETATM    9  C3  UNL     1      18.953  25.196   7.949  1.00  0.00     0.271 C 
BRANCH   9  10
HETATM   10  N1  UNL     1      19.224  26.210   6.986  1.00  0.00     0.080 N 
HETATM   11  C1  UNL     1      19.630  25.748   5.706  1.00  0.00     0.309 C 
HETATM   12  C2  UNL     1      18.165  27.178   6.861  1.00  0.00     0.309 C 
ENDBRANCH   9  10
ENDBRANCH   8   9
ENDBRANCH   7   8
ENDBRANCH   6   7
ENDBRANCH   3   6
ENDBRANCH   1   2
BRANCH   1  13
HETATM   13  C10 UNL     1      22.181  29.314  11.470  1.00  0.00     0.035 C 
BRANCH  13  14
HETATM   14  C11 UNL     1      22.808  29.732  12.768  1.00  0.00     0.002 C 
BRANCH  14  15
HETATM   15  C12 UNL     1      23.947  28.779  13.032  1.00  0.00     0.001 C 
BRANCH  15  16
HETATM   16  C13 UNL     1      24.510  28.274  11.729  1.00  0.00     0.008 C 
BRANCH  16  17
HETATM   17  C14 UNL     1      24.966  26.853  11.867  1.00  0.00     0.086 C 
BRANCH  17  18
HETATM   18  C15 UNL     1      24.520  26.125  10.633  1.00  0.00     0.135 C 
HETATM   19  N3  UNL     1      24.096  26.832   9.650  1.00  0.00    -0.251 N 
ATOM     20  H3  UNL     1      24.083  27.847   9.754  1.00  0.00     0.196 HD
BRANCH  18  21
HETATM   21  O2  UNL     1      24.545  24.754  10.515  1.00  0.00    -0.348 OA
ATOM     22  H2  UNL     1      25.141  24.292   9.937  1.00  0.00     0.219 HD
ENDBRANCH  18  21
BRANCH  19  23
HETATM   23  O3  UNL     1      23.660  26.296   8.468  1.00  0.00    -0.288 OA
ATOM     24  H3  UNL     1      22.746  26.278   8.208  1.00  0.00     0.244 HD
ENDBRANCH  19  23
ENDBRANCH  17  18
ENDBRANCH  16  17
ENDBRANCH  15  16
ENDBRANCH  14  15
ENDBRANCH  13  14
ENDBRANCH   1  13
BRANCH   1  25
HETATM   25  N4  UNL     1      20.327  29.384  13.014  1.00  0.00    -0.346 N 
HETATM   26  C16 UNL     1      19.368  30.325  13.356  1.00  0.00     0.241 C 
HETATM   27  O4  UNL     1      18.790  30.936  12.388  1.00  0.00    -0.271 OA
ATOM     28  H4  UNL     1      20.814  28.883  13.757  1.00  0.00     0.163 HD
BRANCH  26  29
HETATM   29  C17 UNL     1      18.970  30.675  14.701  1.00  0.00     0.181 C 
HETATM   30  C18 UNL     1      17.418  30.527  14.825  1.00  0.00     0.037 C 
HETATM   31  C19 UNL     1      16.991  31.618  15.767  1.00  0.00     0.022 C 
HETATM   32  C20 UNL     1      18.295  32.113  16.344  1.00  0.00     0.129 C 
HETATM   33  N5  UNL     1      19.160  31.987  15.182  1.00  0.00    -0.315 N 
HETATM   34  C21 UNL     1      20.008  33.034  14.774  1.00  0.00     0.363 C 
HETATM   35  O5  UNL     1      20.852  33.009  13.842  1.00  0.00    -0.238 OA
BRANCH  34  36
HETATM   36  O6  UNL     1      19.971  34.291  15.430  1.00  0.00    -0.298 OA
BRANCH  36  37
HETATM   37  C22 UNL     1      20.504  34.497  16.722  1.00  0.00     0.142 C 
HETATM   38  C23 UNL     1      20.113  35.856  17.275  1.00  0.00     0.016 C 
HETATM   39  C24 UNL     1      20.840  36.958  16.536  1.00  0.00     0.012 C 
HETATM   40  C28 UNL     1      20.513  35.866  18.734  1.00  0.00     0.012 C 
HETATM   41  C25 UNL     1      22.330  36.773  16.691  1.00  0.00    -0.013 C 
HETATM   42  C26 UNL     1      22.673  36.828  18.153  1.00  0.00     0.009 C 
HETATM   43  C31 UNL     1      22.710  35.463  16.046  1.00  0.00     0.012 C 
HETATM   44  C27 UNL     1      22.027  35.663  18.850  1.00  0.00    -0.013 C 
HETATM   45  C29 UNL     1      22.435  34.354  18.201  1.00  0.00     0.012 C 
HETATM   46  C30 UNL     1      21.988  34.332  16.759  1.00  0.00     0.016 C 
ENDBRANCH  36  37
ENDBRANCH  34  36
ENDBRANCH  26  29
ENDBRANCH   1  25
TORSDOF 18
ENDMDL
MODEL 4
REMARK VINA RESULT: -8.191658412      2.253      5.384
REMARK  18 active torsions:
REMARK  status: ('A' for Active; 'I' for Inactive)
REMARK    1  A    between atoms: N1_2  and  C3_4 
REMARK    2  A    between atoms: C3_4  and  C4_5 
REMARK    3  A    between atoms: C4_5  and  C5_6 
REMARK    4  A    between atoms: C5_6  and  C6_7 
REMARK    5  A    between atoms: C6_7  and  N2_8 
REMARK       I    between atoms: N2_8  and  C8_10 
REMARK    6  A    between atoms: C8_10  and  C9_12 
REMARK    7  A    between atoms: C9_12  and  C10_13 
REMARK    8  A    between atoms: C9_12  and  N4_25 
REMARK    9  A    between atoms: C10_13  and  C11_14 
REMARK   10  A    between atoms: C11_14  and  C12_15 
REMARK   11  A    between atoms: C12_15  and  C13_16 
REMARK   12  A    between atoms: C13_16  and  C14_17 
REMARK   13  A    between atoms: C14_17  and  C15_18 
REMARK   14  A    between atoms: C15_18  and  O2_19 
REMARK   15  A    between atoms: N3_21  and  O3_23 
REMARK       I    between atoms: N4_25  and  C16_27 
REMARK   16  A    between atoms: C16_27  and  C17_29 
REMARK       I    between atoms: N5_33  and  C21_34 
REMARK   17  A    between atoms: C21_34  and  O6_36 
REMARK   18  A    between atoms: O6_36  and  C22_37 
ROOT
HETATM    1  C9  UNL     1      18.331  30.341  13.552  1.00  0.00     0.176 C 
ENDROOT
BRANCH   1   2
HETATM    2  C8  UNL     1      19.662  30.699  12.996  1.00  0.00     0.242 C 
HETATM    3  N2  UNL     1      20.873  30.057  13.413  1.00  0.00    -0.355 N 
HETATM    4  C7  UNL     1      20.881  29.049  14.453  1.00  0.00     0.152 C 
HETATM    5  O1  UNL     1      19.789  31.600  12.119  1.00  0.00    -0.271 OA
BRANCH   3   6
HETATM    6  C6  UNL     1      22.122  30.421  12.835  1.00  0.00     0.125 C 
BRANCH   6   7
HETATM    7  C5  UNL     1      23.246  29.463  12.975  1.00  0.00     0.022 C 
BRANCH   7   8
HETATM    8  C4  UNL     1      23.482  28.613  11.757  1.00  0.00     0.032 C 
BRANCH   8   9
HETATM    9  C3  UNL     1      22.926  27.202  11.959  1.00  0.00     0.271 C 
BRANCH   9  10
HETATM   10  N1  UNL     1      23.913  26.234  11.616  1.00  0.00     0.080 N 
HETATM   11  C1  UNL     1      23.673  25.510  10.417  1.00  0.00     0.309 C 
HETATM   12  C2  UNL     1      25.256  26.755  11.630  1.00  0.00     0.309 C 
ENDBRANCH   9  10
ENDBRANCH   8   9
ENDBRANCH   7   8
ENDBRANCH   6   7
ENDBRANCH   3   6
ENDBRANCH   1   2
BRANCH   1  13
HETATM   13  C10 UNL     1      17.420  29.986  12.361  1.00  0.00     0.035 C 
BRANCH  13  14
HETATM   14  C11 UNL     1      17.749  28.642  11.777  1.00  0.00     0.002 C 
BRANCH  14  15
HETATM   15  C12 UNL     1      17.646  27.639  12.899  1.00  0.00     0.001 C 
BRANCH  15  16
HETATM   16  C13 UNL     1      17.803  26.241  12.357  1.00  0.00     0.008 C 
BRANCH  16  17
HETATM   17  C14 UNL     1      18.285  26.277  10.937  1.00  0.00     0.086 C 
BRANCH  17  18
HETATM   18  C15 UNL     1      19.472  25.362  10.851  1.00  0.00     0.135 C 
HETATM   19  N3  UNL     1      19.919  24.870  11.949  1.00  0.00    -0.251 N 
ATOM     20  H3  UNL     1      19.450  25.122  12.819  1.00  0.00     0.196 HD
BRANCH  18  21
HETATM   21  O2  UNL     1      20.089  25.037   9.666  1.00  0.00    -0.348 OA
ATOM     22  H2  UNL     1      20.127  24.151   9.325  1.00  0.00     0.219 HD
ENDBRANCH  18  21
BRANCH  19  23
HETATM   23  O3  UNL     1      20.994  24.024  12.012  1.00  0.00    -0.288 OA
ATOM     24  H3  UNL     1      21.003  23.229  12.532  1.00  0.00     0.244 HD
ENDBRANCH  19  23
ENDBRANCH  17  18
ENDBRANCH  16  17
ENDBRANCH  15  16
ENDBRANCH  14  15
ENDBRANCH  13  14
ENDBRANCH   1  13
BRANCH   1  25
HETATM   25  N4  UNL     1      17.708  31.511  14.211  1.00  0.00    -0.346 N 
HETATM   26  C16 UNL     1      17.726  31.673  15.588  1.00  0.00     0.241 C 
HETATM   27  O4  UNL     1      18.301  30.751  16.268  1.00  0.00    -0.271 OA
ATOM     28  H4  UNL     1      17.252  32.219  13.635  1.00  0.00     0.163 HD
BRANCH  26  29
HETATM   29  C17 UNL     1      17.152  32.783  16.315  1.00  0.00     0.181 C 
HETATM   30  C18 UNL     1      15.895  33.299  15.540  1.00  0.00     0.037 C 
HETATM   31  C19 UNL     1      15.880  34.786  15.760  1.00  0.00     0.022 C 
HETATM   32  C20 UNL     1      16.904  34.990  16.849  1.00  0.00     0.129 C 
HETATM   33  N5  UNL     1      17.882  33.978  16.483  1.00  0.00    -0.315 N 
HETATM   34  C21 UNL     1      19.256  34.269  16.410  1.00  0.00     0.363 C 
HETATM   35  O5  UNL     1      20.193  33.460  16.186  1.00  0.00    -0.238 OA
BRANCH  34  36
HETATM   36  O6  UNL     1      19.725  35.595  16.595  1.00  0.00    -0.298 OA
BRANCH  36  37
HETATM   37  C22 UNL     1      21.055  35.892  16.969  1.00  0.00     0.142 C 
HETATM   38  C23 UNL     1      21.129  36.406  18.396  1.00  0.00     0.016 C 
HETATM   39  C24 UNL     1      20.537  37.795  18.490  1.00  0.00     0.012 C 
HETATM   40  C28 UNL     1      22.595  36.446  18.770  1.00  0.00     0.012 C 
HETATM   41  C25 UNL     1      21.301  38.732  17.587  1.00  0.00    -0.013 C 
HETATM   42  C26 UNL     1      22.739  38.760  18.027  1.00  0.00     0.009 C 
HETATM   43  C31 UNL     1      21.130  38.258  16.165  1.00  0.00     0.012 C 
HETATM   44  C27 UNL     1      23.338  37.397  17.825  1.00  0.00    -0.013 C 
HETATM   45  C29 UNL     1      23.173  36.944  16.386  1.00  0.00     0.012 C 
HETATM   46  C30 UNL     1      21.707  36.859  16.036  1.00  0.00     0.016 C 
ENDBRANCH  36  37
ENDBRANCH  34  36
ENDBRANCH  26  29
ENDBRANCH   1  25
TORSDOF 18
ENDMDL
MODEL 5
REMARK VINA RESULT: -8.176185330      1.877      2.576
REMARK  18 active torsions:
REMARK  status: ('A' for Active; 'I' for Inactive)
REMARK    1  A    between atoms: N1_2  and  C3_4 
REMARK    2  A    between atoms: C3_4  and  C4_5 
REMARK    3  A    between atoms: C4_5  and  C5_6 
REMARK    4  A    between atoms: C5_6  and  C6_7 
REMARK    5  A    between atoms: C6_7  and  N2_8 
REMARK       I    between atoms: N2_8  and  C8_10 
REMARK    6  A    between atoms: C8_10  and  C9_12 
REMARK    7  A    between atoms: C9_12  and  C10_13 
REMARK    8  A    between atoms: C9_12  and  N4_25 
REMARK    9  A    between atoms: C10_13  and  C11_14 
REMARK   10  A    between atoms: C11_14  and  C12_15 
REMARK   11  A    between atoms: C12_15  and  C13_16 
REMARK   12  A    between atoms: C13_16  and  C14_17 
REMARK   13  A    between atoms: C14_17  and  C15_18 
REMARK   14  A    between atoms: C15_18  and  O2_19 
REMARK   15  A    between atoms: N3_21  and  O3_23 
REMARK       I    between atoms: N4_25  and  C16_27 
REMARK   16  A    between atoms: C16_27  and  C17_29 
REMARK       I    between atoms: N5_33  and  C21_34 
REMARK   17  A    between atoms: C21_34  and  O6_36 
REMARK   18  A    between atoms: O6_36  and  C22_37 
ROOT
HETATM    1  C9  UNL     1      21.202  29.331  11.715  1.00  0.00     0.176 C 
ENDROOT
BRANCH   1   2
HETATM    2  C8  UNL     1      20.494  28.071  12.064  1.00  0.00     0.242 C 
HETATM    3  N2  UNL     1      19.066  27.976  12.124  1.00  0.00    -0.355 N 
HETATM    4  C7  UNL     1      18.217  29.128  11.900  1.00  0.00     0.152 C 
HETATM    5  O1  UNL     1      21.129  27.011  12.331  1.00  0.00    -0.271 OA
BRANCH   3   6
HETATM    6  C6  UNL     1      18.435  26.740  12.443  1.00  0.00     0.125 C 
BRANCH   6   7
HETATM    7  C5  UNL     1      17.734  26.027  11.348  1.00  0.00     0.022 C 
BRANCH   7   8
HETATM    8  C4  UNL     1      18.547  25.885  10.090  1.00  0.00     0.032 C 
BRANCH   8   9
HETATM    9  C3  UNL     1      18.020  26.811   8.991  1.00  0.00     0.271 C 
BRANCH   9  10
HETATM   10  N1  UNL     1      18.123  26.171   7.722  1.00  0.00     0.080 N 
HETATM   11  C1  UNL     1      17.127  25.198   7.443  1.00  0.00     0.309 C 
HETATM   12  C2  UNL     1      18.248  27.095   6.624  1.00  0.00     0.309 C 
ENDBRANCH   9  10
ENDBRANCH   8   9
ENDBRANCH   7   8
ENDBRANCH   6   7
ENDBRANCH   3   6
ENDBRANCH   1   2
BRANCH   1  13
HETATM   13  C10 UNL     1      22.614  28.944  11.239  1.00  0.00     0.035 C 
BRANCH  13  14
HETATM   14  C11 UNL     1      23.628  29.031  12.344  1.00  0.00     0.002 C 
BRANCH  14  15
HETATM   15  C12 UNL     1      24.759  28.103  11.976  1.00  0.00     0.001 C 
BRANCH  15  16
HETATM   16  C13 UNL     1      24.546  27.554  10.589  1.00  0.00     0.008 C 
BRANCH  16  17
HETATM   17  C14 UNL     1      25.153  26.189  10.463  1.00  0.00     0.086 C 
BRANCH  17  18
HETATM   18  C15 UNL     1      24.043  25.245  10.102  1.00  0.00     0.135 C 
HETATM   19  N3  UNL     1      22.916  25.404  10.694  1.00  0.00    -0.251 N 
ATOM     20  H3  UNL     1      22.829  26.158  11.375  1.00  0.00     0.196 HD
BRANCH  18  21
HETATM   21  O2  UNL     1      24.184  24.234   9.180  1.00  0.00    -0.348 OA
ATOM     22  H2  UNL     1      23.602  24.122   8.437  1.00  0.00     0.219 HD
ENDBRANCH  18  21
BRANCH  19  23
HETATM   23  O3  UNL     1      21.823  24.613  10.458  1.00  0.00    -0.288 OA
ATOM     24  H3  UNL     1      20.961  24.793  10.814  1.00  0.00     0.244 HD
ENDBRANCH  19  23
ENDBRANCH  17  18
ENDBRANCH  16  17
ENDBRANCH  15  16
ENDBRANCH  14  15
ENDBRANCH  13  14
ENDBRANCH   1  13
BRANCH   1  25
HETATM   25  N4  UNL     1      21.390  30.175  12.916  1.00  0.00    -0.346 N 
HETATM   26  C16 UNL     1      20.971  31.496  12.957  1.00  0.00     0.241 C 
HETATM   27  O4  UNL     1      20.420  31.959  11.895  1.00  0.00    -0.271 OA
ATOM     28  H4  UNL     1      21.840  29.773  13.738  1.00  0.00     0.163 HD
BRANCH  26  29
HETATM   29  C17 UNL     1      21.106  32.390  14.085  1.00  0.00     0.181 C 
HETATM   30  C18 UNL     1      22.082  31.748  15.125  1.00  0.00     0.037 C 
HETATM   31  C19 UNL     1      21.555  32.165  16.470  1.00  0.00     0.022 C 
HETATM   32  C20 UNL     1      20.536  33.226  16.133  1.00  0.00     0.129 C 
HETATM   33  N5  UNL     1      19.992  32.685  14.898  1.00  0.00    -0.315 N 
HETATM   34  C21 UNL     1      18.606  32.591  14.678  1.00  0.00     0.363 C 
HETATM   35  O5  UNL     1      18.027  32.220  13.625  1.00  0.00    -0.238 OA
BRANCH  34  36
HETATM   36  O6  UNL     1      17.687  32.931  15.704  1.00  0.00    -0.298 OA
BRANCH  36  37
HETATM   37  C22 UNL     1      17.437  34.265  16.097  1.00  0.00     0.142 C 
HETATM   38  C23 UNL     1      17.125  34.358  17.580  1.00  0.00     0.016 C 
HETATM   39  C24 UNL     1      15.766  33.762  17.874  1.00  0.00     0.012 C 
HETATM   40  C28 UNL     1      17.129  35.829  17.936  1.00  0.00     0.012 C 
HETATM   41  C25 UNL     1      14.708  34.510  17.100  1.00  0.00    -0.013 C 
HETATM   42  C26 UNL     1      14.733  35.953  17.519  1.00  0.00     0.009 C 
HETATM   43  C31 UNL     1      14.981  34.321  15.628  1.00  0.00     0.012 C 
HETATM   44  C27 UNL     1      16.052  36.554  17.122  1.00  0.00    -0.013 C 
HETATM   45  C29 UNL     1      16.302  36.371  15.637  1.00  0.00     0.012 C 
HETATM   46  C30 UNL     1      16.346  34.901  15.298  1.00  0.00     0.016 C 
ENDBRANCH  36  37
ENDBRANCH  34  36
ENDBRANCH  26  29
ENDBRANCH   1  25
TORSDOF 18
ENDMDL
