MODEL 1
REMARK VINA RESULT: -8.248393551      0.000      0.000
REMARK  19 active torsions:
REMARK  status: ('A' for Active; 'I' for Inactive)
REMARK    1  A    between atoms: C3_3  and  C4_4 
REMARK    2  A    between atoms: C5_5  and  C6_6 
REMARK    3  A    between atoms: C7_7  and  C8_8 
REMARK    4  A    between atoms: C14_16  and  N2_17 
REMARK    5  A    between atoms: N2_17  and  C15_18 
REMARK    6  A    between atoms: C15_18  and  C16_19 
REMARK    7  A    between atoms: C16_19  and  C17_20 
REMARK    8  A    between atoms: C17_20  and  N3_21 
REMARK    9  A    between atoms: N4_24  and  C20_25 
REMARK   10  A    between atoms: C20_25  and  C21_26 
REMARK   11  A    between atoms: C21_26  and  O1_27 
REMARK   12  A    between atoms: O1_27  and  C22_28 
REMARK   13  A    between atoms: C22_28  and  N5_30 
REMARK   14  A    between atoms: N7_38  and  C28_40 
REMARK   15  A    between atoms: C28_40  and  C29_41 
REMARK   16  A    between atoms: C29_41  and  C30_42 
REMARK   17  A    between atoms: C30_42  and  C31_43 
REMARK   18  A    between atoms: C31_43  and  C32_44 
REMARK   19  A    between atoms: C32_44  and  N8_45 
ROOT
HETATM    1  C6  UNL     1      20.827  30.345  12.511  1.00  0.00     0.035 A 
HETATM    2  C7  UNL     1      22.210  30.379  12.588  1.00  0.00     0.060 A 
HETATM    3  N1  UNL     1      22.775  31.438  13.189  1.00  0.00    -0.315 N 
ATOM      4  H1  UNL     1      23.793  31.465  13.252  1.00  0.00     0.170 HD
HETATM    5  C14 UNL     1      22.073  32.480  13.723  1.00  0.00     0.260 A 
HETATM    6  N6  UNL     1      20.712  32.405  13.618  1.00  0.00    -0.302 N 
ATOM      7  H6  UNL     1      20.158  33.169  14.005  1.00  0.00     0.171 HD
HETATM    8  C27 UNL     1      20.068  31.394  13.042  1.00  0.00     0.117 A 
HETATM    9  N7  UNL     1      18.757  31.412  12.986  1.00  0.00    -0.375 N 
ATOM     10  H7  UNL     1      18.280  30.629  12.539  1.00  0.00     0.161 HD
ENDROOT
BRANCH   5  11
HETATM   11  N2  UNL     1      22.654  33.387  14.245  1.00  0.00    -0.388 NA
BRANCH  11  12
HETATM   12  C15 UNL     1      23.243  34.431  14.814  1.00  0.00     0.161 C 
BRANCH  12  13
HETATM   13  C16 UNL     1      22.445  35.117  15.936  1.00  0.00     0.089 C 
BRANCH  13  14
HETATM   14  C17 UNL     1      21.936  36.470  15.472  1.00  0.00     0.279 C 
BRANCH  14  15
HETATM   15  N3  UNL     1      22.307  37.508  16.376  1.00  0.00     0.091 N 
HETATM   16  C18 UNL     1      22.007  37.272  17.751  1.00  0.00     0.292 C 
HETATM   17  C19 UNL     1      20.984  38.215  18.305  1.00  0.00     0.152 C 
HETATM   18  N4  UNL     1      19.975  38.567  17.317  1.00  0.00    -0.388 N 
HETATM   19  C25 UNL     1      20.511  39.135  16.141  1.00  0.00     0.152 C 
HETATM   20  C26 UNL     1      21.967  38.797  15.888  1.00  0.00     0.292 C 
BRANCH  18  21
HETATM   21  C20 UNL     1      18.805  39.112  17.881  1.00  0.00     0.084 C 
BRANCH  21  22
HETATM   22  C21 UNL     1      17.596  38.260  17.598  1.00  0.00     0.222 C 
BRANCH  22  23
HETATM   23  O1  UNL     1      17.629  36.986  18.129  1.00  0.00    -0.322 OA
BRANCH  23  24
HETATM   24  C22 UNL     1      17.564  35.762  17.566  1.00  0.00     0.211 C 
HETATM   25  S1  UNL     1      18.972  34.872  17.602  1.00  0.00    -0.033 SA
BRANCH  24  26
HETATM   26  N5  UNL     1      16.470  35.125  16.949  1.00  0.00    -0.361 N 
HETATM   27  C23 UNL     1      16.029  35.370  15.587  1.00  0.00     0.152 C 
HETATM   28  C24 UNL     1      15.676  34.125  17.687  1.00  0.00     0.152 C 
ENDBRANCH  24  26
ENDBRANCH  23  24
ENDBRANCH  22  23
ENDBRANCH  21  22
ENDBRANCH  18  21
ENDBRANCH  14  15
ENDBRANCH  13  14
ENDBRANCH  12  13
ENDBRANCH  11  12
ENDBRANCH   5  11
BRANCH   2  29
HETATM   29  C8  UNL     1      23.081  29.320  12.050  1.00  0.00    -0.008 A 
HETATM   30  C9  UNL     1      24.037  28.849  12.946  1.00  0.00     0.014 A 
HETATM   31  C10 UNL     1      24.988  27.941  12.558  1.00  0.00     0.001 A 
HETATM   32  C11 UNL     1      24.994  27.486  11.256  1.00  0.00     0.000 A 
HETATM   33  C12 UNL     1      24.050  27.951  10.370  1.00  0.00     0.001 A 
HETATM   34  C13 UNL     1      23.105  28.863  10.780  1.00  0.00     0.014 A 
ENDBRANCH   2  29
BRANCH   1  35
HETATM   35  C5  UNL     1      20.176  29.143  12.077  1.00  0.00     0.017 C 
HETATM   36  C4  UNL     1      19.910  28.070  12.744  1.00  0.00     0.001 C 
BRANCH  36  37
HETATM   37  C3  UNL     1      19.226  26.966  12.036  1.00  0.00    -0.004 C 
HETATM   38  C2  UNL     1      18.017  26.637  12.384  1.00  0.00    -0.031 C 
HETATM   39  C1  UNL     1      17.307  27.363  13.497  1.00  0.00     0.036 C 
ENDBRANCH  36  37
ENDBRANCH   1  35
BRANCH   9  40
HETATM   40  C28 UNL     1      17.966  32.472  13.521  1.00  0.00     0.121 C 
BRANCH  40  41
HETATM   41  C29 UNL     1      17.136  32.039  14.716  1.00  0.00     0.020 C 
BRANCH  41  42
HETATM   42  C30 UNL     1      17.738  30.787  15.348  1.00  0.00     0.003 C 
BRANCH  42  43
HETATM   43  C31 UNL     1      18.573  31.143  16.560  1.00  0.00     0.027 C 
BRANCH  43  44
HETATM   44  C32 UNL     1      19.978  30.588  16.437  1.00  0.00     0.229 C 
BRANCH  44  45
HETATM   45  N8  UNL     1      19.989  29.165  16.225  1.00  0.00    -0.079 N 
ATOM     46  H83 UNL     1      19.157  28.862  15.719  1.00  0.00     0.274 HD
ATOM     47  H82 UNL     1      20.700  28.900  15.543  1.00  0.00     0.274 HD
ATOM     48  H81 UNL     1      20.101  28.643  17.095  1.00  0.00     0.274 HD
ENDBRANCH  44  45
ENDBRANCH  43  44
ENDBRANCH  42  43
ENDBRANCH  41  42
ENDBRANCH  40  41
ENDBRANCH   9  40
TORSDOF 19
ENDMDL
MODEL 2
REMARK VINA RESULT: -8.186820576      1.586      2.700
REMARK  19 active torsions:
REMARK  status: ('A' for Active; 'I' for Inactive)
REMARK    1  A    between atoms: C3_3  and  C4_4 
REMARK    2  A    between atoms: C5_5  and  C6_6 
REMARK    3  A    between atoms: C7_7  and  C8_8 
REMARK    4  A    between atoms: C14_16  and  N2_17 
REMARK    5  A    between atoms: N2_17  and  C15_18 
REMARK    6  A    between atoms: C15_18  and  C16_19 
REMARK    7  A    between atoms: C16_19  and  C17_20 
REMARK    8  A    between atoms: C17_20  and  N3_21 
REMARK    9  A    between atoms: N4_24  and  C20_25 
REMARK   10  A    between atoms: C20_25  and  C21_26 
REMARK   11  A    between atoms: C21_26  and  O1_27 
REMARK   12  A    between atoms: O1_27  and  C22_28 
REMARK   13  A    between atoms: C22_28  and  N5_30 
REMARK   14  A    between atoms: N7_38  and  C28_40 
REMARK   15  A    between atoms: C28_40  and  C29_41 
REMARK   16  A    between atoms: C29_41  and  C30_42 
REMARK   17  A    between atoms: C30_42  and  C31_43 
REMARK   18  A    between atoms: C31_43  and  C32_44 
REMARK   19  A    between atoms: C32_44  and  N8_45 
ROOT
HETATM    1  C6  UNL     1      20.835  30.314  12.487  1.00  0.00     0.035 A 
HETATM    2  C7  UNL     1      22.218  30.348  12.569  1.00  0.00     0.060 A 
HETATM    3  N1  UNL     1      22.780  31.408  13.173  1.00  0.00    -0.315 N 
ATOM      4  H1  UNL     1      23.798  31.436  13.239  1.00  0.00     0.170 HD
HETATM    5  C14 UNL     1      22.075  32.450  13.703  1.00  0.00     0.260 A 
HETATM    6  N6  UNL     1      20.715  32.374  13.593  1.00  0.00    -0.302 N 
ATOM      7  H6  UNL     1      20.159  33.137  13.977  1.00  0.00     0.171 HD
HETATM    8  C27 UNL     1      20.074  31.363  13.015  1.00  0.00     0.117 A 
HETATM    9  N7  UNL     1      18.763  31.379  12.954  1.00  0.00    -0.375 N 
ATOM     10  H7  UNL     1      18.288  30.596  12.506  1.00  0.00     0.161 HD
ENDROOT
BRANCH   5  11
HETATM   11  N2  UNL     1      22.654  33.358  14.227  1.00  0.00    -0.388 NA
BRANCH  11  12
HETATM   12  C15 UNL     1      23.239  34.401  14.799  1.00  0.00     0.161 C 
BRANCH  12  13
HETATM   13  C16 UNL     1      22.319  35.592  15.117  1.00  0.00     0.089 C 
BRANCH  13  14
HETATM   14  C17 UNL     1      22.298  35.860  16.611  1.00  0.00     0.279 C 
BRANCH  14  15
HETATM   15  N3  UNL     1      21.451  34.940  17.298  1.00  0.00     0.091 N 
HETATM   16  C18 UNL     1      20.291  34.514  16.585  1.00  0.00     0.292 C 
HETATM   17  C19 UNL     1      19.009  34.967  17.215  1.00  0.00     0.152 C 
HETATM   18  N4  UNL     1      19.135  36.284  17.821  1.00  0.00    -0.388 N 
HETATM   19  C25 UNL     1      20.157  36.363  18.790  1.00  0.00     0.152 C 
HETATM   20  C26 UNL     1      21.238  35.309  18.651  1.00  0.00     0.292 C 
BRANCH  18  21
HETATM   21  C20 UNL     1      17.896  36.908  18.064  1.00  0.00     0.084 C 
BRANCH  21  22
HETATM   22  C21 UNL     1      17.984  38.405  17.921  1.00  0.00     0.222 C 
BRANCH  22  23
HETATM   23  O1  UNL     1      18.519  38.857  16.731  1.00  0.00    -0.322 OA
BRANCH  23  24
HETATM   24  C22 UNL     1      19.510  39.727  16.450  1.00  0.00     0.211 C 
HETATM   25  S1  UNL     1      19.062  41.330  16.356  1.00  0.00    -0.033 SA
BRANCH  24  26
HETATM   26  N5  UNL     1      20.877  39.475  16.223  1.00  0.00    -0.361 N 
HETATM   27  C23 UNL     1      21.469  39.234  14.920  1.00  0.00     0.152 C 
HETATM   28  C24 UNL     1      21.826  39.442  17.351  1.00  0.00     0.152 C 
ENDBRANCH  24  26
ENDBRANCH  23  24
ENDBRANCH  22  23
ENDBRANCH  21  22
ENDBRANCH  18  21
ENDBRANCH  14  15
ENDBRANCH  13  14
ENDBRANCH  12  13
ENDBRANCH  11  12
ENDBRANCH   5  11
BRANCH   2  29
HETATM   29  C8  UNL     1      23.092  29.289  12.035  1.00  0.00    -0.008 A 
HETATM   30  C9  UNL     1      24.036  28.810  12.939  1.00  0.00     0.014 A 
HETATM   31  C10 UNL     1      24.988  27.902  12.556  1.00  0.00     0.001 A 
HETATM   32  C11 UNL     1      25.007  27.454  11.252  1.00  0.00     0.000 A 
HETATM   33  C12 UNL     1      24.075  27.927  10.359  1.00  0.00     0.001 A 
HETATM   34  C13 UNL     1      23.128  28.840  10.763  1.00  0.00     0.014 A 
ENDBRANCH   2  29
BRANCH   1  35
HETATM   35  C5  UNL     1      20.187  29.111  12.051  1.00  0.00     0.017 C 
HETATM   36  C4  UNL     1      19.929  28.034  12.715  1.00  0.00     0.001 C 
BRANCH  36  37
HETATM   37  C3  UNL     1      19.245  26.931  12.005  1.00  0.00    -0.004 C 
HETATM   38  C2  UNL     1      18.031  26.608  12.345  1.00  0.00    -0.031 C 
HETATM   39  C1  UNL     1      17.316  27.342  13.450  1.00  0.00     0.036 C 
ENDBRANCH  36  37
ENDBRANCH   1  35
BRANCH   9  40
HETATM   40  C28 UNL     1      17.969  32.439  13.485  1.00  0.00     0.121 C 
BRANCH  40  41
HETATM   41  C29 UNL     1      17.174  32.019  14.708  1.00  0.00     0.020 C 
BRANCH  41  42
HETATM   42  C30 UNL     1      17.784  30.765  15.327  1.00  0.00     0.003 C 
BRANCH  42  43
HETATM   43  C31 UNL     1      18.608  31.113  16.549  1.00  0.00     0.027 C 
BRANCH  43  44
HETATM   44  C32 UNL     1      20.011  30.548  16.440  1.00  0.00     0.229 C 
BRANCH  44  45
HETATM   45  N8  UNL     1      20.013  29.131  16.194  1.00  0.00    -0.079 N 
ATOM     46  H83 UNL     1      19.285  28.662  16.733  1.00  0.00     0.274 HD
ATOM     47  H82 UNL     1      19.681  28.920  15.253  1.00  0.00     0.274 HD
ATOM     48  H81 UNL     1      20.926  28.708  16.365  1.00  0.00     0.274 HD
ENDBRANCH  44  45
ENDBRANCH  43  44
ENDBRANCH  42  43
ENDBRANCH  41  42
ENDBRANCH  40  41
ENDBRANCH   9  40
TORSDOF 19
ENDMDL
MODEL 3
REMARK VINA RESULT: -8.186752304      1.698      3.112
REMARK  19 active torsions:
REMARK  status: ('A' for Active; 'I' for Inactive)
REMARK    1  A    between atoms: C3_3  and  C4_4 
REMARK    2  A    between atoms: C5_5  and  C6_6 
REMARK    3  A    between atoms: C7_7  and  C8_8 
REMARK    4  A    between atoms: C14_16  and  N2_17 
REMARK    5  A    between atoms: N2_17  and  C15_18 
REMARK    6  A    between atoms: C15_18  and  C16_19 
REMARK    7  A    between atoms: C16_19  and  C17_20 
REMARK    8  A    between atoms: C17_20  and  N3_21 
REMARK    9  A    between atoms: N4_24  and  C20_25 
REMARK   10  A    between atoms: C20_25  and  C21_26 
REMARK   11  A    between atoms: C21_26  and  O1_27 
REMARK   12  A    between atoms: O1_27  and  C22_28 
REMARK   13  A    between atoms: C22_28  and  N5_30 
REMARK   14  A    between atoms: N7_38  and  C28_40 
REMARK   15  A    between atoms: C28_40  and  C29_41 
REMARK   16  A    between atoms: C29_41  and  C30_42 
REMARK   17  A    between atoms: C30_42  and  C31_43 
REMARK   18  A    between atoms: C31_43  and  C32_44 
REMARK   19  A    between atoms: C32_44  and  N8_45 
ROOT
HETATM    1  C6  UNL     1      20.639  30.136  13.024  1.00  0.00     0.035 A 
HETATM    2  C7  UNL     1      21.997  30.346  12.845  1.00  0.00     0.060 A 
HETATM    3  N1  UNL     1      22.500  31.529  13.234  1.00  0.00    -0.315 N 
ATOM      4  H1  UNL     1      23.501  31.687  13.107  1.00  0.00     0.170 HD
HETATM    5  C14 UNL     1      21.759  32.533  13.787  1.00  0.00     0.260 A 
HETATM    6  N6  UNL     1      20.424  32.281  13.939  1.00  0.00    -0.302 N 
ATOM      7  H6  UNL     1      19.841  33.011  14.347  1.00  0.00     0.171 HD
HETATM    8  C27 UNL     1      19.841  31.139  13.585  1.00  0.00     0.117 A 
HETATM    9  N7  UNL     1      18.549  30.991  13.767  1.00  0.00    -0.375 N 
ATOM     10  H7  UNL     1      18.119  30.110  13.488  1.00  0.00     0.161 HD
ENDROOT
BRANCH   5  11
HETATM   11  N2  UNL     1      22.287  33.558  14.108  1.00  0.00    -0.388 NA
BRANCH  11  12
HETATM   12  C15 UNL     1      22.836  34.692  14.522  1.00  0.00     0.161 C 
BRANCH  12  13
HETATM   13  C16 UNL     1      21.852  35.790  14.961  1.00  0.00     0.089 C 
BRANCH  13  14
HETATM   14  C17 UNL     1      22.024  36.095  16.438  1.00  0.00     0.279 C 
BRANCH  14  15
HETATM   15  N3  UNL     1      21.242  35.220  17.249  1.00  0.00     0.091 N 
HETATM   16  C18 UNL     1      20.043  34.728  16.654  1.00  0.00     0.292 C 
HETATM   17  C19 UNL     1      18.800  35.212  17.337  1.00  0.00     0.152 C 
HETATM   18  N4  UNL     1      18.946  36.573  17.832  1.00  0.00    -0.388 N 
HETATM   19  C25 UNL     1      20.031  36.738  18.718  1.00  0.00     0.152 C 
HETATM   20  C26 UNL     1      21.117  35.689  18.583  1.00  0.00     0.292 C 
BRANCH  18  21
HETATM   21  C20 UNL     1      17.716  37.200  18.114  1.00  0.00     0.084 C 
BRANCH  21  22
HETATM   22  C21 UNL     1      17.036  37.690  16.862  1.00  0.00     0.222 C 
BRANCH  22  23
HETATM   23  O1  UNL     1      17.288  39.005  16.526  1.00  0.00    -0.322 OA
BRANCH  23  24
HETATM   24  C22 UNL     1      18.111  39.937  17.049  1.00  0.00     0.211 C 
HETATM   25  S1  UNL     1      17.364  41.207  17.829  1.00  0.00    -0.033 SA
BRANCH  24  26
HETATM   26  N5  UNL     1      19.518  39.993  17.030  1.00  0.00    -0.361 N 
HETATM   27  C23 UNL     1      20.348  39.585  15.911  1.00  0.00     0.152 C 
HETATM   28  C24 UNL     1      20.260  40.493  18.202  1.00  0.00     0.152 C 
ENDBRANCH  24  26
ENDBRANCH  23  24
ENDBRANCH  22  23
ENDBRANCH  21  22
ENDBRANCH  18  21
ENDBRANCH  14  15
ENDBRANCH  13  14
ENDBRANCH  12  13
ENDBRANCH  11  12
ENDBRANCH   5  11
BRANCH   2  29
HETATM   29  C8  UNL     1      22.905  29.346  12.259  1.00  0.00    -0.008 A 
HETATM   30  C9  UNL     1      23.922  28.921  13.109  1.00  0.00     0.014 A 
HETATM   31  C10 UNL     1      24.907  28.075  12.671  1.00  0.00     0.001 A 
HETATM   32  C11 UNL     1      24.886  27.636  11.363  1.00  0.00     0.000 A 
HETATM   33  C12 UNL     1      23.882  28.055  10.523  1.00  0.00     0.001 A 
HETATM   34  C13 UNL     1      22.903  28.906  10.982  1.00  0.00     0.014 A 
ENDBRANCH   2  29
BRANCH   1  35
HETATM   35  C5  UNL     1      20.099  28.822  12.828  1.00  0.00     0.017 C 
HETATM   36  C4  UNL     1      19.425  28.354  11.832  1.00  0.00     0.001 C 
BRANCH  36  37
HETATM   37  C3  UNL     1      18.982  26.944  11.895  1.00  0.00    -0.004 C 
HETATM   38  C2  UNL     1      18.100  26.513  11.042  1.00  0.00    -0.031 C 
HETATM   39  C1  UNL     1      17.525  27.430   9.993  1.00  0.00     0.036 C 
ENDBRANCH  36  37
ENDBRANCH   1  35
BRANCH   9  40
HETATM   40  C28 UNL     1      17.719  32.001  14.336  1.00  0.00     0.121 C 
BRANCH  40  41
HETATM   41  C29 UNL     1      17.038  31.549  15.615  1.00  0.00     0.020 C 
BRANCH  41  42
HETATM   42  C30 UNL     1      15.703  32.267  15.782  1.00  0.00     0.003 C 
BRANCH  42  43
HETATM   43  C31 UNL     1      15.857  33.754  15.546  1.00  0.00     0.027 C 
BRANCH  43  44
HETATM   44  C32 UNL     1      15.155  34.554  16.626  1.00  0.00     0.229 C 
BRANCH  44  45
HETATM   45  N8  UNL     1      15.194  33.899  17.906  1.00  0.00    -0.079 N 
ATOM     46  H83 UNL     1      14.601  33.069  17.914  1.00  0.00     0.274 HD
ATOM     47  H82 UNL     1      16.099  33.454  18.064  1.00  0.00     0.274 HD
ATOM     48  H81 UNL     1      14.956  34.528  18.673  1.00  0.00     0.274 HD
ENDBRANCH  44  45
ENDBRANCH  43  44
ENDBRANCH  42  43
ENDBRANCH  41  42
ENDBRANCH  40  41
ENDBRANCH   9  40
TORSDOF 19
ENDMDL
MODEL 4
REMARK VINA RESULT: -8.151463319      1.856      3.148
REMARK  19 active torsions:
REMARK  status: ('A' for Active; 'I' for Inactive)
REMARK    1  A    between atoms: C3_3  and  C4_4 
REMARK    2  A    between atoms: C5_5  and  C6_6 
REMARK    3  A    between atoms: C7_7  and  C8_8 
REMARK    4  A    between atoms: C14_16  and  N2_17 
REMARK    5  A    between atoms: N2_17  and  C15_18 
REMARK    6  A    between atoms: C15_18  and  C16_19 
REMARK    7  A    between atoms: C16_19  and  C17_20 
REMARK    8  A    between atoms: C17_20  and  N3_21 
REMARK    9  A    between atoms: N4_24  and  C20_25 
REMARK   10  A    between atoms: C20_25  and  C21_26 
REMARK   11  A    between atoms: C21_26  and  O1_27 
REMARK   12  A    between atoms: O1_27  and  C22_28 
REMARK   13  A    between atoms: C22_28  and  N5_30 
REMARK   14  A    between atoms: N7_38  and  C28_40 
REMARK   15  A    between atoms: C28_40  and  C29_41 
REMARK   16  A    between atoms: C29_41  and  C30_42 
REMARK   17  A    between atoms: C30_42  and  C31_43 
REMARK   18  A    between atoms: C31_43  and  C32_44 
REMARK   19  A    between atoms: C32_44  and  N8_45 
ROOT
HETATM    1  C6  UNL     1      20.715  29.870  12.838  1.00  0.00     0.035 A 
HETATM    2  C7  UNL     1      22.071  30.121  12.702  1.00  0.00     0.060 A 
HETATM    3  N1  UNL     1      22.529  31.312  13.119  1.00  0.00    -0.315 N 
ATOM      4  H1  UNL     1      23.528  31.500  13.025  1.00  0.00     0.170 HD
HETATM    5  C14 UNL     1      21.743  32.287  13.663  1.00  0.00     0.260 A 
HETATM    6  N6  UNL     1      20.412  31.996  13.772  1.00  0.00    -0.302 N 
ATOM      7  H6  UNL     1      19.797  32.704  14.172  1.00  0.00     0.171 HD
HETATM    8  C27 UNL     1      19.872  30.843  13.387  1.00  0.00     0.117 A 
HETATM    9  N7  UNL     1      18.581  30.656  13.529  1.00  0.00    -0.375 N 
ATOM     10  H7  UNL     1      18.184  29.766  13.227  1.00  0.00     0.161 HD
ENDROOT
BRANCH   5  11
HETATM   11  N2  UNL     1      22.232  33.323  14.012  1.00  0.00    -0.388 NA
BRANCH  11  12
HETATM   12  C15 UNL     1      22.777  34.488  14.334  1.00  0.00     0.161 C 
BRANCH  12  13
HETATM   13  C16 UNL     1      21.841  35.497  15.020  1.00  0.00     0.089 C 
BRANCH  13  14
HETATM   14  C17 UNL     1      22.219  35.661  16.481  1.00  0.00     0.279 C 
BRANCH  14  15
HETATM   15  N3  UNL     1      21.268  35.038  17.342  1.00  0.00     0.091 N 
HETATM   16  C18 UNL     1      19.972  34.823  16.784  1.00  0.00     0.292 C 
HETATM   17  C19 UNL     1      18.898  35.622  17.454  1.00  0.00     0.152 C 
HETATM   18  N4  UNL     1      19.376  36.929  17.881  1.00  0.00    -0.388 N 
HETATM   19  C25 UNL     1      20.488  36.867  18.746  1.00  0.00     0.152 C 
HETATM   20  C26 UNL     1      21.287  35.583  18.652  1.00  0.00     0.292 C 
BRANCH  18  21
HETATM   21  C20 UNL     1      18.339  37.846  18.144  1.00  0.00     0.084 C 
BRANCH  21  22
HETATM   22  C21 UNL     1      17.188  37.681  17.186  1.00  0.00     0.222 C 
BRANCH  22  23
HETATM   23  O1  UNL     1      16.814  38.823  16.506  1.00  0.00    -0.322 OA
BRANCH  23  24
HETATM   24  C22 UNL     1      16.868  40.132  16.825  1.00  0.00     0.211 C 
HETATM   25  S1  UNL     1      15.594  40.711  17.729  1.00  0.00    -0.033 SA
BRANCH  24  26
HETATM   26  N5  UNL     1      17.853  41.086  16.501  1.00  0.00    -0.361 N 
HETATM   27  C23 UNL     1      19.167  40.773  15.969  1.00  0.00     0.152 C 
HETATM   28  C24 UNL     1      17.589  42.524  16.694  1.00  0.00     0.152 C 
ENDBRANCH  24  26
ENDBRANCH  23  24
ENDBRANCH  22  23
ENDBRANCH  21  22
ENDBRANCH  18  21
ENDBRANCH  14  15
ENDBRANCH  13  14
ENDBRANCH  12  13
ENDBRANCH  11  12
ENDBRANCH   5  11
BRANCH   2  29
HETATM   29  C8  UNL     1      23.024  29.154  12.130  1.00  0.00    -0.008 A 
HETATM   30  C9  UNL     1      24.013  28.729  13.013  1.00  0.00     0.014 A 
HETATM   31  C10 UNL     1      25.033  27.914  12.596  1.00  0.00     0.001 A 
HETATM   32  C11 UNL     1      25.077  27.508  11.279  1.00  0.00     0.000 A 
HETATM   33  C12 UNL     1      24.101  27.929  10.406  1.00  0.00     0.001 A 
HETATM   34  C13 UNL     1      23.086  28.748  10.844  1.00  0.00     0.014 A 
ENDBRANCH   2  29
BRANCH   1  35
HETATM   35  C5  UNL     1      20.219  28.544  12.611  1.00  0.00     0.017 C 
HETATM   36  C4  UNL     1      19.533  28.086  11.618  1.00  0.00     0.001 C 
BRANCH  36  37
HETATM   37  C3  UNL     1      19.145  26.659  11.642  1.00  0.00    -0.004 C 
HETATM   38  C2  UNL     1      18.230  26.231  10.823  1.00  0.00    -0.031 C 
HETATM   39  C1  UNL     1      17.560  27.170   9.853  1.00  0.00     0.036 C 
ENDBRANCH  36  37
ENDBRANCH   1  35
BRANCH   9  40
HETATM   40  C28 UNL     1      17.706  31.635  14.086  1.00  0.00     0.121 C 
BRANCH  40  41
HETATM   41  C29 UNL     1      17.243  31.278  15.487  1.00  0.00     0.020 C 
BRANCH  41  42
HETATM   42  C30 UNL     1      15.947  32.013  15.815  1.00  0.00     0.003 C 
BRANCH  42  43
HETATM   43  C31 UNL     1      16.234  33.347  16.470  1.00  0.00     0.027 C 
BRANCH  43  44
HETATM   44  C32 UNL     1      15.655  34.489  15.657  1.00  0.00     0.229 C 
BRANCH  44  45
HETATM   45  N8  UNL     1      16.582  34.990  14.677  1.00  0.00    -0.079 N 
ATOM     46  H83 UNL     1      17.536  34.988  15.038  1.00  0.00     0.274 HD
ATOM     47  H82 UNL     1      16.696  34.329  13.908  1.00  0.00     0.274 HD
ATOM     48  H81 UNL     1      16.322  35.914  14.332  1.00  0.00     0.274 HD
ENDBRANCH  44  45
ENDBRANCH  43  44
ENDBRANCH  42  43
ENDBRANCH  41  42
ENDBRANCH  40  41
ENDBRANCH   9  40
TORSDOF 19
ENDMDL
MODEL 5
REMARK VINA RESULT: -8.012423960      1.770      2.488
REMARK  19 active torsions:
REMARK  status: ('A' for Active; 'I' for Inactive)
REMARK    1  A    between atoms: C3_3  and  C4_4 
REMARK    2  A    between atoms: C5_5  and  C6_6 
REMARK    3  A    between atoms: C7_7  and  C8_8 
REMARK    4  A    between atoms: C14_16  and  N2_17 
REMARK    5  A    between atoms: N2_17  and  C15_18 
REMARK    6  A    between atoms: C15_18  and  C16_19 
REMARK    7  A    between atoms: C16_19  and  C17_20 
REMARK    8  A    between atoms: C17_20  and  N3_21 
REMARK    9  A    between atoms: N4_24  and  C20_25 
REMARK   10  A    between atoms: C20_25  and  C21_26 
REMARK   11  A    between atoms: C21_26  and  O1_27 
REMARK   12  A    between atoms: O1_27  and  C22_28 
REMARK   13  A    between atoms: C22_28  and  N5_30 
REMARK   14  A    between atoms: N7_38  and  C28_40 
REMARK   15  A    between atoms: C28_40  and  C29_41 
REMARK   16  A    between atoms: C29_41  and  C30_42 
REMARK   17  A    between atoms: C30_42  and  C31_43 
REMARK   18  A    between atoms: C31_43  and  C32_44 
REMARK   19  A    between atoms: C32_44  and  N8_45 
ROOT
HETATM    1  C6  UNL     1      20.816  30.294  12.480  1.00  0.00     0.035 A 
HETATM    2  C7  UNL     1      22.199  30.352  12.545  1.00  0.00     0.060 A 
HETATM    3  N1  UNL     1      22.751  31.431  13.123  1.00  0.00    -0.315 N 
ATOM      4  H1  UNL     1      23.769  31.476  13.176  1.00  0.00     0.170 HD
HETATM    5  C14 UNL     1      22.036  32.471  13.644  1.00  0.00     0.260 A 
HETATM    6  N6  UNL     1      20.676  32.371  13.551  1.00  0.00    -0.302 N 
ATOM      7  H6  UNL     1      20.112  33.133  13.929  1.00  0.00     0.171 HD
HETATM    8  C27 UNL     1      20.044  31.340  12.998  1.00  0.00     0.117 A 
HETATM    9  N7  UNL     1      18.732  31.335  12.954  1.00  0.00    -0.375 N 
ATOM     10  H7  UNL     1      18.265  30.537  12.525  1.00  0.00     0.161 HD
ENDROOT
BRANCH   5  11
HETATM   11  N2  UNL     1      22.606  33.397  14.144  1.00  0.00    -0.388 NA
BRANCH  11  12
HETATM   12  C15 UNL     1      23.193  34.421  14.749  1.00  0.00     0.161 C 
BRANCH  12  13
HETATM   13  C16 UNL     1      22.290  35.634  15.032  1.00  0.00     0.089 C 
BRANCH  13  14
HETATM   14  C17 UNL     1      22.186  35.878  16.527  1.00  0.00     0.279 C 
BRANCH  14  15
HETATM   15  N3  UNL     1      21.429  34.857  17.174  1.00  0.00     0.091 N 
HETATM   16  C18 UNL     1      20.270  34.406  16.475  1.00  0.00     0.292 C 
HETATM   17  C19 UNL     1      18.989  34.725  17.183  1.00  0.00     0.152 C 
HETATM   18  N4  UNL     1      19.055  36.000  17.881  1.00  0.00    -0.388 N 
HETATM   19  C25 UNL     1      20.110  36.079  18.814  1.00  0.00     0.152 C 
HETATM   20  C26 UNL     1      21.249  35.112  18.558  1.00  0.00     0.292 C 
BRANCH  18  21
HETATM   21  C20 UNL     1      17.790  36.521  18.215  1.00  0.00     0.084 C 
BRANCH  21  22
HETATM   22  C21 UNL     1      17.236  37.397  17.121  1.00  0.00     0.222 C 
BRANCH  22  23
HETATM   23  O1  UNL     1      17.723  38.688  17.091  1.00  0.00    -0.322 OA
BRANCH  23  24
HETATM   24  C22 UNL     1      17.150  39.883  17.341  1.00  0.00     0.211 C 
HETATM   25  S1  UNL     1      17.781  41.178  16.504  1.00  0.00    -0.033 SA
BRANCH  24  26
HETATM   26  N5  UNL     1      16.089  40.196  18.214  1.00  0.00    -0.361 N 
HETATM   27  C23 UNL     1      14.977  41.069  17.886  1.00  0.00     0.152 C 
HETATM   28  C24 UNL     1      16.050  39.625  19.573  1.00  0.00     0.152 C 
ENDBRANCH  24  26
ENDBRANCH  23  24
ENDBRANCH  22  23
ENDBRANCH  21  22
ENDBRANCH  18  21
ENDBRANCH  14  15
ENDBRANCH  13  14
ENDBRANCH  12  13
ENDBRANCH  11  12
ENDBRANCH   5  11
BRANCH   2  29
HETATM   29  C8  UNL     1      23.083  29.298  12.019  1.00  0.00    -0.008 A 
HETATM   30  C9  UNL     1      24.032  28.835  12.927  1.00  0.00     0.014 A 
HETATM   31  C10 UNL     1      24.993  27.933  12.551  1.00  0.00     0.001 A 
HETATM   32  C11 UNL     1      25.017  27.475  11.250  1.00  0.00     0.000 A 
HETATM   33  C12 UNL     1      24.079  27.933  10.353  1.00  0.00     0.001 A 
HETATM   34  C13 UNL     1      23.124  28.839  10.750  1.00  0.00     0.014 A 
ENDBRANCH   2  29
BRANCH   1  35
HETATM   35  C5  UNL     1      20.182  29.074  12.073  1.00  0.00     0.017 C 
HETATM   36  C4  UNL     1      19.955  28.003  12.756  1.00  0.00     0.001 C 
BRANCH  36  37
HETATM   37  C3  UNL     1      19.278  26.877  12.076  1.00  0.00    -0.004 C 
HETATM   38  C2  UNL     1      18.048  26.589  12.385  1.00  0.00    -0.031 C 
HETATM   39  C1  UNL     1      17.307  27.385  13.428  1.00  0.00     0.036 C 
ENDBRANCH  36  37
ENDBRANCH   1  35
BRANCH   9  40
HETATM   40  C28 UNL     1      17.928  32.391  13.476  1.00  0.00     0.121 C 
BRANCH  40  41
HETATM   41  C29 UNL     1      17.157  31.982  14.717  1.00  0.00     0.020 C 
BRANCH  41  42
HETATM   42  C30 UNL     1      17.760  30.715  15.317  1.00  0.00     0.003 C 
BRANCH  42  43
HETATM   43  C31 UNL     1      18.574  31.038  16.552  1.00  0.00     0.027 C 
BRANCH  43  44
HETATM   44  C32 UNL     1      19.994  30.523  16.420  1.00  0.00     0.229 C 
BRANCH  44  45
HETATM   45  N8  UNL     1      20.043  29.102  16.197  1.00  0.00    -0.079 N 
ATOM     46  H83 UNL     1      19.173  28.764  15.786  1.00  0.00     0.274 HD
ATOM     47  H82 UNL     1      20.682  28.872  15.436  1.00  0.00     0.274 HD
ATOM     48  H81 UNL     1      20.277  28.583  17.043  1.00  0.00     0.274 HD
ENDBRANCH  44  45
ENDBRANCH  43  44
ENDBRANCH  42  43
ENDBRANCH  41  42
ENDBRANCH  40  41
ENDBRANCH   9  40
TORSDOF 19
ENDMDL
