MODEL 1
REMARK VINA RESULT: -8.350646655      0.000      0.000
REMARK  17 active torsions:
REMARK  status: ('A' for Active; 'I' for Inactive)
REMARK    1  A    between atoms: C2_2  and  C4_4 
REMARK    2  A    between atoms: C4_4  and  C5_5 
REMARK    3  A    between atoms: C5_5  and  O2_7 
REMARK    4  A    between atoms: O2_7  and  C6_8 
REMARK    5  A    between atoms: C6_8  and  C8_10 
REMARK    6  A    between atoms: C8_10  and  N1_12 
REMARK       I    between atoms: N1_12  and  C10_14 
REMARK    7  A    between atoms: C10_14  and  C11_16 
REMARK    8  A    between atoms: C11_16  and  C12_17 
REMARK    9  A    between atoms: C11_16  and  N2_21 
REMARK   10  A    between atoms: C12_17  and  C13_18 
REMARK       I    between atoms: N2_21  and  C16_23 
REMARK   11  A    between atoms: C16_23  and  C17_25 
REMARK   12  A    between atoms: C21_30  and  C22_31 
REMARK       I    between atoms: C22_31  and  N3_33 
REMARK   13  A    between atoms: N3_33  and  C23_35 
REMARK   14  A    between atoms: C23_35  and  C24_36 
REMARK   15  A    between atoms: C23_35  and  C28_40 
REMARK   16  A    between atoms: C24_36  and  C25_37 
REMARK   17  A    between atoms: C28_40  and  C29_42 
ROOT
HETATM    1  N2  UNL     1      19.478  31.659  14.342  1.00  0.00    -0.347 N 
ATOM      2  H2  UNL     1      19.706  32.194  13.505  1.00  0.00     0.163 HD
HETATM    3  C16 UNL     1      20.266  31.819  15.495  1.00  0.00     0.223 C 
HETATM    4  O4  UNL     1      20.003  31.182  16.534  1.00  0.00    -0.273 OA
ENDROOT
BRANCH   3   5
HETATM    5  C17 UNL     1      21.441  32.749  15.523  1.00  0.00     0.098 C 
HETATM    6  C18 UNL     1      22.137  32.491  14.162  1.00  0.00     0.093 C 
HETATM    7  C19 UNL     1      22.994  33.695  14.078  1.00  0.00     0.128 C 
HETATM    8  O5  UNL     1      24.142  33.780  13.703  1.00  0.00    -0.298 OA
HETATM    9  C20 UNL     1      22.163  34.811  14.549  1.00  0.00     0.093 C 
HETATM   10  C21 UNL     1      21.015  34.179  15.309  1.00  0.00     0.098 C 
BRANCH  10  11
HETATM   11  C22 UNL     1      20.665  34.903  16.553  1.00  0.00     0.223 C 
HETATM   12  O6  UNL     1      20.828  34.318  17.648  1.00  0.00    -0.273 OA
HETATM   13  N3  UNL     1      20.160  36.214  16.534  1.00  0.00    -0.349 N 
ATOM     14  H3  UNL     1      20.047  36.655  15.621  1.00  0.00     0.163 HD
BRANCH  13  15
HETATM   15  C23 UNL     1      19.780  37.006  17.707  1.00  0.00     0.155 C 
BRANCH  15  16
HETATM   16  C24 UNL     1      20.922  37.970  17.913  1.00  0.00     0.037 C 
BRANCH  16  17
HETATM   17  C25 UNL     1      21.917  37.927  16.749  1.00  0.00    -0.020 C 
HETATM   18  C26 UNL     1      23.316  37.623  17.190  1.00  0.00     0.009 C 
HETATM   19  C27 UNL     1      21.849  39.263  16.029  1.00  0.00     0.009 C 
ENDBRANCH  16  17
ENDBRANCH  15  16
BRANCH  15  20
HETATM   20  C28 UNL     1      18.470  37.655  17.474  1.00  0.00     0.157 C 
HETATM   21  O7  UNL     1      18.464  38.774  16.983  1.00  0.00    -0.295 OA
BRANCH  20  22
HETATM   22  C29 UNL     1      17.170  37.052  17.791  1.00  0.00     0.012 C 
HETATM   23  C30 UNL     1      16.297  36.953  16.516  1.00  0.00     0.022 C 
HETATM   24  C31 UNL     1      17.278  35.635  18.310  1.00  0.00     0.022 C 
HETATM   25  C32 UNL     1      16.315  37.924  18.722  1.00  0.00     0.022 C 
ENDBRANCH  20  22
ENDBRANCH  15  20
ENDBRANCH  13  15
ENDBRANCH  10  11
ENDBRANCH   3   5
BRANCH   1  26
HETATM   26  C11 UNL     1      18.321  30.726  14.316  1.00  0.00     0.177 C 
BRANCH  26  27
HETATM   27  C10 UNL     1      18.503  29.905  13.134  1.00  0.00     0.240 C 
HETATM   28  N1  UNL     1      18.690  28.494  13.109  1.00  0.00    -0.353 N 
ATOM     29  H1  UNL     1      18.702  27.978  13.989  1.00  0.00     0.163 HD
HETATM   30  O3  UNL     1      18.502  30.492  11.987  1.00  0.00    -0.271 OA
BRANCH  28  31
HETATM   31  C8  UNL     1      18.862  27.773  11.867  1.00  0.00     0.109 C 
HETATM   32  C9  UNL     1      18.301  26.380  11.938  1.00  0.00     0.035 C 
BRANCH  31  33
HETATM   33  C6  UNL     1      20.360  27.632  11.572  1.00  0.00     0.150 C 
HETATM   34  C7  UNL     1      20.551  26.298  10.898  1.00  0.00     0.042 C 
BRANCH  33  35
HETATM   35  O2  UNL     1      21.072  27.541  12.811  1.00  0.00    -0.314 OA
BRANCH  35  36
HETATM   36  C5  UNL     1      21.849  28.562  13.317  1.00  0.00     0.259 C 
HETATM   37  O1  UNL     1      21.623  29.007  14.452  1.00  0.00    -0.265 OA
BRANCH  36  38
HETATM   38  C4  UNL     1      22.947  29.117  12.503  1.00  0.00     0.115 C 
BRANCH  38  39
HETATM   39  C2  UNL     1      23.979  28.101  12.135  1.00  0.00    -0.013 C 
HETATM   40  C1  UNL     1      24.159  28.016  10.638  1.00  0.00     0.010 C 
HETATM   41  C3  UNL     1      25.278  28.438  12.830  1.00  0.00     0.010 C 
ENDBRANCH  38  39
ENDBRANCH  36  38
ENDBRANCH  35  36
ENDBRANCH  33  35
ENDBRANCH  31  33
ENDBRANCH  28  31
ENDBRANCH  26  27
BRANCH  26  42
HETATM   42  C12 UNL     1      17.113  31.601  14.270  1.00  0.00     0.038 C 
BRANCH  42  43
HETATM   43  C13 UNL     1      16.998  32.768  15.150  1.00  0.00    -0.020 C 
HETATM   44  C14 UNL     1      15.895  32.694  16.193  1.00  0.00     0.009 C 
HETATM   45  C15 UNL     1      17.043  34.130  14.556  1.00  0.00     0.009 C 
ENDBRANCH  42  43
ENDBRANCH  26  42
ENDBRANCH   1  26
TORSDOF 17
ENDMDL
MODEL 2
REMARK VINA RESULT: -8.187794474      2.519      9.587
REMARK  17 active torsions:
REMARK  status: ('A' for Active; 'I' for Inactive)
REMARK    1  A    between atoms: C2_2  and  C4_4 
REMARK    2  A    between atoms: C4_4  and  C5_5 
REMARK    3  A    between atoms: C5_5  and  O2_7 
REMARK    4  A    between atoms: O2_7  and  C6_8 
REMARK    5  A    between atoms: C6_8  and  C8_10 
REMARK    6  A    between atoms: C8_10  and  N1_12 
REMARK       I    between atoms: N1_12  and  C10_14 
REMARK    7  A    between atoms: C10_14  and  C11_16 
REMARK    8  A    between atoms: C11_16  and  C12_17 
REMARK    9  A    between atoms: C11_16  and  N2_21 
REMARK   10  A    between atoms: C12_17  and  C13_18 
REMARK       I    between atoms: N2_21  and  C16_23 
REMARK   11  A    between atoms: C16_23  and  C17_25 
REMARK   12  A    between atoms: C21_30  and  C22_31 
REMARK       I    between atoms: C22_31  and  N3_33 
REMARK   13  A    between atoms: N3_33  and  C23_35 
REMARK   14  A    between atoms: C23_35  and  C24_36 
REMARK   15  A    between atoms: C23_35  and  C28_40 
REMARK   16  A    between atoms: C24_36  and  C25_37 
REMARK   17  A    between atoms: C28_40  and  C29_42 
ROOT
HETATM    1  N2  UNL     1      19.431  35.567  16.894  1.00  0.00    -0.347 N 
ATOM      2  H2  UNL     1      19.113  35.602  15.925  1.00  0.00     0.163 HD
HETATM    3  C16 UNL     1      18.626  34.937  17.858  1.00  0.00     0.223 C 
HETATM    4  O4  UNL     1      18.997  34.873  19.047  1.00  0.00    -0.273 OA
ENDROOT
BRANCH   3   5
HETATM    5  C17 UNL     1      17.305  34.325  17.503  1.00  0.00     0.098 C 
HETATM    6  C18 UNL     1      16.319  35.518  17.596  1.00  0.00     0.093 C 
HETATM    7  C19 UNL     1      15.170  34.963  16.845  1.00  0.00     0.128 C 
HETATM    8  O5  UNL     1      13.989  35.047  17.101  1.00  0.00    -0.298 OA
HETATM    9  C20 UNL     1      15.747  34.265  15.688  1.00  0.00     0.093 C 
HETATM   10  C21 UNL     1      17.208  34.046  16.025  1.00  0.00     0.098 C 
BRANCH  10  11
HETATM   11  C22 UNL     1      17.709  32.711  15.623  1.00  0.00     0.223 C 
HETATM   12  O6  UNL     1      17.789  31.818  16.497  1.00  0.00    -0.273 OA
HETATM   13  N3  UNL     1      18.094  32.427  14.302  1.00  0.00    -0.349 N 
ATOM     14  H3  UNL     1      18.009  33.182  13.621  1.00  0.00     0.163 HD
BRANCH  13  15
HETATM   15  C23 UNL     1      18.607  31.145  13.812  1.00  0.00     0.155 C 
BRANCH  15  16
HETATM   16  C24 UNL     1      17.449  30.518  13.076  1.00  0.00     0.037 C 
BRANCH  16  17
HETATM   17  C25 UNL     1      17.846  29.191  12.419  1.00  0.00    -0.020 C 
HETATM   18  C26 UNL     1      16.994  28.849  11.236  1.00  0.00     0.009 C 
HETATM   19  C27 UNL     1      17.772  28.107  13.479  1.00  0.00     0.009 C 
ENDBRANCH  16  17
ENDBRANCH  15  16
BRANCH  15  20
HETATM   20  C28 UNL     1      19.809  31.369  12.978  1.00  0.00     0.157 C 
HETATM   21  O7  UNL     1      19.717  32.143  12.037  1.00  0.00    -0.295 OA
BRANCH  20  22
HETATM   22  C29 UNL     1      21.110  30.727  13.198  1.00  0.00     0.012 C 
HETATM   23  C30 UNL     1      21.527  29.911  11.949  1.00  0.00     0.022 C 
HETATM   24  C31 UNL     1      22.235  31.714  13.422  1.00  0.00     0.022 C 
HETATM   25  C32 UNL     1      21.075  29.661  14.304  1.00  0.00     0.022 C 
ENDBRANCH  20  22
ENDBRANCH  15  20
ENDBRANCH  13  15
ENDBRANCH  10  11
ENDBRANCH   3   5
BRANCH   1  26
HETATM   26  C11 UNL     1      20.736  36.182  17.254  1.00  0.00     0.177 C 
BRANCH  26  27
HETATM   27  C10 UNL     1      20.445  37.571  17.559  1.00  0.00     0.240 C 
HETATM   28  N1  UNL     1      19.774  38.496  16.710  1.00  0.00    -0.353 N 
ATOM     29  H1  UNL     1      19.454  38.188  15.792  1.00  0.00     0.163 HD
HETATM   30  O3  UNL     1      20.826  38.030  18.700  1.00  0.00    -0.271 OA
BRANCH  28  31
HETATM   31  C8  UNL     1      19.536  39.863  17.116  1.00  0.00     0.109 C 
HETATM   32  C9  UNL     1      18.142  40.319  16.783  1.00  0.00     0.035 C 
BRANCH  31  33
HETATM   33  C6  UNL     1      20.496  40.788  16.358  1.00  0.00     0.150 C 
HETATM   34  C7  UNL     1      19.985  42.194  16.538  1.00  0.00     0.042 C 
BRANCH  33  35
HETATM   35  O2  UNL     1      20.391  40.518  14.955  1.00  0.00    -0.314 OA
BRANCH  35  36
HETATM   36  C5  UNL     1      21.439  40.046  14.193  1.00  0.00     0.259 C 
HETATM   37  O1  UNL     1      21.714  38.837  14.199  1.00  0.00    -0.265 OA
BRANCH  36  38
HETATM   38  C4  UNL     1      22.227  40.986  13.373  1.00  0.00     0.115 C 
BRANCH  38  39
HETATM   39  C2  UNL     1      22.899  40.331  12.210  1.00  0.00    -0.013 C 
HETATM   40  C1  UNL     1      21.917  40.046  11.097  1.00  0.00     0.010 C 
HETATM   41  C3  UNL     1      24.035  41.207  11.733  1.00  0.00     0.010 C 
ENDBRANCH  38  39
ENDBRANCH  36  38
ENDBRANCH  35  36
ENDBRANCH  33  35
ENDBRANCH  31  33
ENDBRANCH  28  31
ENDBRANCH  26  27
BRANCH  26  42
HETATM   42  C12 UNL     1      21.603  35.991  16.055  1.00  0.00     0.038 C 
BRANCH  42  43
HETATM   43  C13 UNL     1      22.159  34.673  15.733  1.00  0.00    -0.020 C 
HETATM   44  C14 UNL     1      22.261  33.704  16.899  1.00  0.00     0.009 C 
HETATM   45  C15 UNL     1      23.385  34.589  14.897  1.00  0.00     0.009 C 
ENDBRANCH  42  43
ENDBRANCH  26  42
ENDBRANCH   1  26
TORSDOF 17
ENDMDL
MODEL 3
REMARK VINA RESULT: -8.185658031      1.270      1.796
REMARK  17 active torsions:
REMARK  status: ('A' for Active; 'I' for Inactive)
REMARK    1  A    between atoms: C2_2  and  C4_4 
REMARK    2  A    between atoms: C4_4  and  C5_5 
REMARK    3  A    between atoms: C5_5  and  O2_7 
REMARK    4  A    between atoms: O2_7  and  C6_8 
REMARK    5  A    between atoms: C6_8  and  C8_10 
REMARK    6  A    between atoms: C8_10  and  N1_12 
REMARK       I    between atoms: N1_12  and  C10_14 
REMARK    7  A    between atoms: C10_14  and  C11_16 
REMARK    8  A    between atoms: C11_16  and  C12_17 
REMARK    9  A    between atoms: C11_16  and  N2_21 
REMARK   10  A    between atoms: C12_17  and  C13_18 
REMARK       I    between atoms: N2_21  and  C16_23 
REMARK   11  A    between atoms: C16_23  and  C17_25 
REMARK   12  A    between atoms: C21_30  and  C22_31 
REMARK       I    between atoms: C22_31  and  N3_33 
REMARK   13  A    between atoms: N3_33  and  C23_35 
REMARK   14  A    between atoms: C23_35  and  C24_36 
REMARK   15  A    between atoms: C23_35  and  C28_40 
REMARK   16  A    between atoms: C24_36  and  C25_37 
REMARK   17  A    between atoms: C28_40  and  C29_42 
ROOT
HETATM    1  N2  UNL     1      18.799  32.562  15.787  1.00  0.00    -0.347 N 
ATOM      2  H2  UNL     1      18.582  33.501  15.456  1.00  0.00     0.163 HD
HETATM    3  C16 UNL     1      20.105  32.270  16.217  1.00  0.00     0.223 C 
HETATM    4  O4  UNL     1      20.394  31.131  16.634  1.00  0.00    -0.273 OA
ENDROOT
BRANCH   3   5
HETATM    5  C17 UNL     1      21.192  33.301  16.189  1.00  0.00     0.098 C 
HETATM    6  C18 UNL     1      22.034  32.906  14.949  1.00  0.00     0.093 C 
HETATM    7  C19 UNL     1      22.793  34.159  14.741  1.00  0.00     0.128 C 
HETATM    8  O5  UNL     1      23.961  34.296  14.451  1.00  0.00    -0.298 OA
HETATM    9  C20 UNL     1      21.832  35.250  14.956  1.00  0.00     0.093 C 
HETATM   10  C21 UNL     1      20.673  34.635  15.713  1.00  0.00     0.098 C 
BRANCH  10  11
HETATM   11  C22 UNL     1      20.147  35.504  16.791  1.00  0.00     0.223 C 
HETATM   12  O6  UNL     1      19.519  34.970  17.734  1.00  0.00    -0.273 OA
HETATM   13  N3  UNL     1      20.334  36.897  16.782  1.00  0.00    -0.349 N 
ATOM     14  H3  UNL     1      20.855  37.290  15.998  1.00  0.00     0.163 HD
BRANCH  13  15
HETATM   15  C23 UNL     1      19.848  37.836  17.795  1.00  0.00     0.155 C 
BRANCH  15  16
HETATM   16  C24 UNL     1      21.063  38.630  18.206  1.00  0.00     0.037 C 
BRANCH  16  17
HETATM   17  C25 UNL     1      22.227  38.432  17.229  1.00  0.00    -0.020 C 
HETATM   18  C26 UNL     1      23.471  37.936  17.899  1.00  0.00     0.009 C 
HETATM   19  C27 UNL     1      22.473  39.755  16.526  1.00  0.00     0.009 C 
ENDBRANCH  16  17
ENDBRANCH  15  16
BRANCH  15  20
HETATM   20  C28 UNL     1      18.746  38.653  17.239  1.00  0.00     0.157 C 
HETATM   21  O7  UNL     1      18.961  39.278  16.211  1.00  0.00    -0.295 OA
BRANCH  20  22
HETATM   22  C29 UNL     1      17.409  38.770  17.831  1.00  0.00     0.012 C 
HETATM   23  C30 UNL     1      17.475  39.558  19.162  1.00  0.00     0.022 C 
HETATM   24  C31 UNL     1      16.434  39.535  16.963  1.00  0.00     0.022 C 
HETATM   25  C32 UNL     1      16.825  37.416  18.266  1.00  0.00     0.022 C 
ENDBRANCH  20  22
ENDBRANCH  15  20
ENDBRANCH  13  15
ENDBRANCH  10  11
ENDBRANCH   3   5
BRANCH   1  26
HETATM   26  C11 UNL     1      17.728  31.531  15.805  1.00  0.00     0.177 C 
BRANCH  26  27
HETATM   27  C10 UNL     1      17.963  30.698  14.641  1.00  0.00     0.240 C 
HETATM   28  N1  UNL     1      18.699  29.479  14.613  1.00  0.00    -0.353 N 
ATOM     29  H1  UNL     1      19.113  29.128  15.476  1.00  0.00     0.163 HD
HETATM   30  O3  UNL     1      17.471  31.083  13.514  1.00  0.00    -0.271 OA
BRANCH  28  31
HETATM   31  C8  UNL     1      18.872  28.725  13.391  1.00  0.00     0.109 C 
HETATM   32  C9  UNL     1      17.891  27.591  13.280  1.00  0.00     0.035 C 
BRANCH  31  33
HETATM   33  C6  UNL     1      20.272  28.101  13.380  1.00  0.00     0.150 C 
HETATM   34  C7  UNL     1      21.175  29.031  14.147  1.00  0.00     0.042 C 
BRANCH  33  35
HETATM   35  O2  UNL     1      20.771  28.101  12.037  1.00  0.00    -0.314 OA
BRANCH  35  36
HETATM   36  C5  UNL     1      21.825  27.316  11.619  1.00  0.00     0.259 C 
HETATM   37  O1  UNL     1      21.700  26.084  11.578  1.00  0.00    -0.265 OA
BRANCH  36  38
HETATM   38  C4  UNL     1      23.096  27.951  11.220  1.00  0.00     0.115 C 
BRANCH  38  39
HETATM   39  C2  UNL     1      24.271  27.454  11.997  1.00  0.00    -0.013 C 
HETATM   40  C1  UNL     1      25.309  26.835  11.090  1.00  0.00     0.010 C 
HETATM   41  C3  UNL     1      24.851  28.592  12.805  1.00  0.00     0.010 C 
ENDBRANCH  38  39
ENDBRANCH  36  38
ENDBRANCH  35  36
ENDBRANCH  33  35
ENDBRANCH  31  33
ENDBRANCH  28  31
ENDBRANCH  26  27
BRANCH  26  42
HETATM   42  C12 UNL     1      16.448  32.296  15.758  1.00  0.00     0.038 C 
BRANCH  42  43
HETATM   43  C13 UNL     1      16.379  33.676  16.249  1.00  0.00    -0.020 C 
HETATM   44  C14 UNL     1      15.524  33.887  17.487  1.00  0.00     0.009 C 
HETATM   45  C15 UNL     1      16.147  34.778  15.279  1.00  0.00     0.009 C 
ENDBRANCH  42  43
ENDBRANCH  26  42
ENDBRANCH   1  26
TORSDOF 17
ENDMDL
MODEL 4
REMARK VINA RESULT: -8.136615964      2.081      4.670
REMARK  17 active torsions:
REMARK  status: ('A' for Active; 'I' for Inactive)
REMARK    1  A    between atoms: C2_2  and  C4_4 
REMARK    2  A    between atoms: C4_4  and  C5_5 
REMARK    3  A    between atoms: C5_5  and  O2_7 
REMARK    4  A    between atoms: O2_7  and  C6_8 
REMARK    5  A    between atoms: C6_8  and  C8_10 
REMARK    6  A    between atoms: C8_10  and  N1_12 
REMARK       I    between atoms: N1_12  and  C10_14 
REMARK    7  A    between atoms: C10_14  and  C11_16 
REMARK    8  A    between atoms: C11_16  and  C12_17 
REMARK    9  A    between atoms: C11_16  and  N2_21 
REMARK   10  A    between atoms: C12_17  and  C13_18 
REMARK       I    between atoms: N2_21  and  C16_23 
REMARK   11  A    between atoms: C16_23  and  C17_25 
REMARK   12  A    between atoms: C21_30  and  C22_31 
REMARK       I    between atoms: C22_31  and  N3_33 
REMARK   13  A    between atoms: N3_33  and  C23_35 
REMARK   14  A    between atoms: C23_35  and  C24_36 
REMARK   15  A    between atoms: C23_35  and  C28_40 
REMARK   16  A    between atoms: C24_36  and  C25_37 
REMARK   17  A    between atoms: C28_40  and  C29_42 
ROOT
HETATM    1  N2  UNL     1      17.867  32.369  15.039  1.00  0.00    -0.347 N 
ATOM      2  H2  UNL     1      18.434  33.137  14.680  1.00  0.00     0.163 HD
HETATM    3  C16 UNL     1      16.732  32.657  15.815  1.00  0.00     0.223 C 
HETATM    4  O4  UNL     1      16.019  31.736  16.258  1.00  0.00    -0.273 OA
ENDROOT
BRANCH   3   5
HETATM    5  C17 UNL     1      16.337  34.066  16.140  1.00  0.00     0.098 C 
HETATM    6  C18 UNL     1      14.890  33.921  16.677  1.00  0.00     0.093 C 
HETATM    7  C19 UNL     1      14.732  35.228  17.352  1.00  0.00     0.128 C 
HETATM    8  O5  UNL     1      13.770  35.964  17.358  1.00  0.00    -0.298 OA
HETATM    9  C20 UNL     1      16.004  35.479  18.042  1.00  0.00     0.093 C 
HETATM   10  C21 UNL     1      17.014  34.550  17.397  1.00  0.00     0.098 C 
BRANCH  10  11
HETATM   11  C22 UNL     1      18.334  35.182  17.174  1.00  0.00     0.223 C 
HETATM   12  O6  UNL     1      19.265  34.474  16.726  1.00  0.00    -0.273 OA
HETATM   13  N3  UNL     1      18.566  36.540  17.451  1.00  0.00    -0.349 N 
ATOM     14  H3  UNL     1      17.780  37.081  17.810  1.00  0.00     0.163 HD
BRANCH  13  15
HETATM   15  C23 UNL     1      19.835  37.251  17.270  1.00  0.00     0.155 C 
BRANCH  15  16
HETATM   16  C24 UNL     1      19.480  38.714  17.367  1.00  0.00     0.037 C 
BRANCH  16  17
HETATM   17  C25 UNL     1      19.693  39.438  16.033  1.00  0.00    -0.020 C 
HETATM   18  C26 UNL     1      21.116  39.395  15.569  1.00  0.00     0.009 C 
HETATM   19  C27 UNL     1      19.215  40.870  16.201  1.00  0.00     0.009 C 
ENDBRANCH  16  17
ENDBRANCH  15  16
BRANCH  15  20
HETATM   20  C28 UNL     1      20.816  36.794  18.279  1.00  0.00     0.157 C 
HETATM   21  O7  UNL     1      20.479  36.807  19.453  1.00  0.00    -0.295 OA
BRANCH  20  22
HETATM   22  C29 UNL     1      22.172  36.324  17.973  1.00  0.00     0.012 C 
HETATM   23  C30 UNL     1      23.176  37.503  18.023  1.00  0.00     0.022 C 
HETATM   24  C31 UNL     1      22.695  35.314  18.971  1.00  0.00     0.022 C 
HETATM   25  C32 UNL     1      22.320  35.812  16.532  1.00  0.00     0.022 C 
ENDBRANCH  20  22
ENDBRANCH  15  20
ENDBRANCH  13  15
ENDBRANCH  10  11
ENDBRANCH   3   5
BRANCH   1  26
HETATM   26  C11 UNL     1      18.261  30.969  14.729  1.00  0.00     0.177 C 
BRANCH  26  27
HETATM   27  C10 UNL     1      19.710  30.944  14.795  1.00  0.00     0.240 C 
HETATM   28  N1  UNL     1      20.607  31.353  13.767  1.00  0.00    -0.353 N 
ATOM     29  H1  UNL     1      20.228  31.702  12.886  1.00  0.00     0.163 HD
HETATM   30  O3  UNL     1      20.258  30.510  15.877  1.00  0.00    -0.271 OA
BRANCH  28  31
HETATM   31  C8  UNL     1      22.041  31.286  13.939  1.00  0.00     0.109 C 
HETATM   32  C9  UNL     1      22.688  32.640  13.843  1.00  0.00     0.035 C 
BRANCH  31  33
HETATM   33  C6  UNL     1      22.642  30.429  12.819  1.00  0.00     0.150 C 
HETATM   34  C7  UNL     1      21.516  30.072  11.885  1.00  0.00     0.042 C 
BRANCH  33  35
HETATM   35  O2  UNL     1      23.089  29.186  13.374  1.00  0.00    -0.314 OA
BRANCH  35  36
HETATM   36  C5  UNL     1      24.136  28.455  12.854  1.00  0.00     0.259 C 
HETATM   37  O1  UNL     1      25.305  28.795  13.089  1.00  0.00    -0.265 OA
BRANCH  36  38
HETATM   38  C4  UNL     1      23.858  27.270  12.020  1.00  0.00     0.115 C 
BRANCH  38  39
HETATM   39  C2  UNL     1      24.671  27.227  10.768  1.00  0.00    -0.013 C 
HETATM   40  C1  UNL     1      24.785  25.819  10.233  1.00  0.00     0.010 C 
HETATM   41  C3  UNL     1      24.061  28.158   9.746  1.00  0.00     0.010 C 
ENDBRANCH  38  39
ENDBRANCH  36  38
ENDBRANCH  35  36
ENDBRANCH  33  35
ENDBRANCH  31  33
ENDBRANCH  28  31
ENDBRANCH  26  27
BRANCH  26  42
HETATM   42  C12 UNL     1      17.708  30.698  13.371  1.00  0.00     0.038 C 
BRANCH  42  43
HETATM   43  C13 UNL     1      17.840  29.372  12.757  1.00  0.00    -0.020 C 
HETATM   44  C14 UNL     1      17.022  29.151  11.496  1.00  0.00     0.009 C 
HETATM   45  C15 UNL     1      17.775  28.165  13.622  1.00  0.00     0.009 C 
ENDBRANCH  42  43
ENDBRANCH  26  42
ENDBRANCH   1  26
TORSDOF 17
ENDMDL
MODEL 5
REMARK VINA RESULT: -8.127922760      0.773      1.285
REMARK  17 active torsions:
REMARK  status: ('A' for Active; 'I' for Inactive)
REMARK    1  A    between atoms: C2_2  and  C4_4 
REMARK    2  A    between atoms: C4_4  and  C5_5 
REMARK    3  A    between atoms: C5_5  and  O2_7 
REMARK    4  A    between atoms: O2_7  and  C6_8 
REMARK    5  A    between atoms: C6_8  and  C8_10 
REMARK    6  A    between atoms: C8_10  and  N1_12 
REMARK       I    between atoms: N1_12  and  C10_14 
REMARK    7  A    between atoms: C10_14  and  C11_16 
REMARK    8  A    between atoms: C11_16  and  C12_17 
REMARK    9  A    between atoms: C11_16  and  N2_21 
REMARK   10  A    between atoms: C12_17  and  C13_18 
REMARK       I    between atoms: N2_21  and  C16_23 
REMARK   11  A    between atoms: C16_23  and  C17_25 
REMARK   12  A    between atoms: C21_30  and  C22_31 
REMARK       I    between atoms: C22_31  and  N3_33 
REMARK   13  A    between atoms: N3_33  and  C23_35 
REMARK   14  A    between atoms: C23_35  and  C24_36 
REMARK   15  A    between atoms: C23_35  and  C28_40 
REMARK   16  A    between atoms: C24_36  and  C25_37 
REMARK   17  A    between atoms: C28_40  and  C29_42 
ROOT
HETATM    1  N2  UNL     1      19.624  31.714  14.362  1.00  0.00    -0.347 N 
ATOM      2  H2  UNL     1      19.723  32.391  13.607  1.00  0.00     0.163 HD
HETATM    3  C16 UNL     1      20.499  31.777  15.461  1.00  0.00     0.223 C 
HETATM    4  O4  UNL     1      20.393  30.965  16.401  1.00  0.00    -0.273 OA
ENDROOT
BRANCH   3   5
HETATM    5  C17 UNL     1      21.583  32.808  15.545  1.00  0.00     0.098 C 
HETATM    6  C18 UNL     1      22.363  32.621  14.218  1.00  0.00     0.093 C 
HETATM    7  C19 UNL     1      23.111  33.897  14.176  1.00  0.00     0.128 C 
HETATM    8  O5  UNL     1      24.264  34.087  13.855  1.00  0.00    -0.298 OA
HETATM    9  C20 UNL     1      22.163  34.932  14.609  1.00  0.00     0.093 C 
HETATM   10  C21 UNL     1      21.042  34.196  15.314  1.00  0.00     0.098 C 
BRANCH  10  11
HETATM   11  C22 UNL     1      20.571  34.878  16.540  1.00  0.00     0.223 C 
HETATM   12  O6  UNL     1      20.385  34.191  17.570  1.00  0.00    -0.273 OA
HETATM   13  N3  UNL     1      20.328  36.262  16.577  1.00  0.00    -0.349 N 
ATOM     14  H3  UNL     1      20.497  36.785  15.717  1.00  0.00     0.163 HD
BRANCH  13  15
HETATM   15  C23 UNL     1      19.856  37.023  17.736  1.00  0.00     0.155 C 
BRANCH  15  16
HETATM   16  C24 UNL     1      20.959  38.009  18.031  1.00  0.00     0.037 C 
BRANCH  16  17
HETATM   17  C25 UNL     1      22.019  38.022  16.924  1.00  0.00    -0.020 C 
HETATM   18  C26 UNL     1      23.394  37.713  17.431  1.00  0.00     0.009 C 
HETATM   19  C27 UNL     1      21.976  39.384  16.255  1.00  0.00     0.009 C 
ENDBRANCH  16  17
ENDBRANCH  15  16
BRANCH  15  20
HETATM   20  C28 UNL     1      18.548  37.645  17.432  1.00  0.00     0.157 C 
HETATM   21  O7  UNL     1      18.547  38.739  16.889  1.00  0.00    -0.295 OA
BRANCH  20  22
HETATM   22  C29 UNL     1      17.245  37.043  17.737  1.00  0.00     0.012 C 
HETATM   23  C30 UNL     1      16.440  36.812  16.434  1.00  0.00     0.022 C 
HETATM   24  C31 UNL     1      17.352  35.679  18.385  1.00  0.00     0.022 C 
HETATM   25  C32 UNL     1      16.327  37.974  18.544  1.00  0.00     0.022 C 
ENDBRANCH  20  22
ENDBRANCH  15  20
ENDBRANCH  13  15
ENDBRANCH  10  11
ENDBRANCH   3   5
BRANCH   1  26
HETATM   26  C11 UNL     1      18.558  30.681  14.278  1.00  0.00     0.177 C 
BRANCH  26  27
HETATM   27  C10 UNL     1      18.663  30.114  12.947  1.00  0.00     0.240 C 
HETATM   28  N1  UNL     1      18.475  28.747  12.597  1.00  0.00    -0.353 N 
ATOM     29  H1  UNL     1      18.242  28.074  13.328  1.00  0.00     0.163 HD
HETATM   30  O3  UNL     1      18.960  30.906  11.976  1.00  0.00    -0.271 OA
BRANCH  28  31
HETATM   31  C8  UNL     1      18.604  28.288  11.233  1.00  0.00     0.109 C 
HETATM   32  C9  UNL     1      17.269  28.116  10.562  1.00  0.00     0.035 C 
BRANCH  31  33
HETATM   33  C6  UNL     1      19.281  26.912  11.227  1.00  0.00     0.150 C 
HETATM   34  C7  UNL     1      18.313  25.943  11.853  1.00  0.00     0.042 C 
BRANCH  33  35
HETATM   35  O2  UNL     1      20.412  26.946  12.106  1.00  0.00    -0.314 OA
BRANCH  35  36
HETATM   36  C5  UNL     1      21.654  26.454  11.765  1.00  0.00     0.259 C 
HETATM   37  O1  UNL     1      21.851  25.230  11.746  1.00  0.00    -0.265 OA
BRANCH  36  38
HETATM   38  C4  UNL     1      22.742  27.389  11.421  1.00  0.00     0.115 C 
BRANCH  38  39
HETATM   39  C2  UNL     1      22.909  28.490  12.417  1.00  0.00    -0.013 C 
HETATM   40  C1  UNL     1      24.362  28.686  12.782  1.00  0.00     0.010 C 
HETATM   41  C3  UNL     1      22.301  29.758  11.865  1.00  0.00     0.010 C 
ENDBRANCH  38  39
ENDBRANCH  36  38
ENDBRANCH  35  36
ENDBRANCH  33  35
ENDBRANCH  31  33
ENDBRANCH  28  31
ENDBRANCH  26  27
BRANCH  26  42
HETATM   42  C12 UNL     1      17.282  31.414  14.528  1.00  0.00     0.038 C 
BRANCH  42  43
HETATM   43  C13 UNL     1      17.290  32.746  15.141  1.00  0.00    -0.020 C 
HETATM   44  C14 UNL     1      16.302  32.948  16.278  1.00  0.00     0.009 C 
HETATM   45  C15 UNL     1      17.305  33.946  14.264  1.00  0.00     0.009 C 
ENDBRANCH  42  43
ENDBRANCH  26  42
ENDBRANCH   1  26
TORSDOF 17
ENDMDL
