MODEL 1
REMARK VINA RESULT: -9.059257259      0.000      0.000
REMARK  16 active torsions:
REMARK  status: ('A' for Active; 'I' for Inactive)
REMARK    1  A    between atoms: C2_2  and  C3_3 
REMARK    2  A    between atoms: C3_3  and  C4_4 
REMARK    3  A    between atoms: C4_4  and  N1_5 
REMARK    4  A    between atoms: N1_5  and  C5_6 
REMARK    5  A    between atoms: N1_5  and  C8_9 
REMARK    6  A    between atoms: C5_6  and  C6_7 
REMARK    7  A    between atoms: C8_9  and  C9_10 
REMARK    8  A    between atoms: C8_9  and  C10_12 
REMARK    9  A    between atoms: C10_12  and  C11_13 
REMARK   10  A    between atoms: C10_12  and  N2_20 
REMARK   11  A    between atoms: C11_13  and  C12_14 
REMARK       I    between atoms: N2_20  and  C18_22 
REMARK   12  A    between atoms: C18_22  and  C19_24 
REMARK   13  A    between atoms: C19_24  and  N3_25 
REMARK       I    between atoms: N3_25  and  C20_27 
REMARK   14  A    between atoms: C20_27  and  O4_29 
REMARK   15  A    between atoms: O4_29  and  C21_30 
REMARK   16  A    between atoms: C21_30  and  C22_31 
ROOT
HETATM    1  C22 UNL     1      18.881  35.025  17.996  1.00  0.00     0.022 C 
HETATM    2  C23 UNL     1      18.086  36.033  18.210  1.00  0.00     0.092 C 
HETATM    3  C24 UNL     1      16.671  35.845  18.379  1.00  0.00     0.087 C 
HETATM    4  N4  UNL     1      15.519  35.699  18.531  1.00  0.00    -0.192 NA
ENDROOT
BRANCH   1   5
HETATM    5  C21 UNL     1      20.326  35.236  17.825  1.00  0.00     0.094 C 
HETATM    6  C25 UNL     1      20.969  35.402  19.210  1.00  0.00     0.070 C 
HETATM    7  C26 UNL     1      22.460  35.596  18.932  1.00  0.00     0.235 C 
HETATM    8  N5  UNL     1      22.582  36.903  18.306  1.00  0.00    -0.075 N 
HETATM    9  C27 UNL     1      21.998  36.836  16.980  1.00  0.00     0.235 C 
ATOM     10  H52 UNL     1      22.179  37.648  18.874  1.00  0.00     0.277 HD
ATOM     11  H51 UNL     1      23.544  37.242  18.293  1.00  0.00     0.277 HD
HETATM   12  C28 UNL     1      20.534  36.560  17.126  1.00  0.00     0.070 C 
BRANCH   5  13
HETATM   13  O4  UNL     1      20.994  34.163  17.209  1.00  0.00    -0.288 OA
BRANCH  13  14
HETATM   14  C20 UNL     1      20.474  33.526  16.073  1.00  0.00     0.362 C 
HETATM   15  N3  UNL     1      19.624  32.420  16.239  1.00  0.00    -0.319 N 
ATOM     16  H3  UNL     1      19.423  32.135  17.197  1.00  0.00     0.166 HD
HETATM   17  O3  UNL     1      20.840  34.035  14.985  1.00  0.00    -0.238 OA
BRANCH  15  18
HETATM   18  C19 UNL     1      19.005  31.647  15.188  1.00  0.00     0.116 C 
HETATM   19  C29 UNL     1      18.657  32.479  13.974  1.00  0.00     0.041 C 
HETATM   20  C30 UNL     1      17.513  33.415  14.238  1.00  0.00     0.008 C 
HETATM   21  C31 UNL     1      16.323  32.765  14.843  1.00  0.00    -0.010 A 
HETATM   22  C32 UNL     1      16.241  32.909  16.365  1.00  0.00     0.010 A 
HETATM   23  C33 UNL     1      16.516  31.608  15.687  1.00  0.00    -0.007 A 
HETATM   24  C34 UNL     1      17.813  30.924  15.736  1.00  0.00     0.046 C 
BRANCH  18  25
HETATM   25  C18 UNL     1      19.977  30.590  14.711  1.00  0.00     0.246 C 
HETATM   26  N2  UNL     1      19.642  29.677  13.707  1.00  0.00    -0.352 N 
ATOM     27  H2  UNL     1      18.695  29.790  13.345  1.00  0.00     0.163 HD
HETATM   28  O2  UNL     1      21.080  30.606  15.278  1.00  0.00    -0.271 OA
BRANCH  26  29
HETATM   29  C10 UNL     1      20.376  28.614  13.090  1.00  0.00     0.125 C 
BRANCH  29  30
HETATM   30  C8  UNL     1      19.418  27.467  12.739  1.00  0.00     0.306 C 
BRANCH  30  31
HETATM   31  N1  UNL     1      19.671  27.000  11.370  1.00  0.00     0.101 N 
BRANCH  31  32
HETATM   32  C4  UNL     1      18.528  27.348  10.575  1.00  0.00     0.273 C 
BRANCH  32  33
HETATM   33  C3  UNL     1      18.415  26.753   9.217  1.00  0.00     0.030 C 
BRANCH  33  34
HETATM   34  C2  UNL     1      17.175  25.832   9.245  1.00  0.00    -0.003 C 
HETATM   35  C1  UNL     1      17.044  25.029   7.994  1.00  0.00     0.005 C 
ENDBRANCH  33  34
ENDBRANCH  32  33
ENDBRANCH  31  32
BRANCH  31  36
HETATM   36  C5  UNL     1      20.121  25.682  11.290  1.00  0.00     0.273 C 
BRANCH  36  37
HETATM   37  C6  UNL     1      21.516  25.272  11.324  1.00  0.00     0.026 C 
HETATM   38  C7  UNL     1      21.931  25.066   9.829  1.00  0.00     0.007 C 
ENDBRANCH  36  37
ENDBRANCH  31  36
ENDBRANCH  30  31
BRANCH  30  39
HETATM   39  C9  UNL     1      18.026  27.908  12.905  1.00  0.00     0.269 C 
HETATM   40  O1  UNL     1      17.303  27.779  13.852  1.00  0.00    -0.304 OA
ENDBRANCH  30  39
ENDBRANCH  29  30
BRANCH  29  41
HETATM   41  C11 UNL     1      21.205  29.057  11.941  1.00  0.00     0.032 C 
BRANCH  41  42
HETATM   42  C12 UNL     1      22.586  28.592  11.795  1.00  0.00    -0.013 C 
HETATM   43  C13 UNL     1      23.448  28.900  13.027  1.00  0.00     0.005 C 
HETATM   44  C14 UNL     1      24.896  28.580  12.818  1.00  0.00     0.000 C 
HETATM   45  C15 UNL     1      25.012  27.370  11.925  1.00  0.00     0.000 C 
HETATM   46  C16 UNL     1      24.483  27.687  10.565  1.00  0.00     0.000 C 
HETATM   47  C17 UNL     1      23.398  28.788  10.598  1.00  0.00     0.005 C 
ENDBRANCH  41  42
ENDBRANCH  29  41
ENDBRANCH  26  29
ENDBRANCH  18  25
ENDBRANCH  15  18
ENDBRANCH  13  14
ENDBRANCH   5  13
ENDBRANCH   1   5
TORSDOF 16
ENDMDL
MODEL 2
REMARK VINA RESULT: -8.807717832      2.489      4.974
REMARK  16 active torsions:
REMARK  status: ('A' for Active; 'I' for Inactive)
REMARK    1  A    between atoms: C2_2  and  C3_3 
REMARK    2  A    between atoms: C3_3  and  C4_4 
REMARK    3  A    between atoms: C4_4  and  N1_5 
REMARK    4  A    between atoms: N1_5  and  C5_6 
REMARK    5  A    between atoms: N1_5  and  C8_9 
REMARK    6  A    between atoms: C5_6  and  C6_7 
REMARK    7  A    between atoms: C8_9  and  C9_10 
REMARK    8  A    between atoms: C8_9  and  C10_12 
REMARK    9  A    between atoms: C10_12  and  C11_13 
REMARK   10  A    between atoms: C10_12  and  N2_20 
REMARK   11  A    between atoms: C11_13  and  C12_14 
REMARK       I    between atoms: N2_20  and  C18_22 
REMARK   12  A    between atoms: C18_22  and  C19_24 
REMARK   13  A    between atoms: C19_24  and  N3_25 
REMARK       I    between atoms: N3_25  and  C20_27 
REMARK   14  A    between atoms: C20_27  and  O4_29 
REMARK   15  A    between atoms: O4_29  and  C21_30 
REMARK   16  A    between atoms: C21_30  and  C22_31 
ROOT
HETATM    1  C22 UNL     1      18.823  36.556  18.299  1.00  0.00     0.022 C 
HETATM    2  C23 UNL     1      18.591  37.757  17.853  1.00  0.00     0.092 C 
HETATM    3  C24 UNL     1      17.293  38.361  17.978  1.00  0.00     0.087 C 
HETATM    4  N4  UNL     1      16.242  38.866  18.087  1.00  0.00    -0.192 NA
ENDROOT
BRANCH   1   5
HETATM    5  C21 UNL     1      20.158  35.953  18.163  1.00  0.00     0.094 C 
HETATM    6  C25 UNL     1      20.706  35.646  19.564  1.00  0.00     0.070 C 
HETATM    7  C26 UNL     1      22.076  35.012  19.321  1.00  0.00     0.235 C 
HETATM    8  N5  UNL     1      22.925  36.078  18.813  1.00  0.00    -0.075 N 
HETATM    9  C27 UNL     1      22.476  36.432  17.480  1.00  0.00     0.235 C 
ATOM     10  H52 UNL     1      22.961  36.882  19.440  1.00  0.00     0.277 HD
ATOM     11  H51 UNL     1      23.916  35.836  18.840  1.00  0.00     0.277 HD
HETATM   12  C28 UNL     1      21.092  36.992  17.586  1.00  0.00     0.070 C 
BRANCH   5  13
HETATM   13  O4  UNL     1      20.168  34.735  17.462  1.00  0.00    -0.288 OA
BRANCH  13  14
HETATM   14  C20 UNL     1      19.168  34.408  16.535  1.00  0.00     0.362 C 
HETATM   15  N3  UNL     1      17.981  33.813  16.992  1.00  0.00    -0.319 N 
ATOM     16  H3  UNL     1      17.907  33.647  17.996  1.00  0.00     0.166 HD
HETATM   17  O3  UNL     1      19.453  34.698  15.346  1.00  0.00    -0.238 OA
BRANCH  15  18
HETATM   18  C19 UNL     1      16.854  33.410  16.183  1.00  0.00     0.116 C 
HETATM   19  C29 UNL     1      16.502  34.427  15.121  1.00  0.00     0.041 C 
HETATM   20  C30 UNL     1      15.897  35.671  15.707  1.00  0.00     0.008 C 
HETATM   21  C31 UNL     1      14.777  35.417  16.648  1.00  0.00    -0.010 A 
HETATM   22  C32 UNL     1      15.187  35.429  18.123  1.00  0.00     0.010 A 
HETATM   23  C33 UNL     1      14.770  34.188  17.406  1.00  0.00    -0.007 A 
HETATM   24  C34 UNL     1      15.690  33.095  17.071  1.00  0.00     0.046 C 
BRANCH  18  25
HETATM   25  C18 UNL     1      17.202  32.135  15.448  1.00  0.00     0.246 C 
HETATM   26  N2  UNL     1      17.771  32.150  14.171  1.00  0.00    -0.352 N 
ATOM     27  H2  UNL     1      17.914  33.086  13.793  1.00  0.00     0.163 HD
HETATM   28  O2  UNL     1      16.944  31.092  16.067  1.00  0.00    -0.271 OA
BRANCH  26  29
HETATM   29  C10 UNL     1      18.189  31.100  13.292  1.00  0.00     0.125 C 
BRANCH  29  30
HETATM   30  C8  UNL     1      19.699  30.869  13.453  1.00  0.00     0.306 C 
BRANCH  30  31
HETATM   31  N1  UNL     1      20.118  31.208  14.818  1.00  0.00     0.101 N 
BRANCH  31  32
HETATM   32  C4  UNL     1      21.232  32.107  14.719  1.00  0.00     0.273 C 
BRANCH  32  33
HETATM   33  C3  UNL     1      22.110  32.265  15.909  1.00  0.00     0.030 C 
BRANCH  33  34
HETATM   34  C2  UNL     1      22.906  33.572  15.694  1.00  0.00    -0.003 C 
HETATM   35  C1  UNL     1      22.837  34.045  14.280  1.00  0.00     0.005 C 
ENDBRANCH  33  34
ENDBRANCH  32  33
ENDBRANCH  31  32
BRANCH  31  36
HETATM   36  C5  UNL     1      20.267  30.106  15.660  1.00  0.00     0.273 C 
BRANCH  36  37
HETATM   37  C6  UNL     1      20.275  28.718  15.226  1.00  0.00     0.026 C 
HETATM   38  C7  UNL     1      21.616  28.529  14.441  1.00  0.00     0.007 C 
ENDBRANCH  36  37
ENDBRANCH  31  36
ENDBRANCH  30  31
BRANCH  30  39
HETATM   39  C9  UNL     1      20.434  31.659  12.456  1.00  0.00     0.269 C 
HETATM   40  O1  UNL     1      20.051  32.091  11.406  1.00  0.00    -0.304 OA
ENDBRANCH  30  39
ENDBRANCH  29  30
BRANCH  29  41
HETATM   41  C11 UNL     1      17.390  29.857  13.432  1.00  0.00     0.032 C 
BRANCH  41  42
HETATM   42  C12 UNL     1      17.651  28.701  12.572  1.00  0.00    -0.013 C 
HETATM   43  C13 UNL     1      17.144  28.902  11.138  1.00  0.00     0.005 C 
HETATM   44  C14 UNL     1      17.256  27.666  10.302  1.00  0.00     0.000 C 
HETATM   45  C15 UNL     1      18.488  26.899  10.716  1.00  0.00     0.000 C 
HETATM   46  C16 UNL     1      18.338  26.409  12.119  1.00  0.00     0.000 C 
HETATM   47  C17 UNL     1      17.410  27.315  12.962  1.00  0.00     0.005 C 
ENDBRANCH  41  42
ENDBRANCH  29  41
ENDBRANCH  26  29
ENDBRANCH  18  25
ENDBRANCH  15  18
ENDBRANCH  13  14
ENDBRANCH   5  13
ENDBRANCH   1   5
TORSDOF 16
ENDMDL
MODEL 3
REMARK VINA RESULT: -8.709896866      1.845      4.459
REMARK  16 active torsions:
REMARK  status: ('A' for Active; 'I' for Inactive)
REMARK    1  A    between atoms: C2_2  and  C3_3 
REMARK    2  A    between atoms: C3_3  and  C4_4 
REMARK    3  A    between atoms: C4_4  and  N1_5 
REMARK    4  A    between atoms: N1_5  and  C5_6 
REMARK    5  A    between atoms: N1_5  and  C8_9 
REMARK    6  A    between atoms: C5_6  and  C6_7 
REMARK    7  A    between atoms: C8_9  and  C9_10 
REMARK    8  A    between atoms: C8_9  and  C10_12 
REMARK    9  A    between atoms: C10_12  and  C11_13 
REMARK   10  A    between atoms: C10_12  and  N2_20 
REMARK   11  A    between atoms: C11_13  and  C12_14 
REMARK       I    between atoms: N2_20  and  C18_22 
REMARK   12  A    between atoms: C18_22  and  C19_24 
REMARK   13  A    between atoms: C19_24  and  N3_25 
REMARK       I    between atoms: N3_25  and  C20_27 
REMARK   14  A    between atoms: C20_27  and  O4_29 
REMARK   15  A    between atoms: O4_29  and  C21_30 
REMARK   16  A    between atoms: C21_30  and  C22_31 
ROOT
HETATM    1  C22 UNL     1      18.874  36.583  18.036  1.00  0.00     0.022 C 
HETATM    2  C23 UNL     1      18.670  37.772  17.547  1.00  0.00     0.092 C 
HETATM    3  C24 UNL     1      17.361  38.366  17.550  1.00  0.00     0.087 C 
HETATM    4  N4  UNL     1      16.300  38.862  17.559  1.00  0.00    -0.192 NA
ENDROOT
BRANCH   1   5
HETATM    5  C21 UNL     1      20.220  35.991  18.026  1.00  0.00     0.094 C 
HETATM    6  C25 UNL     1      20.716  35.866  19.473  1.00  0.00     0.070 C 
HETATM    7  C26 UNL     1      22.102  35.230  19.362  1.00  0.00     0.235 C 
HETATM    8  N5  UNL     1      22.957  36.241  18.762  1.00  0.00    -0.075 N 
HETATM    9  C27 UNL     1      22.558  36.423  17.380  1.00  0.00     0.235 C 
ATOM     10  H52 UNL     1      22.958  37.115  19.287  1.00  0.00     0.277 HD
ATOM     11  H51 UNL     1      23.949  36.021  18.856  1.00  0.00     0.277 HD
HETATM   12  C28 UNL     1      21.163  36.968  17.363  1.00  0.00     0.070 C 
BRANCH   5  13
HETATM   13  O4  UNL     1      20.274  34.697  17.479  1.00  0.00    -0.288 OA
BRANCH  13  14
HETATM   14  C20 UNL     1      19.334  34.255  16.536  1.00  0.00     0.362 C 
HETATM   15  N3  UNL     1      18.078  33.810  16.980  1.00  0.00    -0.319 N 
ATOM     16  H3  UNL     1      17.912  33.834  17.986  1.00  0.00     0.166 HD
HETATM   17  O3  UNL     1      19.734  34.309  15.346  1.00  0.00    -0.238 OA
BRANCH  15  18
HETATM   18  C19 UNL     1      16.999  33.321  16.155  1.00  0.00     0.116 C 
HETATM   19  C29 UNL     1      16.668  34.252  15.010  1.00  0.00     0.041 C 
HETATM   20  C30 UNL     1      16.007  35.515  15.481  1.00  0.00     0.008 C 
HETATM   21  C31 UNL     1      14.853  35.296  16.388  1.00  0.00    -0.010 A 
HETATM   22  C32 UNL     1      15.198  35.421  17.875  1.00  0.00     0.010 A 
HETATM   23  C33 UNL     1      14.844  34.122  17.231  1.00  0.00    -0.007 A 
HETATM   24  C34 UNL     1      15.805  33.035  17.012  1.00  0.00     0.046 C 
BRANCH  18  25
HETATM   25  C18 UNL     1      17.411  32.008  15.526  1.00  0.00     0.246 C 
HETATM   26  N2  UNL     1      18.145  31.956  14.337  1.00  0.00    -0.352 N 
ATOM     27  H2  UNL     1      18.361  32.872  13.945  1.00  0.00     0.163 HD
HETATM   28  O2  UNL     1      17.047  30.998  16.147  1.00  0.00    -0.271 OA
BRANCH  26  29
HETATM   29  C10 UNL     1      18.652  30.861  13.568  1.00  0.00     0.125 C 
BRANCH  29  30
HETATM   30  C8  UNL     1      20.074  30.520  14.036  1.00  0.00     0.306 C 
BRANCH  30  31
HETATM   31  N1  UNL     1      21.024  30.695  12.930  1.00  0.00     0.101 N 
BRANCH  31  32
HETATM   32  C4  UNL     1      21.383  29.389  12.457  1.00  0.00     0.273 C 
BRANCH  32  33
HETATM   33  C3  UNL     1      22.440  29.289  11.415  1.00  0.00     0.030 C 
BRANCH  33  34
HETATM   34  C2  UNL     1      23.429  28.205  11.898  1.00  0.00    -0.003 C 
HETATM   35  C1  UNL     1      24.482  28.765  12.795  1.00  0.00     0.005 C 
ENDBRANCH  33  34
ENDBRANCH  32  33
ENDBRANCH  31  32
BRANCH  31  36
HETATM   36  C5  UNL     1      22.068  31.577  13.208  1.00  0.00     0.273 C 
BRANCH  36  37
HETATM   37  C6  UNL     1      22.242  32.299  14.459  1.00  0.00     0.026 C 
HETATM   38  C7  UNL     1      22.970  33.632  14.079  1.00  0.00     0.007 C 
ENDBRANCH  36  37
ENDBRANCH  31  36
ENDBRANCH  30  31
BRANCH  30  39
HETATM   39  C9  UNL     1      20.113  29.149  14.563  1.00  0.00     0.269 C 
HETATM   40  O1  UNL     1      20.338  28.778  15.680  1.00  0.00    -0.304 OA
ENDBRANCH  30  39
ENDBRANCH  29  30
BRANCH  29  41
HETATM   41  C11 UNL     1      17.747  29.685  13.545  1.00  0.00     0.032 C 
BRANCH  41  42
HETATM   42  C12 UNL     1      17.861  28.676  12.489  1.00  0.00    -0.013 C 
HETATM   43  C13 UNL     1      17.082  29.053  11.222  1.00  0.00     0.005 C 
HETATM   44  C14 UNL     1      17.056  27.955  10.206  1.00  0.00     0.000 C 
HETATM   45  C15 UNL     1      18.360  27.198  10.263  1.00  0.00     0.000 C 
HETATM   46  C16 UNL     1      18.493  26.507  11.580  1.00  0.00     0.000 C 
HETATM   47  C17 UNL     1      17.727  27.239  12.707  1.00  0.00     0.005 C 
ENDBRANCH  41  42
ENDBRANCH  29  41
ENDBRANCH  26  29
ENDBRANCH  18  25
ENDBRANCH  15  18
ENDBRANCH  13  14
ENDBRANCH   5  13
ENDBRANCH   1   5
TORSDOF 16
ENDMDL
MODEL 4
REMARK VINA RESULT: -8.660002463      2.217      5.073
REMARK  16 active torsions:
REMARK  status: ('A' for Active; 'I' for Inactive)
REMARK    1  A    between atoms: C2_2  and  C3_3 
REMARK    2  A    between atoms: C3_3  and  C4_4 
REMARK    3  A    between atoms: C4_4  and  N1_5 
REMARK    4  A    between atoms: N1_5  and  C5_6 
REMARK    5  A    between atoms: N1_5  and  C8_9 
REMARK    6  A    between atoms: C5_6  and  C6_7 
REMARK    7  A    between atoms: C8_9  and  C9_10 
REMARK    8  A    between atoms: C8_9  and  C10_12 
REMARK    9  A    between atoms: C10_12  and  C11_13 
REMARK   10  A    between atoms: C10_12  and  N2_20 
REMARK   11  A    between atoms: C11_13  and  C12_14 
REMARK       I    between atoms: N2_20  and  C18_22 
REMARK   12  A    between atoms: C18_22  and  C19_24 
REMARK   13  A    between atoms: C19_24  and  N3_25 
REMARK       I    between atoms: N3_25  and  C20_27 
REMARK   14  A    between atoms: C20_27  and  O4_29 
REMARK   15  A    between atoms: O4_29  and  C21_30 
REMARK   16  A    between atoms: C21_30  and  C22_31 
ROOT
HETATM    1  C22 UNL     1      18.313  36.788  17.732  1.00  0.00     0.022 C 
HETATM    2  C23 UNL     1      17.962  38.017  17.979  1.00  0.00     0.092 C 
HETATM    3  C24 UNL     1      18.905  38.974  18.487  1.00  0.00     0.087 C 
HETATM    4  N4  UNL     1      19.671  39.764  18.890  1.00  0.00    -0.192 NA
ENDROOT
BRANCH   1   5
HETATM    5  C21 UNL     1      17.334  35.821  17.211  1.00  0.00     0.094 C 
HETATM    6  C25 UNL     1      16.231  36.587  16.468  1.00  0.00     0.070 C 
HETATM    7  C26 UNL     1      15.279  35.507  15.952  1.00  0.00     0.235 C 
HETATM    8  N5  UNL     1      14.624  34.957  17.128  1.00  0.00    -0.075 N 
HETATM    9  C27 UNL     1      15.602  34.209  17.894  1.00  0.00     0.235 C 
ATOM     10  H52 UNL     1      14.155  35.672  17.685  1.00  0.00     0.277 HD
ATOM     11  H51 UNL     1      13.802  34.401  16.894  1.00  0.00     0.277 HD
HETATM   12  C28 UNL     1      16.645  35.164  18.385  1.00  0.00     0.070 C 
BRANCH   5  13
HETATM   13  O4  UNL     1      17.868  34.906  16.287  1.00  0.00    -0.288 OA
BRANCH  13  14
HETATM   14  C20 UNL     1      19.147  34.355  16.449  1.00  0.00     0.362 C 
HETATM   15  N3  UNL     1      20.250  35.005  15.871  1.00  0.00    -0.319 N 
ATOM     16  H3  UNL     1      20.058  35.864  15.355  1.00  0.00     0.166 HD
HETATM   17  O3  UNL     1      19.169  33.295  17.122  1.00  0.00    -0.238 OA
BRANCH  15  18
HETATM   18  C19 UNL     1      21.628  34.580  15.935  1.00  0.00     0.116 C 
HETATM   19  C29 UNL     1      22.021  34.064  17.301  1.00  0.00     0.041 C 
HETATM   20  C30 UNL     1      22.101  35.164  18.320  1.00  0.00     0.008 C 
HETATM   21  C31 UNL     1      22.918  36.329  17.894  1.00  0.00    -0.010 A 
HETATM   22  C32 UNL     1      22.097  37.489  17.324  1.00  0.00     0.010 A 
HETATM   23  C33 UNL     1      22.999  36.644  16.487  1.00  0.00    -0.007 A 
HETATM   24  C34 UNL     1      22.516  35.695  15.477  1.00  0.00     0.046 C 
BRANCH  18  25
HETATM   25  C18 UNL     1      21.838  33.431  14.974  1.00  0.00     0.246 C 
HETATM   26  N2  UNL     1      21.717  32.098  15.378  1.00  0.00    -0.352 N 
ATOM     27  H2  UNL     1      21.488  31.985  16.365  1.00  0.00     0.163 HD
HETATM   28  O2  UNL     1      22.119  33.769  13.814  1.00  0.00    -0.271 OA
BRANCH  26  29
HETATM   29  C10 UNL     1      21.855  30.862  14.668  1.00  0.00     0.125 C 
BRANCH  29  30
HETATM   30  C8  UNL     1      20.497  30.146  14.620  1.00  0.00     0.306 C 
BRANCH  30  31
HETATM   31  N1  UNL     1      19.727  30.601  13.456  1.00  0.00     0.101 N 
BRANCH  31  32
HETATM   32  C4  UNL     1      18.829  31.626  13.904  1.00  0.00     0.273 C 
BRANCH  32  33
HETATM   33  C3  UNL     1      17.374  31.437  13.655  1.00  0.00     0.030 C 
BRANCH  33  34
HETATM   34  C2  UNL     1      16.637  32.187  14.787  1.00  0.00    -0.003 C 
HETATM   35  C1  UNL     1      16.469  31.341  16.004  1.00  0.00     0.005 C 
ENDBRANCH  33  34
ENDBRANCH  32  33
ENDBRANCH  31  32
BRANCH  31  36
HETATM   36  C5  UNL     1      19.183  29.570  12.692  1.00  0.00     0.273 C 
BRANCH  36  37
HETATM   37  C6  UNL     1      19.210  28.160  13.050  1.00  0.00     0.026 C 
HETATM   38  C7  UNL     1      17.748  27.643  12.837  1.00  0.00     0.007 C 
ENDBRANCH  36  37
ENDBRANCH  31  36
ENDBRANCH  30  31
BRANCH  30  39
HETATM   39  C9  UNL     1      19.763  30.380  15.871  1.00  0.00     0.269 C 
HETATM   40  O1  UNL     1      20.052  30.051  16.987  1.00  0.00    -0.304 OA
ENDBRANCH  30  39
ENDBRANCH  29  30
BRANCH  29  41
HETATM   41  C11 UNL     1      22.484  31.013  13.333  1.00  0.00     0.032 C 
BRANCH  41  42
HETATM   42  C12 UNL     1      23.213  29.900  12.722  1.00  0.00    -0.013 C 
HETATM   43  C13 UNL     1      22.496  29.324  11.494  1.00  0.00     0.005 C 
HETATM   44  C14 UNL     1      23.148  28.083  10.967  1.00  0.00     0.000 C 
HETATM   45  C15 UNL     1      24.640  28.187  11.166  1.00  0.00     0.000 C 
HETATM   46  C16 UNL     1      24.962  28.207  12.624  1.00  0.00     0.000 C 
HETATM   47  C17 UNL     1      23.811  28.798  13.471  1.00  0.00     0.005 C 
ENDBRANCH  41  42
ENDBRANCH  29  41
ENDBRANCH  26  29
ENDBRANCH  18  25
ENDBRANCH  15  18
ENDBRANCH  13  14
ENDBRANCH   5  13
ENDBRANCH   1   5
TORSDOF 16
ENDMDL
MODEL 5
REMARK VINA RESULT: -8.603937978      1.623      3.493
REMARK  16 active torsions:
REMARK  status: ('A' for Active; 'I' for Inactive)
REMARK    1  A    between atoms: C2_2  and  C3_3 
REMARK    2  A    between atoms: C3_3  and  C4_4 
REMARK    3  A    between atoms: C4_4  and  N1_5 
REMARK    4  A    between atoms: N1_5  and  C5_6 
REMARK    5  A    between atoms: N1_5  and  C8_9 
REMARK    6  A    between atoms: C5_6  and  C6_7 
REMARK    7  A    between atoms: C8_9  and  C9_10 
REMARK    8  A    between atoms: C8_9  and  C10_12 
REMARK    9  A    between atoms: C10_12  and  C11_13 
REMARK   10  A    between atoms: C10_12  and  N2_20 
REMARK   11  A    between atoms: C11_13  and  C12_14 
REMARK       I    between atoms: N2_20  and  C18_22 
REMARK   12  A    between atoms: C18_22  and  C19_24 
REMARK   13  A    between atoms: C19_24  and  N3_25 
REMARK       I    between atoms: N3_25  and  C20_27 
REMARK   14  A    between atoms: C20_27  and  O4_29 
REMARK   15  A    between atoms: O4_29  and  C21_30 
REMARK   16  A    between atoms: C21_30  and  C22_31 
ROOT
HETATM    1  C22 UNL     1      18.659  34.561  18.011  1.00  0.00     0.022 C 
HETATM    2  C23 UNL     1      19.161  35.708  18.366  1.00  0.00     0.092 C 
HETATM    3  C24 UNL     1      20.403  35.789  19.085  1.00  0.00     0.087 C 
HETATM    4  N4  UNL     1      21.421  35.864  19.661  1.00  0.00    -0.192 NA
ENDROOT
BRANCH   1   5
HETATM    5  C21 UNL     1      17.387  34.498  17.275  1.00  0.00     0.094 C 
HETATM    6  C25 UNL     1      17.216  35.796  16.473  1.00  0.00     0.070 C 
HETATM    7  C26 UNL     1      15.887  35.630  15.734  1.00  0.00     0.235 C 
HETATM    8  N5  UNL     1      14.853  35.683  16.755  1.00  0.00    -0.075 N 
HETATM    9  C27 UNL     1      14.941  34.483  17.565  1.00  0.00     0.235 C 
ATOM     10  H52 UNL     1      14.898  36.536  17.313  1.00  0.00     0.277 HD
ATOM     11  H51 UNL     1      13.922  35.822  16.363  1.00  0.00     0.277 HD
HETATM   12  C28 UNL     1      16.258  34.494  18.278  1.00  0.00     0.070 C 
BRANCH   5  13
HETATM   13  O4  UNL     1      17.316  33.448  16.342  1.00  0.00    -0.288 OA
BRANCH  13  14
HETATM   14  C20 UNL     1      18.426  33.065  15.575  1.00  0.00     0.362 C 
HETATM   15  N3  UNL     1      19.491  32.397  16.200  1.00  0.00    -0.319 N 
ATOM     16  H3  UNL     1      19.398  32.219  17.200  1.00  0.00     0.166 HD
HETATM   17  O3  UNL     1      18.343  33.375  14.360  1.00  0.00    -0.238 OA
BRANCH  15  18
HETATM   18  C19 UNL     1      20.706  31.936  15.569  1.00  0.00     0.116 C 
HETATM   19  C29 UNL     1      21.872  31.859  16.528  1.00  0.00     0.041 C 
HETATM   20  C30 UNL     1      22.360  33.219  16.938  1.00  0.00     0.008 C 
HETATM   21  C31 UNL     1      22.616  34.140  15.802  1.00  0.00    -0.010 A 
HETATM   22  C32 UNL     1      21.463  35.104  15.510  1.00  0.00     0.010 A 
HETATM   23  C33 UNL     1      21.839  33.987  14.594  1.00  0.00    -0.007 A 
HETATM   24  C34 UNL     1      21.009  32.796  14.382  1.00  0.00     0.046 C 
BRANCH  18  25
HETATM   25  C18 UNL     1      20.493  30.532  15.049  1.00  0.00     0.246 C 
HETATM   26  N2  UNL     1      20.637  30.214  13.696  1.00  0.00    -0.352 N 
ATOM     27  H2  UNL     1      20.886  31.011  13.109  1.00  0.00     0.163 HD
HETATM   28  O2  UNL     1      20.186  29.698  15.916  1.00  0.00    -0.271 OA
BRANCH  26  29
HETATM   29  C10 UNL     1      20.502  28.984  12.976  1.00  0.00     0.125 C 
BRANCH  29  30
HETATM   30  C8  UNL     1      19.012  28.670  12.774  1.00  0.00     0.306 C 
BRANCH  30  31
HETATM   31  N1  UNL     1      18.850  27.636  11.745  1.00  0.00     0.101 N 
BRANCH  31  32
HETATM   32  C4  UNL     1      17.955  28.151  10.749  1.00  0.00     0.273 C 
BRANCH  32  33
HETATM   33  C3  UNL     1      17.274  27.180   9.852  1.00  0.00     0.030 C 
BRANCH  33  34
HETATM   34  C2  UNL     1      18.185  27.017   8.614  1.00  0.00    -0.003 C 
HETATM   35  C1  UNL     1      18.148  25.629   8.068  1.00  0.00     0.005 C 
ENDBRANCH  33  34
ENDBRANCH  32  33
ENDBRANCH  31  32
BRANCH  31  36
HETATM   36  C5  UNL     1      18.572  26.366  12.251  1.00  0.00     0.273 C 
BRANCH  36  37
HETATM   37  C6  UNL     1      19.049  25.116  11.680  1.00  0.00     0.026 C 
HETATM   38  C7  UNL     1      20.497  25.413  11.166  1.00  0.00     0.007 C 
ENDBRANCH  36  37
ENDBRANCH  31  36
ENDBRANCH  30  31
BRANCH  30  39
HETATM   39  C9  UNL     1      18.287  29.897  12.418  1.00  0.00     0.269 C 
HETATM   40  O1  UNL     1      17.559  30.566  13.096  1.00  0.00    -0.304 OA
ENDBRANCH  30  39
ENDBRANCH  29  30
BRANCH  29  41
HETATM   41  C11 UNL     1      21.284  28.947  11.716  1.00  0.00     0.032 C 
BRANCH  41  42
HETATM   42  C12 UNL     1      22.658  28.440  11.705  1.00  0.00    -0.013 C 
HETATM   43  C13 UNL     1      23.469  28.899  12.923  1.00  0.00     0.005 C 
HETATM   44  C14 UNL     1      24.916  28.526  12.834  1.00  0.00     0.000 C 
HETATM   45  C15 UNL     1      25.041  27.201  12.124  1.00  0.00     0.000 C 
HETATM   46  C16 UNL     1      24.586  27.335  10.708  1.00  0.00     0.000 C 
HETATM   47  C17 UNL     1      23.529  28.451  10.534  1.00  0.00     0.005 C 
ENDBRANCH  41  42
ENDBRANCH  29  41
ENDBRANCH  26  29
ENDBRANCH  18  25
ENDBRANCH  15  18
ENDBRANCH  13  14
ENDBRANCH   5  13
ENDBRANCH   1   5
TORSDOF 16
ENDMDL
