MODEL 1
REMARK VINA RESULT: -8.742489371      0.000      0.000
REMARK  18 active torsions:
REMARK  status: ('A' for Active; 'I' for Inactive)
REMARK    1  A    between atoms: O1_2  and  C2_3 
REMARK    2  A    between atoms: C2_3  and  C3_5 
REMARK    3  A    between atoms: C3_5  and  C4_6 
REMARK    4  A    between atoms: C4_6  and  C5_7 
REMARK    5  A    between atoms: C5_7  and  C6_8 
REMARK    6  A    between atoms: C6_8  and  C7_9 
REMARK    7  A    between atoms: C6_8  and  C18_29 
REMARK    8  A    between atoms: C7_9  and  C8_10 
REMARK    9  A    between atoms: C8_10  and  O3_11 
REMARK   10  A    between atoms: C8_10  and  C9_13 
REMARK   11  A    between atoms: C10_14  and  C11_15 
REMARK   12  A    between atoms: C13_18  and  O5_19 
REMARK   13  A    between atoms: N1_22  and  C15_23 
REMARK   14  A    between atoms: C15_23  and  C16_24 
REMARK   15  A    between atoms: C18_29  and  C19_30 
REMARK   16  A    between atoms: C19_30  and  C21_32 
REMARK   17  A    between atoms: C21_32  and  C22_33 
REMARK   18  A    between atoms: C22_33  and  C23_34 
ROOT
HETATM    1  C6  UNL     1      17.758  30.857  14.201  1.00  0.00    -0.012 C 
ENDROOT
BRANCH   1   2
HETATM    2  C5  UNL     1      16.798  30.958  15.306  1.00  0.00     0.005 C 
BRANCH   2   3
HETATM    3  C4  UNL     1      16.198  32.358  15.357  1.00  0.00     0.010 C 
BRANCH   3   4
HETATM    4  C3  UNL     1      15.471  32.605  16.648  1.00  0.00     0.111 C 
BRANCH   4   5
HETATM    5  C2  UNL     1      15.412  34.037  16.944  1.00  0.00     0.258 C 
HETATM    6  O2  UNL     1      15.418  34.859  15.992  1.00  0.00    -0.265 OA
BRANCH   5   7
HETATM    7  O1  UNL     1      15.346  34.572  18.218  1.00  0.00    -0.326 OA
HETATM    8  C1  UNL     1      15.612  35.940  18.489  1.00  0.00     0.213 C 
ENDBRANCH   5   7
ENDBRANCH   4   5
ENDBRANCH   3   4
ENDBRANCH   2   3
ENDBRANCH   1   2
BRANCH   1   9
HETATM    9  C7  UNL     1      19.144  30.528  14.722  1.00  0.00     0.040 C 
BRANCH   9  10
HETATM   10  C8  UNL     1      19.382  30.750  16.172  1.00  0.00     0.141 C 
BRANCH  10  11
HETATM   11  O3  UNL     1      20.019  29.704  16.826  1.00  0.00    -0.392 OA
ATOM     12  H3  UNL     1      20.426  29.938  17.652  1.00  0.00     0.210 HD
ENDBRANCH  10  11
BRANCH  10  13
HETATM   13  C9  UNL     1      20.207  31.967  16.424  1.00  0.00     0.002 C 
HETATM   14  C10 UNL     1      19.874  33.106  15.867  1.00  0.00    -0.007 C 
BRANCH  14  15
HETATM   15  C11 UNL     1      20.592  34.390  16.023  1.00  0.00     0.172 C 
HETATM   16  C12 UNL     1      21.983  34.280  16.455  1.00  0.00     0.173 C 
HETATM   17  O4  UNL     1      22.790  33.671  15.788  1.00  0.00    -0.294 OA
HETATM   18  C13 UNL     1      22.403  34.923  17.722  1.00  0.00     0.206 C 
HETATM   19  C14 UNL     1      21.869  36.328  17.847  1.00  0.00     0.166 C 
HETATM   20  N1  UNL     1      20.443  36.305  17.652  1.00  0.00    -0.338 N 
HETATM   21  C17 UNL     1      19.843  35.196  17.021  1.00  0.00     0.235 C 
HETATM   22  O8  UNL     1      18.640  34.906  17.334  1.00  0.00    -0.272 OA
BRANCH  18  23
HETATM   23  O5  UNL     1      21.973  34.199  18.838  1.00  0.00    -0.386 OA
ATOM     24  H5  UNL     1      22.122  34.675  19.646  1.00  0.00     0.210 HD
ENDBRANCH  18  23
BRANCH  20  25
HETATM   25  C15 UNL     1      19.581  37.401  18.084  1.00  0.00     0.239 C 
BRANCH  25  26
HETATM   26  C16 UNL     1      20.250  38.692  17.885  1.00  0.00     0.191 C 
HETATM   27  O6  UNL     1      20.260  39.208  16.743  1.00  0.00    -0.647 OA
HETATM   28  O7  UNL     1      20.876  39.369  18.916  1.00  0.00    -0.647 OA
ENDBRANCH  25  26
ENDBRANCH  20  25
ENDBRANCH  14  15
ENDBRANCH  10  13
ENDBRANCH   9  10
ENDBRANCH   1   9
BRANCH   1  29
HETATM   29  C18 UNL     1      17.436  29.899  13.077  1.00  0.00     0.009 C 
BRANCH  29  30
HETATM   30  C19 UNL     1      18.067  28.585  13.053  1.00  0.00    -0.018 C 
HETATM   31  C20 UNL     1      17.312  27.395  13.558  1.00  0.00     0.010 C 
BRANCH  30  32
HETATM   32  C21 UNL     1      18.306  28.235  11.558  1.00  0.00     0.005 C 
BRANCH  32  33
HETATM   33  C22 UNL     1      19.714  27.905  11.254  1.00  0.00     0.005 C 
BRANCH  33  34
HETATM   34  C23 UNL     1      20.623  28.611  12.230  1.00  0.00    -0.006 C 
HETATM   35  C24 UNL     1      21.426  29.700  11.545  1.00  0.00    -0.010 C 
HETATM   36  C25 UNL     1      21.659  30.799  12.513  1.00  0.00     0.005 C 
HETATM   37  C30 UNL     1      22.634  29.179  10.849  1.00  0.00     0.009 C 
HETATM   38  C26 UNL     1      22.968  30.730  13.239  1.00  0.00     0.005 C 
HETATM   39  C27 UNL     1      23.313  29.343  13.713  1.00  0.00    -0.014 C 
HETATM   40  C28 UNL     1      24.191  28.689  12.693  1.00  0.00     0.009 C 
HETATM   41  C33 UNL     1      22.135  28.545  14.137  1.00  0.00     0.009 C 
HETATM   42  C29 UNL     1      23.372  28.105  11.564  1.00  0.00    -0.013 C 
HETATM   43  C31 UNL     1      22.498  27.034  12.162  1.00  0.00     0.010 C 
HETATM   44  C32 UNL     1      21.486  27.720  13.052  1.00  0.00    -0.009 C 
ENDBRANCH  33  34
ENDBRANCH  32  33
ENDBRANCH  30  32
ENDBRANCH  29  30
ENDBRANCH   1  29
TORSDOF 18
ENDMDL
MODEL 2
REMARK VINA RESULT: -8.738762741      4.526      9.474
REMARK  18 active torsions:
REMARK  status: ('A' for Active; 'I' for Inactive)
REMARK    1  A    between atoms: O1_2  and  C2_3 
REMARK    2  A    between atoms: C2_3  and  C3_5 
REMARK    3  A    between atoms: C3_5  and  C4_6 
REMARK    4  A    between atoms: C4_6  and  C5_7 
REMARK    5  A    between atoms: C5_7  and  C6_8 
REMARK    6  A    between atoms: C6_8  and  C7_9 
REMARK    7  A    between atoms: C6_8  and  C18_29 
REMARK    8  A    between atoms: C7_9  and  C8_10 
REMARK    9  A    between atoms: C8_10  and  O3_11 
REMARK   10  A    between atoms: C8_10  and  C9_13 
REMARK   11  A    between atoms: C10_14  and  C11_15 
REMARK   12  A    between atoms: C13_18  and  O5_19 
REMARK   13  A    between atoms: N1_22  and  C15_23 
REMARK   14  A    between atoms: C15_23  and  C16_24 
REMARK   15  A    between atoms: C18_29  and  C19_30 
REMARK   16  A    between atoms: C19_30  and  C21_32 
REMARK   17  A    between atoms: C21_32  and  C22_33 
REMARK   18  A    between atoms: C22_33  and  C23_34 
ROOT
HETATM    1  C6  UNL     1      21.632  30.202  13.131  1.00  0.00    -0.012 C 
ENDROOT
BRANCH   1   2
HETATM    2  C5  UNL     1      22.191  31.535  13.385  1.00  0.00     0.005 C 
BRANCH   2   3
HETATM    3  C4  UNL     1      21.839  31.995  14.795  1.00  0.00     0.010 C 
BRANCH   3   4
HETATM    4  C3  UNL     1      22.201  33.435  15.018  1.00  0.00     0.111 C 
BRANCH   4   5
HETATM    5  C2  UNL     1      22.241  33.745  16.447  1.00  0.00     0.258 C 
HETATM    6  O2  UNL     1      22.493  32.823  17.266  1.00  0.00    -0.265 OA
BRANCH   5   7
HETATM    7  O1  UNL     1      22.021  35.001  16.984  1.00  0.00    -0.326 OA
HETATM    8  C1  UNL     1      21.361  35.198  18.225  1.00  0.00     0.213 C 
ENDBRANCH   5   7
ENDBRANCH   4   5
ENDBRANCH   3   4
ENDBRANCH   2   3
ENDBRANCH   1   2
BRANCH   1   9
HETATM    9  C7  UNL     1      22.625  29.121  13.515  1.00  0.00     0.040 C 
BRANCH   9  10
HETATM   10  C8  UNL     1      23.777  28.917  12.598  1.00  0.00     0.141 C 
BRANCH  10  11
HETATM   11  O3  UNL     1      24.992  28.689  13.229  1.00  0.00    -0.392 OA
ATOM     12  H3  UNL     1      25.196  27.774  13.387  1.00  0.00     0.210 HD
ENDBRANCH  10  11
BRANCH  10  13
HETATM   13  C9  UNL     1      23.560  27.764  11.676  1.00  0.00     0.002 C 
HETATM   14  C10 UNL     1      22.708  26.821  12.001  1.00  0.00    -0.007 C 
BRANCH  14  15
HETATM   15  C11 UNL     1      22.392  25.624  11.192  1.00  0.00     0.172 C 
HETATM   16  C12 UNL     1      23.485  25.118  10.368  1.00  0.00     0.173 C 
HETATM   17  O4  UNL     1      24.524  24.755  10.876  1.00  0.00    -0.294 OA
HETATM   18  C13 UNL     1      23.317  25.050   8.898  1.00  0.00     0.206 C 
HETATM   19  C14 UNL     1      21.982  24.464   8.509  1.00  0.00     0.166 C 
HETATM   20  N1  UNL     1      20.938  25.192   9.180  1.00  0.00    -0.338 N 
HETATM   21  C17 UNL     1      21.251  25.979  10.307  1.00  0.00     0.235 C 
HETATM   22  O8  UNL     1      20.527  27.003  10.544  1.00  0.00    -0.272 OA
BRANCH  18  23
HETATM   23  O5  UNL     1      23.422  26.311   8.305  1.00  0.00    -0.386 OA
ATOM     24  H5  UNL     1      23.010  26.984   8.835  1.00  0.00     0.210 HD
ENDBRANCH  18  23
BRANCH  20  25
HETATM   25  C15 UNL     1      19.549  25.147   8.737  1.00  0.00     0.239 C 
BRANCH  25  26
HETATM   26  C16 UNL     1      19.478  24.924   7.288  1.00  0.00     0.191 C 
HETATM   27  O6  UNL     1      19.135  23.799   6.855  1.00  0.00    -0.647 OA
HETATM   28  O7  UNL     1      19.777  25.916   6.370  1.00  0.00    -0.647 OA
ENDBRANCH  25  26
ENDBRANCH  20  25
ENDBRANCH  14  15
ENDBRANCH  10  13
ENDBRANCH   9  10
ENDBRANCH   1   9
BRANCH   1  29
HETATM   29  C18 UNL     1      20.300  29.867  13.763  1.00  0.00     0.009 C 
BRANCH  29  30
HETATM   30  C19 UNL     1      19.253  29.263  12.949  1.00  0.00    -0.018 C 
HETATM   31  C20 UNL     1      18.598  27.999  13.411  1.00  0.00     0.010 C 
BRANCH  30  32
HETATM   32  C21 UNL     1      18.074  30.274  12.920  1.00  0.00     0.005 C 
BRANCH  32  33
HETATM   33  C22 UNL     1      18.479  31.654  13.262  1.00  0.00     0.005 C 
BRANCH  33  34
HETATM   34  C23 UNL     1      17.402  32.307  14.094  1.00  0.00    -0.006 C 
HETATM   35  C24 UNL     1      17.679  33.785  14.290  1.00  0.00    -0.010 C 
HETATM   36  C25 UNL     1      16.385  34.505  14.373  1.00  0.00     0.005 C 
HETATM   37  C30 UNL     1      18.645  34.052  15.391  1.00  0.00     0.009 C 
HETATM   38  C26 UNL     1      15.884  34.738  15.766  1.00  0.00     0.005 C 
HETATM   39  C27 UNL     1      16.035  33.536  16.661  1.00  0.00    -0.014 C 
HETATM   40  C28 UNL     1      17.315  33.661  17.426  1.00  0.00     0.009 C 
HETATM   41  C33 UNL     1      15.842  32.241  15.962  1.00  0.00     0.009 C 
HETATM   42  C29 UNL     1      18.492  33.198  16.598  1.00  0.00    -0.013 C 
HETATM   43  C31 UNL     1      18.280  31.735  16.309  1.00  0.00     0.010 C 
HETATM   44  C32 UNL     1      17.092  31.625  15.380  1.00  0.00    -0.009 C 
ENDBRANCH  33  34
ENDBRANCH  32  33
ENDBRANCH  30  32
ENDBRANCH  29  30
ENDBRANCH   1  29
TORSDOF 18
ENDMDL
MODEL 3
REMARK VINA RESULT: -8.644459805      4.523      9.222
REMARK  18 active torsions:
REMARK  status: ('A' for Active; 'I' for Inactive)
REMARK    1  A    between atoms: O1_2  and  C2_3 
REMARK    2  A    between atoms: C2_3  and  C3_5 
REMARK    3  A    between atoms: C3_5  and  C4_6 
REMARK    4  A    between atoms: C4_6  and  C5_7 
REMARK    5  A    between atoms: C5_7  and  C6_8 
REMARK    6  A    between atoms: C6_8  and  C7_9 
REMARK    7  A    between atoms: C6_8  and  C18_29 
REMARK    8  A    between atoms: C7_9  and  C8_10 
REMARK    9  A    between atoms: C8_10  and  O3_11 
REMARK   10  A    between atoms: C8_10  and  C9_13 
REMARK   11  A    between atoms: C10_14  and  C11_15 
REMARK   12  A    between atoms: C13_18  and  O5_19 
REMARK   13  A    between atoms: N1_22  and  C15_23 
REMARK   14  A    between atoms: C15_23  and  C16_24 
REMARK   15  A    between atoms: C18_29  and  C19_30 
REMARK   16  A    between atoms: C19_30  and  C21_32 
REMARK   17  A    between atoms: C21_32  and  C22_33 
REMARK   18  A    between atoms: C22_33  and  C23_34 
ROOT
HETATM    1  C6  UNL     1      18.146  29.750  13.093  1.00  0.00    -0.012 C 
ENDROOT
BRANCH   1   2
HETATM    2  C5  UNL     1      17.472  29.059  11.989  1.00  0.00     0.005 C 
BRANCH   2   3
HETATM    3  C4  UNL     1      18.267  27.828  11.571  1.00  0.00     0.010 C 
BRANCH   3   4
HETATM    4  C3  UNL     1      17.798  26.593  12.285  1.00  0.00     0.111 C 
BRANCH   4   5
HETATM    5  C2  UNL     1      17.975  25.409  11.444  1.00  0.00     0.258 C 
HETATM    6  O2  UNL     1      18.691  24.463  11.864  1.00  0.00    -0.265 OA
BRANCH   5   7
HETATM    7  O1  UNL     1      17.404  25.240  10.195  1.00  0.00    -0.326 OA
HETATM    8  C1  UNL     1      18.165  25.256   8.998  1.00  0.00     0.213 C 
ENDBRANCH   5   7
ENDBRANCH   4   5
ENDBRANCH   3   4
ENDBRANCH   2   3
ENDBRANCH   1   2
BRANCH   1   9
HETATM    9  C7  UNL     1      19.650  29.580  12.996  1.00  0.00     0.040 C 
BRANCH   9  10
HETATM   10  C8  UNL     1      20.341  29.046  14.199  1.00  0.00     0.141 C 
BRANCH  10  11
HETATM   11  O3  UNL     1      19.557  28.239  15.012  1.00  0.00    -0.392 OA
ATOM     12  H3  UNL     1      19.937  27.393  15.221  1.00  0.00     0.210 HD
ENDBRANCH  10  11
BRANCH  10  13
HETATM   13  C9  UNL     1      21.544  28.240  13.841  1.00  0.00     0.002 C 
HETATM   14  C10 UNL     1      21.761  27.911  12.591  1.00  0.00    -0.007 C 
BRANCH  14  15
HETATM   15  C11 UNL     1      22.904  27.119  12.089  1.00  0.00     0.172 C 
HETATM   16  C12 UNL     1      24.103  27.887  11.764  1.00  0.00     0.173 C 
HETATM   17  O4  UNL     1      24.664  28.544  12.613  1.00  0.00    -0.294 OA
HETATM   18  C13 UNL     1      24.633  27.857  10.381  1.00  0.00     0.206 C 
HETATM   19  C14 UNL     1      24.676  26.455   9.823  1.00  0.00     0.166 C 
HETATM   20  N1  UNL     1      23.374  25.857   9.960  1.00  0.00    -0.338 N 
HETATM   21  C17 UNL     1      22.446  26.408  10.867  1.00  0.00     0.235 C 
HETATM   22  O8  UNL     1      21.203  26.277  10.608  1.00  0.00    -0.272 OA
BRANCH  18  23
HETATM   23  O5  UNL     1      23.866  28.640   9.515  1.00  0.00    -0.386 OA
ATOM     24  H5  UNL     1      22.997  28.278   9.388  1.00  0.00     0.210 HD
ENDBRANCH  18  23
BRANCH  20  25
HETATM   25  C15 UNL     1      22.970  24.686   9.188  1.00  0.00     0.239 C 
BRANCH  25  26
HETATM   26  C16 UNL     1      23.382  24.827   7.786  1.00  0.00     0.191 C 
HETATM   27  O6  UNL     1      22.713  25.559   7.020  1.00  0.00    -0.647 OA
HETATM   28  O7  UNL     1      24.489  24.177   7.270  1.00  0.00    -0.647 OA
ENDBRANCH  25  26
ENDBRANCH  20  25
ENDBRANCH  14  15
ENDBRANCH  10  13
ENDBRANCH   9  10
ENDBRANCH   1   9
BRANCH   1  29
HETATM   29  C18 UNL     1      17.849  31.220  13.287  1.00  0.00     0.009 C 
BRANCH  29  30
HETATM   30  C19 UNL     1      17.181  31.661  14.506  1.00  0.00    -0.018 C 
HETATM   31  C20 UNL     1      17.522  31.010  15.810  1.00  0.00     0.010 C 
BRANCH  30  32
HETATM   32  C21 UNL     1      17.605  33.138  14.735  1.00  0.00     0.005 C 
BRANCH  32  33
HETATM   33  C22 UNL     1      18.636  33.294  15.782  1.00  0.00     0.005 C 
BRANCH  33  34
HETATM   34  C23 UNL     1      19.945  33.698  15.150  1.00  0.00    -0.006 C 
HETATM   35  C24 UNL     1      20.840  32.494  14.922  1.00  0.00    -0.010 C 
HETATM   36  C25 UNL     1      21.656  32.731  13.707  1.00  0.00     0.005 C 
HETATM   37  C30 UNL     1      21.592  32.092  16.143  1.00  0.00     0.009 C 
HETATM   38  C26 UNL     1      23.018  33.297  13.965  1.00  0.00     0.005 C 
HETATM   39  C27 UNL     1      23.019  34.400  14.991  1.00  0.00    -0.014 C 
HETATM   40  C28 UNL     1      23.343  33.814  16.330  1.00  0.00     0.009 C 
HETATM   41  C33 UNL     1      21.806  35.255  14.953  1.00  0.00     0.009 C 
HETATM   42  C29 UNL     1      22.113  33.211  16.971  1.00  0.00    -0.013 C 
HETATM   43  C31 UNL     1      21.136  34.335  17.194  1.00  0.00     0.010 C 
HETATM   44  C32 UNL     1      20.667  34.804  15.835  1.00  0.00    -0.009 C 
ENDBRANCH  33  34
ENDBRANCH  32  33
ENDBRANCH  30  32
ENDBRANCH  29  30
ENDBRANCH   1  29
TORSDOF 18
ENDMDL
MODEL 4
REMARK VINA RESULT: -8.617453980      2.286      6.463
REMARK  18 active torsions:
REMARK  status: ('A' for Active; 'I' for Inactive)
REMARK    1  A    between atoms: O1_2  and  C2_3 
REMARK    2  A    between atoms: C2_3  and  C3_5 
REMARK    3  A    between atoms: C3_5  and  C4_6 
REMARK    4  A    between atoms: C4_6  and  C5_7 
REMARK    5  A    between atoms: C5_7  and  C6_8 
REMARK    6  A    between atoms: C6_8  and  C7_9 
REMARK    7  A    between atoms: C6_8  and  C18_29 
REMARK    8  A    between atoms: C7_9  and  C8_10 
REMARK    9  A    between atoms: C8_10  and  O3_11 
REMARK   10  A    between atoms: C8_10  and  C9_13 
REMARK   11  A    between atoms: C10_14  and  C11_15 
REMARK   12  A    between atoms: C13_18  and  O5_19 
REMARK   13  A    between atoms: N1_22  and  C15_23 
REMARK   14  A    between atoms: C15_23  and  C16_24 
REMARK   15  A    between atoms: C18_29  and  C19_30 
REMARK   16  A    between atoms: C19_30  and  C21_32 
REMARK   17  A    between atoms: C21_32  and  C22_33 
REMARK   18  A    between atoms: C22_33  and  C23_34 
ROOT
HETATM    1  C6  UNL     1      21.538  29.873  14.144  1.00  0.00    -0.012 C 
ENDROOT
BRANCH   1   2
HETATM    2  C5  UNL     1      22.910  29.536  13.749  1.00  0.00     0.005 C 
BRANCH   2   3
HETATM    3  C4  UNL     1      22.962  29.189  12.266  1.00  0.00     0.010 C 
BRANCH   3   4
HETATM    4  C3  UNL     1      24.084  28.241  11.955  1.00  0.00     0.111 C 
BRANCH   4   5
HETATM    5  C2  UNL     1      23.604  26.859  11.924  1.00  0.00     0.258 C 
HETATM    6  O2  UNL     1      24.442  25.921  11.905  1.00  0.00    -0.265 OA
BRANCH   5   7
HETATM    7  O1  UNL     1      22.270  26.492  11.914  1.00  0.00    -0.326 OA
HETATM    8  C1  UNL     1      21.796  25.350  11.218  1.00  0.00     0.213 C 
ENDBRANCH   5   7
ENDBRANCH   4   5
ENDBRANCH   3   4
ENDBRANCH   2   3
ENDBRANCH   1   2
BRANCH   1   9
HETATM    9  C7  UNL     1      21.515  31.136  14.984  1.00  0.00     0.040 C 
BRANCH   9  10
HETATM   10  C8  UNL     1      22.241  32.313  14.440  1.00  0.00     0.141 C 
BRANCH  10  11
HETATM   11  O3  UNL     1      21.563  33.011  13.450  1.00  0.00    -0.392 OA
ATOM     12  H3  UNL     1      20.873  33.583  13.765  1.00  0.00     0.210 HD
ENDBRANCH  10  11
BRANCH  10  13
HETATM   13  C9  UNL     1      22.572  33.306  15.502  1.00  0.00     0.002 C 
HETATM   14  C10 UNL     1      22.027  34.499  15.472  1.00  0.00    -0.007 C 
BRANCH  14  15
HETATM   15  C11 UNL     1      22.260  35.582  16.452  1.00  0.00     0.172 C 
HETATM   16  C12 UNL     1      21.469  35.500  17.676  1.00  0.00     0.173 C 
HETATM   17  O4  UNL     1      21.560  34.538  18.407  1.00  0.00    -0.294 OA
HETATM   18  C13 UNL     1      20.548  36.608  18.022  1.00  0.00     0.206 C 
HETATM   19  C14 UNL     1      21.197  37.958  17.844  1.00  0.00     0.166 C 
HETATM   20  N1  UNL     1      21.736  38.045  16.512  1.00  0.00    -0.338 N 
HETATM   21  C17 UNL     1      21.955  36.867  15.770  1.00  0.00     0.235 C 
HETATM   22  O8  UNL     1      21.882  36.936  14.498  1.00  0.00    -0.272 OA
BRANCH  18  23
HETATM   23  O5  UNL     1      19.389  36.581  17.242  1.00  0.00    -0.386 OA
ATOM     24  H5  UNL     1      18.735  37.191  17.561  1.00  0.00     0.210 HD
ENDBRANCH  18  23
BRANCH  20  25
HETATM   25  C15 UNL     1      22.073  39.322  15.891  1.00  0.00     0.239 C 
BRANCH  25  26
HETATM   26  C16 UNL     1      20.964  40.272  16.032  1.00  0.00     0.191 C 
HETATM   27  O6  UNL     1      19.931  40.119  15.339  1.00  0.00    -0.647 OA
HETATM   28  O7  UNL     1      21.011  41.342  16.909  1.00  0.00    -0.647 OA
ENDBRANCH  25  26
ENDBRANCH  20  25
ENDBRANCH  14  15
ENDBRANCH  10  13
ENDBRANCH   9  10
ENDBRANCH   1   9
BRANCH   1  29
HETATM   29  C18 UNL     1      20.507  30.016  13.047  1.00  0.00     0.009 C 
BRANCH  29  30
HETATM   30  C19 UNL     1      19.314  29.178  13.072  1.00  0.00    -0.018 C 
HETATM   31  C20 UNL     1      19.000  28.379  14.298  1.00  0.00     0.010 C 
BRANCH  30  32
HETATM   32  C21 UNL     1      18.096  30.136  12.961  1.00  0.00     0.005 C 
BRANCH  32  33
HETATM   33  C22 UNL     1      18.450  31.557  13.164  1.00  0.00     0.005 C 
BRANCH  33  34
HETATM   34  C23 UNL     1      17.396  32.226  14.012  1.00  0.00    -0.006 C 
HETATM   35  C24 UNL     1      17.704  33.697  14.213  1.00  0.00    -0.010 C 
HETATM   36  C25 UNL     1      16.425  34.441  14.316  1.00  0.00     0.005 C 
HETATM   37  C30 UNL     1      18.688  33.940  15.304  1.00  0.00     0.009 C 
HETATM   38  C26 UNL     1      15.946  34.676  15.717  1.00  0.00     0.005 C 
HETATM   39  C27 UNL     1      16.085  33.466  16.604  1.00  0.00    -0.014 C 
HETATM   40  C28 UNL     1      17.376  33.563  17.353  1.00  0.00     0.009 C 
HETATM   41  C33 UNL     1      15.858  32.179  15.900  1.00  0.00     0.009 C 
HETATM   42  C29 UNL     1      18.534  33.082  16.508  1.00  0.00    -0.013 C 
HETATM   43  C31 UNL     1      18.290  31.625  16.214  1.00  0.00     0.010 C 
HETATM   44  C32 UNL     1      17.089  31.543  15.299  1.00  0.00    -0.009 C 
ENDBRANCH  33  34
ENDBRANCH  32  33
ENDBRANCH  30  32
ENDBRANCH  29  30
ENDBRANCH   1  29
TORSDOF 18
ENDMDL
MODEL 5
REMARK VINA RESULT: -8.606154632      1.500      4.021
REMARK  18 active torsions:
REMARK  status: ('A' for Active; 'I' for Inactive)
REMARK    1  A    between atoms: O1_2  and  C2_3 
REMARK    2  A    between atoms: C2_3  and  C3_5 
REMARK    3  A    between atoms: C3_5  and  C4_6 
REMARK    4  A    between atoms: C4_6  and  C5_7 
REMARK    5  A    between atoms: C5_7  and  C6_8 
REMARK    6  A    between atoms: C6_8  and  C7_9 
REMARK    7  A    between atoms: C6_8  and  C18_29 
REMARK    8  A    between atoms: C7_9  and  C8_10 
REMARK    9  A    between atoms: C8_10  and  O3_11 
REMARK   10  A    between atoms: C8_10  and  C9_13 
REMARK   11  A    between atoms: C10_14  and  C11_15 
REMARK   12  A    between atoms: C13_18  and  O5_19 
REMARK   13  A    between atoms: N1_22  and  C15_23 
REMARK   14  A    between atoms: C15_23  and  C16_24 
REMARK   15  A    between atoms: C18_29  and  C19_30 
REMARK   16  A    between atoms: C19_30  and  C21_32 
REMARK   17  A    between atoms: C21_32  and  C22_33 
REMARK   18  A    between atoms: C22_33  and  C23_34 
ROOT
HETATM    1  C6  UNL     1      17.690  30.904  14.327  1.00  0.00    -0.012 C 
ENDROOT
BRANCH   1   2
HETATM    2  C5  UNL     1      18.823  30.537  15.183  1.00  0.00     0.005 C 
BRANCH   2   3
HETATM    3  C4  UNL     1      19.952  31.549  15.027  1.00  0.00     0.010 C 
BRANCH   3   4
HETATM    4  C3  UNL     1      20.926  31.478  16.168  1.00  0.00     0.111 C 
BRANCH   4   5
HETATM    5  C2  UNL     1      22.048  32.392  15.951  1.00  0.00     0.258 C 
HETATM    6  O2  UNL     1      22.784  32.698  16.925  1.00  0.00    -0.265 OA
BRANCH   5   7
HETATM    7  O1  UNL     1      22.373  32.960  14.732  1.00  0.00    -0.326 OA
HETATM    8  C1  UNL     1      22.916  34.266  14.617  1.00  0.00     0.213 C 
ENDBRANCH   5   7
ENDBRANCH   4   5
ENDBRANCH   3   4
ENDBRANCH   2   3
ENDBRANCH   1   2
BRANCH   1   9
HETATM    9  C7  UNL     1      17.407  32.391  14.416  1.00  0.00     0.040 C 
BRANCH   9  10
HETATM   10  C8  UNL     1      16.272  32.804  15.282  1.00  0.00     0.141 C 
BRANCH  10  11
HETATM   11  O3  UNL     1      15.816  31.825  16.154  1.00  0.00    -0.392 OA
ATOM     12  H3  UNL     1      15.083  31.313  15.832  1.00  0.00     0.210 HD
ENDBRANCH  10  11
BRANCH  10  13
HETATM   13  C9  UNL     1      16.612  33.989  16.123  1.00  0.00     0.002 C 
HETATM   14  C10 UNL     1      17.523  33.884  17.060  1.00  0.00    -0.007 C 
BRANCH  14  15
HETATM   15  C11 UNL     1      17.961  34.967  17.967  1.00  0.00     0.172 C 
HETATM   16  C12 UNL     1      16.983  36.025  18.198  1.00  0.00     0.173 C 
HETATM   17  O4  UNL     1      15.903  35.771  18.686  1.00  0.00    -0.294 OA
HETATM   18  C13 UNL     1      17.319  37.420  17.830  1.00  0.00     0.206 C 
HETATM   19  C14 UNL     1      18.705  37.805  18.286  1.00  0.00     0.166 C 
HETATM   20  N1  UNL     1      19.646  36.832  17.797  1.00  0.00    -0.338 N 
HETATM   21  C17 UNL     1      19.186  35.568  17.376  1.00  0.00     0.235 C 
HETATM   22  O8  UNL     1      19.851  34.957  16.474  1.00  0.00    -0.272 OA
BRANCH  18  23
HETATM   23  O5  UNL     1      17.250  37.622  16.449  1.00  0.00    -0.386 OA
ATOM     24  H5  UNL     1      16.359  37.785  16.161  1.00  0.00     0.210 HD
ENDBRANCH  18  23
BRANCH  20  25
HETATM   25  C15 UNL     1      21.077  37.104  17.722  1.00  0.00     0.239 C 
BRANCH  25  26
HETATM   26  C16 UNL     1      21.356  38.116  16.696  1.00  0.00     0.191 C 
HETATM   27  O6  UNL     1      21.589  37.750  15.520  1.00  0.00    -0.647 OA
HETATM   28  O7  UNL     1      21.373  39.471  16.977  1.00  0.00    -0.647 OA
ENDBRANCH  25  26
ENDBRANCH  20  25
ENDBRANCH  14  15
ENDBRANCH  10  13
ENDBRANCH   9  10
ENDBRANCH   1   9
BRANCH   1  29
HETATM   29  C18 UNL     1      17.764  30.524  12.865  1.00  0.00     0.009 C 
BRANCH  29  30
HETATM   30  C19 UNL     1      17.471  29.153  12.466  1.00  0.00    -0.018 C 
HETATM   31  C20 UNL     1      16.666  28.901  11.229  1.00  0.00     0.010 C 
BRANCH  30  32
HETATM   32  C21 UNL     1      18.834  28.485  12.134  1.00  0.00     0.005 C 
BRANCH  32  33
HETATM   33  C22 UNL     1      19.912  29.461  11.866  1.00  0.00     0.005 C 
BRANCH  33  34
HETATM   34  C23 UNL     1      21.182  28.728  11.512  1.00  0.00    -0.006 C 
HETATM   35  C24 UNL     1      21.486  27.635  12.518  1.00  0.00    -0.010 C 
HETATM   36  C25 UNL     1      22.168  26.520  11.819  1.00  0.00     0.005 C 
HETATM   37  C30 UNL     1      22.161  28.145  13.743  1.00  0.00     0.009 C 
HETATM   38  C26 UNL     1      23.665  26.558  11.886  1.00  0.00     0.005 C 
HETATM   39  C27 UNL     1      24.235  27.934  11.659  1.00  0.00    -0.014 C 
HETATM   40  C28 UNL     1      24.462  28.587  12.986  1.00  0.00     0.009 C 
HETATM   41  C33 UNL     1      23.470  28.744  10.678  1.00  0.00     0.009 C 
HETATM   42  C29 UNL     1      23.186  29.199  13.517  1.00  0.00    -0.013 C 
HETATM   43  C31 UNL     1      22.776  30.275  12.547  1.00  0.00     0.010 C 
HETATM   44  C32 UNL     1      22.366  29.594  11.261  1.00  0.00    -0.009 C 
ENDBRANCH  33  34
ENDBRANCH  32  33
ENDBRANCH  30  32
ENDBRANCH  29  30
ENDBRANCH   1  29
TORSDOF 18
ENDMDL
