MODEL 1
REMARK VINA RESULT: -8.816196959      0.000      0.000
REMARK  16 active torsions:
REMARK  status: ('A' for Active; 'I' for Inactive)
REMARK    1  A    between atoms: C2_2  and  C3_3 
REMARK    2  A    between atoms: N2_9  and  C7_10 
REMARK    3  A    between atoms: C7_10  and  C8_11 
REMARK       I    between atoms: N3_15  and  C12_16 
REMARK    4  A    between atoms: C12_16  and  C13_18 
REMARK    5  A    between atoms: C13_18  and  C14_19 
REMARK    6  A    between atoms: C14_19  and  C15_20 
REMARK    7  A    between atoms: C16_23  and  C17_24 
REMARK    8  A    between atoms: C17_24  and  C18_25 
REMARK    9  A    between atoms: C21_30  and  O2_31 
REMARK   10  A    between atoms: O2_31  and  C22_32 
REMARK   11  A    between atoms: C22_32  and  C23_33 
REMARK   12  A    between atoms: C23_33  and  O3_34 
REMARK   13  A    between atoms: C23_33  and  C24_36 
REMARK   14  A    between atoms: C24_36  and  N6_37 
REMARK       I    between atoms: N6_37  and  C25_39 
REMARK   15  A    between atoms: C25_39  and  C26_41 
REMARK   16  A    between atoms: C26_41  and  C27_42 
ROOT
HETATM    1  C15 UNL     1      21.493  31.648  13.365  1.00  0.00     0.062 A 
HETATM    2  N4  UNL     1      20.133  31.742  13.319  1.00  0.00    -0.346 N 
ATOM      3  H4  UNL     1      19.590  32.547  13.634  1.00  0.00     0.167 HD
HETATM    4  C16 UNL     1      19.616  30.619  12.797  1.00  0.00     0.083 A 
HETATM    5  N5  UNL     1      20.616  29.797  12.504  1.00  0.00    -0.325 N 
ATOM      6  H5  UNL     1      20.522  28.868  12.094  1.00  0.00     0.169 HD
HETATM    7  C21 UNL     1      21.801  30.409  12.847  1.00  0.00     0.167 A 
ENDROOT
BRANCH   1   8
HETATM    8  C14 UNL     1      22.375  32.731  13.834  1.00  0.00     0.071 C 
BRANCH   8   9
HETATM    9  C13 UNL     1      22.502  32.859  15.320  1.00  0.00     0.109 C 
BRANCH   9  10
HETATM   10  C12 UNL     1      21.278  33.190  16.069  1.00  0.00     0.220 C 
HETATM   11  N3  UNL     1      20.843  34.477  16.343  1.00  0.00    -0.346 N 
HETATM   12  C8  UNL     1      19.692  35.024  16.989  1.00  0.00     0.105 C 
HETATM   13  C11 UNL     1      21.636  35.693  16.079  1.00  0.00     0.126 C 
HETATM   14  C9  UNL     1      20.501  35.557  18.240  1.00  0.00     0.028 C 
HETATM   15  C10 UNL     1      21.672  36.214  17.538  1.00  0.00     0.022 C 
HETATM   16  O1  UNL     1      20.608  32.169  16.462  1.00  0.00    -0.273 OA
BRANCH  12  17
HETATM   17  C7  UNL     1      18.625  34.134  17.431  1.00  0.00     0.150 C 
BRANCH  17  18
HETATM   18  N2  UNL     1      17.535  33.912  16.538  1.00  0.00    -0.363 N 
HETATM   19  C3  UNL     1      16.527  34.947  16.139  1.00  0.00     0.103 C 
HETATM   20  C4  UNL     1      16.506  34.655  14.650  1.00  0.00     0.146 C 
HETATM   21  N1  UNL     1      16.562  33.218  14.643  1.00  0.00    -0.378 N 
HETATM   22  C5  UNL     1      17.156  32.791  15.755  1.00  0.00     0.071 C 
ATOM     23  H1  UNL     1      16.202  32.619  13.900  1.00  0.00     0.160 HD
HETATM   24  C6  UNL     1      17.365  31.354  16.042  1.00  0.00     0.088 C 
BRANCH  19  25
HETATM   25  C2  UNL     1      15.228  34.510  16.783  1.00  0.00     0.022 C 
HETATM   26  C1  UNL     1      14.448  35.675  17.370  1.00  0.00     0.007 C 
ENDBRANCH  19  25
ENDBRANCH  17  18
ENDBRANCH  12  17
ENDBRANCH   9  10
ENDBRANCH   8   9
ENDBRANCH   1   8
BRANCH   7  27
HETATM   27  O2  UNL     1      23.002  29.869  12.694  1.00  0.00    -0.332 OA
BRANCH  27  28
HETATM   28  C22 UNL     1      23.852  28.905  13.038  1.00  0.00     0.210 C 
BRANCH  28  29
HETATM   29  C23 UNL     1      24.609  28.189  11.927  1.00  0.00     0.160 C 
BRANCH  29  30
HETATM   30  O3  UNL     1      25.299  27.095  12.320  1.00  0.00    -0.392 OA
ATOM     31  H3  UNL     1      26.097  27.277  12.802  1.00  0.00     0.210 HD
ENDBRANCH  29  30
BRANCH  29  32
HETATM   32  C24 UNL     1      23.733  27.993  10.757  1.00  0.00     0.156 C 
BRANCH  32  33
HETATM   33  N6  UNL     1      22.647  27.096  10.931  1.00  0.00    -0.359 N 
HETATM   34  C25 UNL     1      22.635  25.697  10.987  1.00  0.00     0.217 C 
HETATM   35  O4  UNL     1      23.662  24.999  10.878  1.00  0.00    -0.274 OA
ATOM     36  H6  UNL     1      21.734  27.539  11.032  1.00  0.00     0.162 HD
BRANCH  34  37
HETATM   37  C26 UNL     1      21.331  24.981  11.186  1.00  0.00     0.107 C 
BRANCH  37  38
HETATM   38  C27 UNL     1      20.159  25.725  10.645  1.00  0.00    -0.006 C 
HETATM   39  C28 UNL     1      19.998  25.343   9.181  1.00  0.00     0.005 C 
HETATM   40  C29 UNL     1      18.935  26.166   8.534  1.00  0.00     0.000 C 
HETATM   41  C30 UNL     1      17.643  26.053   9.256  1.00  0.00     0.000 C 
HETATM   42  C31 UNL     1      17.673  25.332  10.562  1.00  0.00     0.000 C 
HETATM   43  C32 UNL     1      18.886  25.569  11.402  1.00  0.00     0.005 C 
ENDBRANCH  37  38
ENDBRANCH  34  37
ENDBRANCH  32  33
ENDBRANCH  29  32
ENDBRANCH  28  29
ENDBRANCH  27  28
ENDBRANCH   7  27
BRANCH   4  44
HETATM   44  C17 UNL     1      18.146  30.406  12.594  1.00  0.00     0.080 C 
BRANCH  44  45
HETATM   45  C18 UNL     1      17.820  28.999  12.156  1.00  0.00    -0.016 C 
HETATM   46  C19 UNL     1      16.662  28.960  11.198  1.00  0.00     0.010 C 
HETATM   47  C20 UNL     1      17.546  28.175  13.402  1.00  0.00     0.010 C 
ENDBRANCH  44  45
ENDBRANCH   4  44
TORSDOF 16
ENDMDL
MODEL 2
REMARK VINA RESULT: -8.804098439      2.216      8.892
REMARK  16 active torsions:
REMARK  status: ('A' for Active; 'I' for Inactive)
REMARK    1  A    between atoms: C2_2  and  C3_3 
REMARK    2  A    between atoms: N2_9  and  C7_10 
REMARK    3  A    between atoms: C7_10  and  C8_11 
REMARK       I    between atoms: N3_15  and  C12_16 
REMARK    4  A    between atoms: C12_16  and  C13_18 
REMARK    5  A    between atoms: C13_18  and  C14_19 
REMARK    6  A    between atoms: C14_19  and  C15_20 
REMARK    7  A    between atoms: C16_23  and  C17_24 
REMARK    8  A    between atoms: C17_24  and  C18_25 
REMARK    9  A    between atoms: C21_30  and  O2_31 
REMARK   10  A    between atoms: O2_31  and  C22_32 
REMARK   11  A    between atoms: C22_32  and  C23_33 
REMARK   12  A    between atoms: C23_33  and  O3_34 
REMARK   13  A    between atoms: C23_33  and  C24_36 
REMARK   14  A    between atoms: C24_36  and  N6_37 
REMARK       I    between atoms: N6_37  and  C25_39 
REMARK   15  A    between atoms: C25_39  and  C26_41 
REMARK   16  A    between atoms: C26_41  and  C27_42 
ROOT
HETATM    1  C15 UNL     1      21.765  33.550  15.497  1.00  0.00     0.062 A 
HETATM    2  N4  UNL     1      22.081  34.764  16.030  1.00  0.00    -0.346 N 
ATOM      3  H4  UNL     1      22.333  35.594  15.492  1.00  0.00     0.167 HD
HETATM    4  C16 UNL     1      22.011  34.705  17.370  1.00  0.00     0.083 A 
HETATM    5  N5  UNL     1      21.656  33.474  17.714  1.00  0.00    -0.325 N 
ATOM      6  H5  UNL     1      21.525  33.137  18.668  1.00  0.00     0.169 HD
HETATM    7  C21 UNL     1      21.495  32.727  16.569  1.00  0.00     0.167 A 
ENDROOT
BRANCH   1   8
HETATM    8  C14 UNL     1      21.693  33.283  14.050  1.00  0.00     0.071 C 
BRANCH   8   9
HETATM    9  C13 UNL     1      22.447  32.079  13.578  1.00  0.00     0.109 C 
BRANCH   9  10
HETATM   10  C12 UNL     1      21.674  31.040  12.880  1.00  0.00     0.220 C 
HETATM   11  N3  UNL     1      21.984  29.688  12.881  1.00  0.00    -0.346 N 
HETATM   12  C8  UNL     1      21.366  28.523  12.332  1.00  0.00     0.105 C 
HETATM   13  C11 UNL     1      23.231  29.127  13.434  1.00  0.00     0.126 C 
HETATM   14  C9  UNL     1      22.504  28.282  11.258  1.00  0.00     0.028 C 
HETATM   15  C10 UNL     1      23.732  28.459  12.128  1.00  0.00     0.022 C 
HETATM   16  O1  UNL     1      20.647  31.480  12.248  1.00  0.00    -0.273 OA
BRANCH  12  17
HETATM   17  C7  UNL     1      20.074  28.639  11.669  1.00  0.00     0.150 C 
BRANCH  17  18
HETATM   18  N2  UNL     1      19.309  27.448  11.494  1.00  0.00    -0.363 N 
HETATM   19  C3  UNL     1      19.404  26.532  10.313  1.00  0.00     0.103 C 
HETATM   20  C4  UNL     1      19.428  25.217  11.068  1.00  0.00     0.146 C 
HETATM   21  N1  UNL     1      18.458  25.466  12.100  1.00  0.00    -0.378 N 
HETATM   22  C5  UNL     1      18.387  26.775  12.337  1.00  0.00     0.071 C 
ATOM     23  H1  UNL     1      17.909  24.751  12.578  1.00  0.00     0.160 HD
HETATM   24  C6  UNL     1      17.474  27.351  13.350  1.00  0.00     0.088 C 
BRANCH  19  25
HETATM   25  C2  UNL     1      18.092  26.694   9.573  1.00  0.00     0.022 C 
HETATM   26  C1  UNL     1      17.845  25.577   8.573  1.00  0.00     0.007 C 
ENDBRANCH  19  25
ENDBRANCH  17  18
ENDBRANCH  12  17
ENDBRANCH   9  10
ENDBRANCH   8   9
ENDBRANCH   1   8
BRANCH   7  27
HETATM   27  O2  UNL     1      21.146  31.449  16.543  1.00  0.00    -0.332 OA
BRANCH  27  28
HETATM   28  C22 UNL     1      20.178  30.545  16.676  1.00  0.00     0.210 C 
BRANCH  28  29
HETATM   29  C23 UNL     1      19.903  29.616  15.502  1.00  0.00     0.160 C 
BRANCH  29  30
HETATM   30  O3  UNL     1      19.919  28.298  15.801  1.00  0.00    -0.392 OA
ATOM     31  H3  UNL     1      19.975  27.717  15.051  1.00  0.00     0.210 HD
ENDBRANCH  29  30
BRANCH  29  32
HETATM   32  C24 UNL     1      18.718  30.075  14.753  1.00  0.00     0.156 C 
BRANCH  32  33
HETATM   33  N6  UNL     1      18.509  31.479  14.711  1.00  0.00    -0.359 N 
HETATM   34  C25 UNL     1      17.420  32.240  15.153  1.00  0.00     0.217 C 
HETATM   35  O4  UNL     1      16.407  31.742  15.681  1.00  0.00    -0.274 OA
ATOM     36  H6  UNL     1      19.271  32.016  14.296  1.00  0.00     0.162 HD
BRANCH  34  37
HETATM   37  C26 UNL     1      17.454  33.732  14.992  1.00  0.00     0.107 C 
BRANCH  37  38
HETATM   38  C27 UNL     1      17.086  34.469  16.234  1.00  0.00    -0.006 C 
HETATM   39  C28 UNL     1      18.373  34.881  16.933  1.00  0.00     0.005 C 
HETATM   40  C29 UNL     1      18.080  35.492  18.263  1.00  0.00     0.000 C 
HETATM   41  C30 UNL     1      17.151  36.643  18.139  1.00  0.00     0.000 C 
HETATM   42  C31 UNL     1      16.535  36.861  16.798  1.00  0.00     0.000 C 
HETATM   43  C32 UNL     1      16.159  35.621  16.053  1.00  0.00     0.005 C 
ENDBRANCH  37  38
ENDBRANCH  34  37
ENDBRANCH  32  33
ENDBRANCH  29  32
ENDBRANCH  28  29
ENDBRANCH  27  28
ENDBRANCH   7  27
BRANCH   4  44
HETATM   44  C17 UNL     1      22.287  35.879  18.261  1.00  0.00     0.080 C 
BRANCH  44  45
HETATM   45  C18 UNL     1      22.169  37.197  17.534  1.00  0.00    -0.016 C 
HETATM   46  C19 UNL     1      23.427  38.014  17.640  1.00  0.00     0.010 C 
HETATM   47  C20 UNL     1      20.971  37.937  18.101  1.00  0.00     0.010 C 
ENDBRANCH  44  45
ENDBRANCH   4  44
TORSDOF 16
ENDMDL
MODEL 3
REMARK VINA RESULT: -8.789563349      1.978      5.075
REMARK  16 active torsions:
REMARK  status: ('A' for Active; 'I' for Inactive)
REMARK    1  A    between atoms: C2_2  and  C3_3 
REMARK    2  A    between atoms: N2_9  and  C7_10 
REMARK    3  A    between atoms: C7_10  and  C8_11 
REMARK       I    between atoms: N3_15  and  C12_16 
REMARK    4  A    between atoms: C12_16  and  C13_18 
REMARK    5  A    between atoms: C13_18  and  C14_19 
REMARK    6  A    between atoms: C14_19  and  C15_20 
REMARK    7  A    between atoms: C16_23  and  C17_24 
REMARK    8  A    between atoms: C17_24  and  C18_25 
REMARK    9  A    between atoms: C21_30  and  O2_31 
REMARK   10  A    between atoms: O2_31  and  C22_32 
REMARK   11  A    between atoms: C22_32  and  C23_33 
REMARK   12  A    between atoms: C23_33  and  O3_34 
REMARK   13  A    between atoms: C23_33  and  C24_36 
REMARK   14  A    between atoms: C24_36  and  N6_37 
REMARK       I    between atoms: N6_37  and  C25_39 
REMARK   15  A    between atoms: C25_39  and  C26_41 
REMARK   16  A    between atoms: C26_41  and  C27_42 
ROOT
HETATM    1  C15 UNL     1      18.371  28.764  12.043  1.00  0.00     0.062 A 
HETATM    2  N4  UNL     1      17.776  27.947  11.128  1.00  0.00    -0.346 N 
ATOM      3  H4  UNL     1      17.107  28.250  10.419  1.00  0.00     0.167 HD
HETATM    4  C16 UNL     1      18.201  26.685  11.298  1.00  0.00     0.083 A 
HETATM    5  N5  UNL     1      19.061  26.669  12.309  1.00  0.00    -0.325 N 
ATOM      6  H5  UNL     1      19.546  25.845  12.664  1.00  0.00     0.169 HD
HETATM    7  C21 UNL     1      19.189  27.950  12.797  1.00  0.00     0.167 A 
ENDROOT
BRANCH   1   8
HETATM    8  C14 UNL     1      18.165  30.221  12.099  1.00  0.00     0.071 C 
BRANCH   8   9
HETATM    9  C13 UNL     1      17.450  30.725  13.314  1.00  0.00     0.109 C 
BRANCH   9  10
HETATM   10  C12 UNL     1      18.019  31.907  13.981  1.00  0.00     0.220 C 
HETATM   11  N3  UNL     1      17.589  32.412  15.199  1.00  0.00    -0.346 N 
HETATM   12  C8  UNL     1      18.015  33.485  16.039  1.00  0.00     0.105 C 
HETATM   13  C11 UNL     1      16.385  31.942  15.910  1.00  0.00     0.126 C 
HETATM   14  C9  UNL     1      16.721  34.360  15.776  1.00  0.00     0.028 C 
HETATM   15  C10 UNL     1      15.648  33.305  15.952  1.00  0.00     0.022 C 
HETATM   16  O1  UNL     1      18.984  32.461  13.342  1.00  0.00    -0.273 OA
BRANCH  12  17
HETATM   17  C7  UNL     1      19.207  34.245  15.686  1.00  0.00     0.150 C 
BRANCH  17  18
HETATM   18  N2  UNL     1      19.976  34.804  16.750  1.00  0.00    -0.363 N 
HETATM   19  C3  UNL     1      19.596  36.021  17.537  1.00  0.00     0.103 C 
HETATM   20  C4  UNL     1      19.915  35.485  18.920  1.00  0.00     0.146 C 
HETATM   21  N1  UNL     1      21.132  34.761  18.668  1.00  0.00    -0.378 N 
HETATM   22  C5  UNL     1      21.165  34.376  17.395  1.00  0.00     0.071 C 
ATOM     23  H1  UNL     1      21.859  34.573  19.360  1.00  0.00     0.160 HD
HETATM   24  C6  UNL     1      22.295  33.607  16.826  1.00  0.00     0.088 C 
BRANCH  19  25
HETATM   25  C2  UNL     1      20.597  37.085  17.137  1.00  0.00     0.022 C 
HETATM   26  C1  UNL     1      20.577  38.284  18.071  1.00  0.00     0.007 C 
ENDBRANCH  19  25
ENDBRANCH  17  18
ENDBRANCH  12  17
ENDBRANCH   9  10
ENDBRANCH   8   9
ENDBRANCH   1   8
BRANCH   7  27
HETATM   27  O2  UNL     1      19.966  28.297  13.812  1.00  0.00    -0.332 OA
BRANCH  27  28
HETATM   28  C22 UNL     1      20.097  28.444  15.129  1.00  0.00     0.210 C 
BRANCH  28  29
HETATM   29  C23 UNL     1      20.191  29.858  15.685  1.00  0.00     0.160 C 
BRANCH  29  30
HETATM   30  O3  UNL     1      20.132  29.946  17.033  1.00  0.00    -0.392 OA
ATOM     31  H3  UNL     1      20.617  30.671  17.409  1.00  0.00     0.210 HD
ENDBRANCH  29  30
BRANCH  29  32
HETATM   32  C24 UNL     1      21.312  30.582  15.057  1.00  0.00     0.156 C 
BRANCH  32  33
HETATM   33  N6  UNL     1      22.377  29.782  14.567  1.00  0.00    -0.359 N 
HETATM   34  C25 UNL     1      22.933  29.710  13.284  1.00  0.00     0.217 C 
HETATM   35  O4  UNL     1      22.528  30.395  12.324  1.00  0.00    -0.274 OA
ATOM     36  H6  UNL     1      22.804  29.163  15.257  1.00  0.00     0.162 HD
BRANCH  34  37
HETATM   37  C26 UNL     1      24.073  28.769  13.029  1.00  0.00     0.107 C 
BRANCH  37  38
HETATM   38  C27 UNL     1      23.907  27.961  11.787  1.00  0.00    -0.006 C 
HETATM   39  C28 UNL     1      25.154  27.106  11.614  1.00  0.00     0.005 C 
HETATM   40  C29 UNL     1      25.122  26.383  10.309  1.00  0.00     0.000 C 
HETATM   41  C30 UNL     1      23.893  25.562  10.172  1.00  0.00     0.000 C 
HETATM   42  C31 UNL     1      22.849  25.747  11.222  1.00  0.00     0.000 C 
HETATM   43  C32 UNL     1      22.661  27.149  11.705  1.00  0.00     0.005 C 
ENDBRANCH  37  38
ENDBRANCH  34  37
ENDBRANCH  32  33
ENDBRANCH  29  32
ENDBRANCH  28  29
ENDBRANCH  27  28
ENDBRANCH   7  27
BRANCH   4  44
HETATM   44  C17 UNL     1      17.749  25.541  10.441  1.00  0.00     0.080 C 
BRANCH  44  45
HETATM   45  C18 UNL     1      17.922  25.818   8.967  1.00  0.00    -0.016 C 
HETATM   46  C19 UNL     1      16.971  25.013   8.126  1.00  0.00     0.010 C 
HETATM   47  C20 UNL     1      19.368  25.534   8.607  1.00  0.00     0.010 C 
ENDBRANCH  44  45
ENDBRANCH   4  44
TORSDOF 16
ENDMDL
MODEL 4
REMARK VINA RESULT: -8.557928696      2.453     10.430
REMARK  16 active torsions:
REMARK  status: ('A' for Active; 'I' for Inactive)
REMARK    1  A    between atoms: C2_2  and  C3_3 
REMARK    2  A    between atoms: N2_9  and  C7_10 
REMARK    3  A    between atoms: C7_10  and  C8_11 
REMARK       I    between atoms: N3_15  and  C12_16 
REMARK    4  A    between atoms: C12_16  and  C13_18 
REMARK    5  A    between atoms: C13_18  and  C14_19 
REMARK    6  A    between atoms: C14_19  and  C15_20 
REMARK    7  A    between atoms: C16_23  and  C17_24 
REMARK    8  A    between atoms: C17_24  and  C18_25 
REMARK    9  A    between atoms: C21_30  and  O2_31 
REMARK   10  A    between atoms: O2_31  and  C22_32 
REMARK   11  A    between atoms: C22_32  and  C23_33 
REMARK   12  A    between atoms: C23_33  and  O3_34 
REMARK   13  A    between atoms: C23_33  and  C24_36 
REMARK   14  A    between atoms: C24_36  and  N6_37 
REMARK       I    between atoms: N6_37  and  C25_39 
REMARK   15  A    between atoms: C25_39  and  C26_41 
REMARK   16  A    between atoms: C26_41  and  C27_42 
ROOT
HETATM    1  C15 UNL     1      18.185  32.570  14.506  1.00  0.00     0.062 A 
HETATM    2  N4  UNL     1      19.530  32.794  14.532  1.00  0.00    -0.346 N 
ATOM      3  H4  UNL     1      20.234  32.187  14.111  1.00  0.00     0.167 HD
HETATM    4  C16 UNL     1      19.789  33.933  15.194  1.00  0.00     0.083 A 
HETATM    5  N5  UNL     1      18.636  34.451  15.599  1.00  0.00    -0.325 N 
ATOM      6  H5  UNL     1      18.526  35.316  16.127  1.00  0.00     0.169 HD
HETATM    7  C21 UNL     1      17.615  33.624  15.186  1.00  0.00     0.167 A 
ENDROOT
BRANCH   1   8
HETATM    8  C14 UNL     1      17.556  31.433  13.812  1.00  0.00     0.071 C 
BRANCH   8   9
HETATM    9  C13 UNL     1      18.131  30.087  14.128  1.00  0.00     0.109 C 
BRANCH   9  10
HETATM   10  C12 UNL     1      19.050  29.504  13.137  1.00  0.00     0.220 C 
HETATM   11  N3  UNL     1      20.287  28.953  13.435  1.00  0.00    -0.346 N 
HETATM   12  C8  UNL     1      21.298  28.300  12.665  1.00  0.00     0.105 C 
HETATM   13  C11 UNL     1      20.932  29.034  14.759  1.00  0.00     0.126 C 
HETATM   14  C9  UNL     1      22.339  29.484  12.810  1.00  0.00     0.028 C 
HETATM   15  C10 UNL     1      22.221  29.760  14.295  1.00  0.00     0.022 C 
HETATM   16  O1  UNL     1      18.613  29.533  11.931  1.00  0.00    -0.273 OA
BRANCH  12  17
HETATM   17  C7  UNL     1      21.060  28.019  11.255  1.00  0.00     0.150 C 
BRANCH  17  18
HETATM   18  N2  UNL     1      20.611  26.711  10.906  1.00  0.00    -0.363 N 
HETATM   19  C3  UNL     1      21.414  25.457  11.065  1.00  0.00     0.103 C 
HETATM   20  C4  UNL     1      20.327  24.587  11.667  1.00  0.00     0.146 C 
HETATM   21  N1  UNL     1      19.185  24.984  10.889  1.00  0.00    -0.378 N 
HETATM   22  C5  UNL     1      19.362  26.224  10.439  1.00  0.00     0.071 C 
ATOM     23  H1  UNL     1      18.364  24.404  10.710  1.00  0.00     0.160 HD
HETATM   24  C6  UNL     1      18.357  26.918   9.604  1.00  0.00     0.088 C 
BRANCH  19  25
HETATM   25  C2  UNL     1      21.736  25.005   9.656  1.00  0.00     0.022 C 
HETATM   26  C1  UNL     1      23.227  25.012   9.368  1.00  0.00     0.007 C 
ENDBRANCH  19  25
ENDBRANCH  17  18
ENDBRANCH  12  17
ENDBRANCH   9  10
ENDBRANCH   8   9
ENDBRANCH   1   8
BRANCH   7  27
HETATM   27  O2  UNL     1      16.329  33.837  15.423  1.00  0.00    -0.332 OA
BRANCH  27  28
HETATM   28  C22 UNL     1      15.260  33.552  16.163  1.00  0.00     0.210 C 
BRANCH  28  29
HETATM   29  C23 UNL     1      14.903  34.502  17.298  1.00  0.00     0.160 C 
BRANCH  29  30
HETATM   30  O3  UNL     1      15.271  34.084  18.530  1.00  0.00    -0.392 OA
ATOM     31  H3  UNL     1      15.415  34.778  19.162  1.00  0.00     0.210 HD
ENDBRANCH  29  30
BRANCH  29  32
HETATM   32  C24 UNL     1      15.302  35.880  16.957  1.00  0.00     0.156 C 
BRANCH  32  33
HETATM   33  N6  UNL     1      16.430  36.394  17.648  1.00  0.00    -0.359 N 
HETATM   34  C25 UNL     1      17.234  37.504  17.360  1.00  0.00     0.217 C 
HETATM   35  O4  UNL     1      17.048  38.245  16.374  1.00  0.00    -0.274 OA
ATOM     36  H6  UNL     1      16.697  35.874  18.484  1.00  0.00     0.162 HD
BRANCH  34  37
HETATM   37  C26 UNL     1      18.381  37.836  18.268  1.00  0.00     0.107 C 
BRANCH  37  38
HETATM   38  C27 UNL     1      19.596  37.013  18.011  1.00  0.00    -0.006 C 
HETATM   39  C28 UNL     1      20.812  37.916  18.157  1.00  0.00     0.005 C 
HETATM   40  C29 UNL     1      22.057  37.193  17.764  1.00  0.00     0.000 C 
HETATM   41  C30 UNL     1      22.230  35.943  18.545  1.00  0.00     0.000 C 
HETATM   42  C31 UNL     1      21.082  35.532  19.405  1.00  0.00     0.000 C 
HETATM   43  C32 UNL     1      19.725  35.774  18.828  1.00  0.00     0.005 C 
ENDBRANCH  37  38
ENDBRANCH  34  37
ENDBRANCH  32  33
ENDBRANCH  29  32
ENDBRANCH  28  29
ENDBRANCH  27  28
ENDBRANCH   7  27
BRANCH   4  44
HETATM   44  C17 UNL     1      21.173  34.474  15.390  1.00  0.00     0.080 C 
BRANCH  44  45
HETATM   45  C18 UNL     1      22.237  33.413  15.238  1.00  0.00    -0.016 C 
HETATM   46  C19 UNL     1      22.650  32.834  16.563  1.00  0.00     0.010 C 
HETATM   47  C20 UNL     1      23.412  34.033  14.505  1.00  0.00     0.010 C 
ENDBRANCH  44  45
ENDBRANCH   4  44
TORSDOF 16
ENDMDL
MODEL 5
REMARK VINA RESULT: -8.553841548      2.314      4.606
REMARK  16 active torsions:
REMARK  status: ('A' for Active; 'I' for Inactive)
REMARK    1  A    between atoms: C2_2  and  C3_3 
REMARK    2  A    between atoms: N2_9  and  C7_10 
REMARK    3  A    between atoms: C7_10  and  C8_11 
REMARK       I    between atoms: N3_15  and  C12_16 
REMARK    4  A    between atoms: C12_16  and  C13_18 
REMARK    5  A    between atoms: C13_18  and  C14_19 
REMARK    6  A    between atoms: C14_19  and  C15_20 
REMARK    7  A    between atoms: C16_23  and  C17_24 
REMARK    8  A    between atoms: C17_24  and  C18_25 
REMARK    9  A    between atoms: C21_30  and  O2_31 
REMARK   10  A    between atoms: O2_31  and  C22_32 
REMARK   11  A    between atoms: C22_32  and  C23_33 
REMARK   12  A    between atoms: C23_33  and  O3_34 
REMARK   13  A    between atoms: C23_33  and  C24_36 
REMARK   14  A    between atoms: C24_36  and  N6_37 
REMARK       I    between atoms: N6_37  and  C25_39 
REMARK   15  A    between atoms: C25_39  and  C26_41 
REMARK   16  A    between atoms: C26_41  and  C27_42 
ROOT
HETATM    1  C15 UNL     1      21.524  28.918  11.764  1.00  0.00     0.062 A 
HETATM    2  N4  UNL     1      22.387  28.143  11.047  1.00  0.00    -0.346 N 
ATOM      3  H4  UNL     1      23.034  28.488  10.337  1.00  0.00     0.167 HD
HETATM    4  C16 UNL     1      22.260  26.859  11.417  1.00  0.00     0.083 A 
HETATM    5  N5  UNL     1      21.328  26.787  12.360  1.00  0.00    -0.325 N 
ATOM      6  H5  UNL     1      21.020  25.935  12.828  1.00  0.00     0.169 HD
HETATM    7  C21 UNL     1      20.848  28.056  12.599  1.00  0.00     0.167 A 
ENDROOT
BRANCH   1   8
HETATM    8  C14 UNL     1      21.444  30.384  11.642  1.00  0.00     0.071 C 
BRANCH   8   9
HETATM    9  C13 UNL     1      21.681  31.149  12.907  1.00  0.00     0.109 C 
BRANCH   9  10
HETATM   10  C12 UNL     1      20.518  31.822  13.508  1.00  0.00     0.220 C 
HETATM   11  N3  UNL     1      20.297  31.950  14.871  1.00  0.00    -0.346 N 
HETATM   12  C8  UNL     1      19.293  32.590  15.661  1.00  0.00     0.105 C 
HETATM   13  C11 UNL     1      21.102  31.277  15.907  1.00  0.00     0.126 C 
HETATM   14  C9  UNL     1      18.674  31.231  16.187  1.00  0.00     0.028 C 
HETATM   15  C10 UNL     1      19.940  30.492  16.568  1.00  0.00     0.022 C 
HETATM   16  O1  UNL     1      19.691  32.308  12.657  1.00  0.00    -0.273 OA
BRANCH  12  17
HETATM   17  C7  UNL     1      18.262  33.385  15.008  1.00  0.00     0.150 C 
BRANCH  17  18
HETATM   18  N2  UNL     1      17.275  33.999  15.835  1.00  0.00    -0.363 N 
HETATM   19  C3  UNL     1      17.450  35.298  16.561  1.00  0.00     0.103 C 
HETATM   20  C4  UNL     1      16.109  35.915  16.214  1.00  0.00     0.146 C 
HETATM   21  N1  UNL     1      15.235  34.779  16.336  1.00  0.00    -0.378 N 
HETATM   22  C5  UNL     1      15.927  33.662  16.122  1.00  0.00     0.071 C 
ATOM     23  H1  UNL     1      14.239  34.823  16.552  1.00  0.00     0.160 HD
HETATM   24  C6  UNL     1      15.305  32.320  16.178  1.00  0.00     0.088 C 
BRANCH  19  25
HETATM   25  C2  UNL     1      17.501  34.931  18.030  1.00  0.00     0.022 C 
HETATM   26  C1  UNL     1      18.870  35.175  18.644  1.00  0.00     0.007 C 
ENDBRANCH  19  25
ENDBRANCH  17  18
ENDBRANCH  12  17
ENDBRANCH   9  10
ENDBRANCH   8   9
ENDBRANCH   1   8
BRANCH   7  27
HETATM   27  O2  UNL     1      19.903  28.352  13.479  1.00  0.00    -0.332 OA
BRANCH  27  28
HETATM   28  C22 UNL     1      18.602  28.443  13.743  1.00  0.00     0.210 C 
BRANCH  28  29
HETATM   29  C23 UNL     1      17.672  28.877  12.618  1.00  0.00     0.160 C 
BRANCH  29  30
HETATM   30  O3  UNL     1      18.085  29.958  11.921  1.00  0.00    -0.392 OA
ATOM     31  H3  UNL     1      17.514  30.715  11.979  1.00  0.00     0.210 HD
ENDBRANCH  29  30
BRANCH  29  32
HETATM   32  C24 UNL     1      17.282  27.713  11.800  1.00  0.00     0.156 C 
BRANCH  32  33
HETATM   33  N6  UNL     1      18.251  27.246  10.874  1.00  0.00    -0.359 N 
HETATM   34  C25 UNL     1      18.391  25.988  10.275  1.00  0.00     0.217 C 
HETATM   35  O4  UNL     1      17.620  25.034  10.499  1.00  0.00    -0.274 OA
ATOM     36  H6  UNL     1      18.954  27.933  10.602  1.00  0.00     0.162 HD
BRANCH  34  37
HETATM   37  C26 UNL     1      19.519  25.754   9.314  1.00  0.00     0.107 C 
BRANCH  37  38
HETATM   38  C27 UNL     1      19.064  25.529   7.912  1.00  0.00    -0.006 C 
HETATM   39  C28 UNL     1      18.369  26.797   7.437  1.00  0.00     0.005 C 
HETATM   40  C29 UNL     1      17.754  26.591   6.094  1.00  0.00     0.000 C 
HETATM   41  C30 UNL     1      18.757  26.133   5.100  1.00  0.00     0.000 C 
HETATM   42  C31 UNL     1      20.105  25.776   5.632  1.00  0.00     0.000 C 
HETATM   43  C32 UNL     1      20.113  25.079   6.955  1.00  0.00     0.005 C 
ENDBRANCH  37  38
ENDBRANCH  34  37
ENDBRANCH  32  33
ENDBRANCH  29  32
ENDBRANCH  28  29
ENDBRANCH  27  28
ENDBRANCH   7  27
BRANCH   4  44
HETATM   44  C17 UNL     1      23.078  25.748  10.830  1.00  0.00     0.080 C 
BRANCH  44  45
HETATM   45  C18 UNL     1      23.999  26.225   9.733  1.00  0.00    -0.016 C 
HETATM   46  C19 UNL     1      23.992  25.300   8.548  1.00  0.00     0.010 C 
HETATM   47  C20 UNL     1      25.390  26.371  10.323  1.00  0.00     0.010 C 
ENDBRANCH  44  45
ENDBRANCH   4  44
TORSDOF 16
ENDMDL
