MODEL 1
REMARK VINA RESULT: -8.160867517      0.000      0.000
REMARK  13 active torsions:
REMARK  status: ('A' for Active; 'I' for Inactive)
REMARK    1  A    between atoms: C2_2  and  C3_3 
REMARK    2  A    between atoms: C3_3  and  O1_4 
REMARK    3  A    between atoms: O1_4  and  C4_5 
REMARK    4  A    between atoms: C4_5  and  C5_6 
REMARK    5  A    between atoms: C5_6  and  N1_7 
REMARK    6  A    between atoms: C16_20  and  N2_21 
REMARK       I    between atoms: N2_21  and  C17_23 
REMARK    7  A    between atoms: C17_23  and  C18_25 
REMARK    8  A    between atoms: C18_25  and  C19_26 
REMARK    9  A    between atoms: C18_25  and  C24_31 
REMARK   10  A    between atoms: C20_27  and  C22_29 
REMARK   11  A    between atoms: C24_31  and  C25_32 
REMARK   12  A    between atoms: C25_32  and  S1_33 
REMARK   13  A    between atoms: S1_33  and  C26_34 
ROOT
HETATM    1  N1  UNL     1      20.896  34.799  16.585  1.00  0.00    -0.350 N 
HETATM    2  C6  UNL     1      19.703  35.392  17.137  1.00  0.00     0.135 C 
HETATM    3  C7  UNL     1      19.328  34.853  18.496  1.00  0.00     0.131 C 
HETATM    4  C8  UNL     1      18.339  35.796  19.120  1.00  0.00     0.260 C 
HETATM    5  O2  UNL     1      18.849  36.820  19.648  1.00  0.00    -0.265 OA
HETATM    6  O3  UNL     1      17.004  35.489  19.073  1.00  0.00    -0.321 OA
HETATM    7  C9  UNL     1      16.143  35.395  17.991  1.00  0.00     0.178 C 
HETATM    8  C10 UNL     1      15.422  34.040  17.929  1.00  0.00     0.027 C 
HETATM    9  C11 UNL     1      14.797  33.900  16.588  1.00  0.00     0.002 C 
HETATM   10  C12 UNL     1      15.377  32.825  15.707  1.00  0.00     0.000 C 
HETATM   11  C13 UNL     1      16.841  32.593  15.955  1.00  0.00     0.000 C 
HETATM   12  C14 UNL     1      17.558  31.887  14.839  1.00  0.00     0.002 C 
HETATM   13  C15 UNL     1      18.694  32.741  14.364  1.00  0.00     0.026 C 
HETATM   14  C16 UNL     1      20.057  32.243  14.695  1.00  0.00     0.093 C 
HETATM   15  C27 UNL     1      20.301  32.315  16.175  1.00  0.00     0.128 C 
HETATM   16  C28 UNL     1      21.214  33.429  16.541  1.00  0.00     0.221 C 
HETATM   17  O5  UNL     1      22.412  33.088  16.845  1.00  0.00    -0.273 OA
ENDROOT
BRANCH  14  18
HETATM   18  N2  UNL     1      20.269  30.951  14.100  1.00  0.00    -0.355 N 
HETATM   19  C17 UNL     1      20.614  30.801  12.706  1.00  0.00     0.225 C 
HETATM   20  O4  UNL     1      20.726  31.879  12.082  1.00  0.00    -0.273 OA
ATOM     21  H2  UNL     1      20.172  30.117  14.679  1.00  0.00     0.162 HD
BRANCH  19  22
HETATM   22  C18 UNL     1      20.807  29.509  12.078  1.00  0.00     0.101 C 
BRANCH  22  23
HETATM   23  C19 UNL     1      19.801  28.463  12.215  1.00  0.00    -0.010 C 
HETATM   24  C20 UNL     1      18.516  28.404  12.199  1.00  0.00    -0.087 C 
HETATM   25  C21 UNL     1      17.873  27.029  12.387  1.00  0.00     0.043 C 
BRANCH  24  26
HETATM   26  C22 UNL     1      17.541  29.494  12.079  1.00  0.00     0.029 C 
HETATM   27  C23 UNL     1      16.627  29.215  10.874  1.00  0.00     0.010 C 
ENDBRANCH  24  26
ENDBRANCH  22  23
BRANCH  22  28
HETATM   28  C24 UNL     1      22.157  28.869  12.331  1.00  0.00     0.028 C 
BRANCH  28  29
HETATM   29  C25 UNL     1      22.818  28.289  11.133  1.00  0.00     0.083 C 
BRANCH  29  30
HETATM   30  S1  UNL     1      23.237  26.519  11.415  1.00  0.00    -0.098 SA
BRANCH  30  31
HETATM   31  C26 UNL     1      21.779  25.582  10.965  1.00  0.00     0.147 C 
HETATM   32  N3  UNL     1      21.011  25.151  11.908  1.00  0.00    -0.382 N 
ATOM     33  H32 UNL     1      21.266  25.360  12.874  1.00  0.00     0.157 HD
ATOM     34  H31 UNL     1      20.180  24.617  11.652  1.00  0.00     0.157 HD
HETATM   35  N4  UNL     1      21.426  25.293   9.627  1.00  0.00    -0.075 NA
ENDBRANCH  30  31
ENDBRANCH  29  30
ENDBRANCH  28  29
ENDBRANCH  22  28
ENDBRANCH  19  22
ENDBRANCH  14  18
BRANCH   1  36
HETATM   36  C5  UNL     1      21.867  35.754  16.013  1.00  0.00     0.152 C 
BRANCH  36  37
HETATM   37  C4  UNL     1      21.851  37.050  16.751  1.00  0.00     0.187 C 
BRANCH  37  38
HETATM   38  O1  UNL     1      22.857  37.049  17.746  1.00  0.00    -0.390 OA
BRANCH  38  39
HETATM   39  C3  UNL     1      22.268  37.344  18.978  1.00  0.00     0.167 C 
BRANCH  39  40
HETATM   40  C2  UNL     1      22.337  36.141  19.871  1.00  0.00     0.022 C 
HETATM   41  C1  UNL     1      23.323  36.449  20.997  1.00  0.00     0.007 C 
ENDBRANCH  39  40
ENDBRANCH  38  39
ENDBRANCH  37  38
ENDBRANCH  36  37
ENDBRANCH   1  36
TORSDOF 13
ENDMDL
MODEL 2
REMARK VINA RESULT: -8.039536880      3.829     10.602
REMARK  13 active torsions:
REMARK  status: ('A' for Active; 'I' for Inactive)
REMARK    1  A    between atoms: C2_2  and  C3_3 
REMARK    2  A    between atoms: C3_3  and  O1_4 
REMARK    3  A    between atoms: O1_4  and  C4_5 
REMARK    4  A    between atoms: C4_5  and  C5_6 
REMARK    5  A    between atoms: C5_6  and  N1_7 
REMARK    6  A    between atoms: C16_20  and  N2_21 
REMARK       I    between atoms: N2_21  and  C17_23 
REMARK    7  A    between atoms: C17_23  and  C18_25 
REMARK    8  A    between atoms: C18_25  and  C19_26 
REMARK    9  A    between atoms: C18_25  and  C24_31 
REMARK   10  A    between atoms: C20_27  and  C22_29 
REMARK   11  A    between atoms: C24_31  and  C25_32 
REMARK   12  A    between atoms: C25_32  and  S1_33 
REMARK   13  A    between atoms: S1_33  and  C26_34 
ROOT
HETATM    1  N1  UNL     1      19.037  27.653  10.251  1.00  0.00    -0.350 N 
HETATM    2  C6  UNL     1      20.235  27.055   9.714  1.00  0.00     0.135 C 
HETATM    3  C7  UNL     1      20.590  25.731  10.344  1.00  0.00     0.131 C 
HETATM    4  C8  UNL     1      21.589  25.041   9.459  1.00  0.00     0.260 C 
HETATM    5  O2  UNL     1      21.091  24.453   8.463  1.00  0.00    -0.265 OA
HETATM    6  O3  UNL     1      22.919  25.098   9.785  1.00  0.00    -0.321 OA
HETATM    7  C9  UNL     1      23.787  26.177   9.824  1.00  0.00     0.178 C 
HETATM    8  C10 UNL     1      24.487  26.319  11.184  1.00  0.00     0.027 C 
HETATM    9  C11 UNL     1      25.121  27.662  11.248  1.00  0.00     0.002 C 
HETATM   10  C12 UNL     1      24.532  28.614  12.255  1.00  0.00     0.000 C 
HETATM   11  C13 UNL     1      23.062  28.392  12.479  1.00  0.00     0.000 C 
HETATM   12  C14 UNL     1      22.344  29.556  13.100  1.00  0.00     0.002 C 
HETATM   13  C15 UNL     1      21.226  29.984  12.199  1.00  0.00     0.026 C 
HETATM   14  C16 UNL     1      19.852  29.696  12.695  1.00  0.00     0.093 C 
HETATM   15  C27 UNL     1      19.596  28.216  12.713  1.00  0.00     0.128 C 
HETATM   16  C28 UNL     1      18.698  27.787  11.610  1.00  0.00     0.221 C 
HETATM   17  O5  UNL     1      17.492  27.514  11.950  1.00  0.00    -0.273 OA
ENDROOT
BRANCH  14  18
HETATM   18  N2  UNL     1      19.625  30.374  13.943  1.00  0.00    -0.355 N 
HETATM   19  C17 UNL     1      18.407  31.103  14.203  1.00  0.00     0.225 C 
HETATM   20  O4  UNL     1      17.577  31.075  13.267  1.00  0.00    -0.273 OA
ATOM     21  H2  UNL     1      20.345  30.339  14.664  1.00  0.00     0.162 HD
BRANCH  19  22
HETATM   22  C18 UNL     1      18.166  31.815  15.443  1.00  0.00     0.101 C 
BRANCH  22  23
HETATM   23  C19 UNL     1      17.622  33.167  15.424  1.00  0.00    -0.010 C 
HETATM   24  C20 UNL     1      16.626  33.774  15.968  1.00  0.00    -0.087 C 
HETATM   25  C21 UNL     1      16.449  35.259  15.646  1.00  0.00     0.043 C 
BRANCH  24  26
HETATM   26  C22 UNL     1      15.572  33.232  16.832  1.00  0.00     0.029 C 
HETATM   27  C23 UNL     1      15.295  34.233  17.967  1.00  0.00     0.010 C 
ENDBRANCH  24  26
ENDBRANCH  22  23
BRANCH  22  28
HETATM   28  C24 UNL     1      19.323  31.810  16.420  1.00  0.00     0.028 C 
BRANCH  28  29
HETATM   29  C25 UNL     1      20.173  33.029  16.403  1.00  0.00     0.083 C 
BRANCH  29  30
HETATM   30  S1  UNL     1      21.954  32.582  16.529  1.00  0.00    -0.098 SA
BRANCH  30  31
HETATM   31  C26 UNL     1      22.656  32.860  14.906  1.00  0.00     0.147 C 
HETATM   32  N3  UNL     1      23.938  32.957  14.800  1.00  0.00    -0.382 N 
ATOM     33  H32 UNL     1      24.502  32.874  15.646  1.00  0.00     0.157 HD
ATOM     34  H31 UNL     1      24.338  33.116  13.874  1.00  0.00     0.157 HD
HETATM   35  N4  UNL     1      21.875  32.976  13.733  1.00  0.00    -0.075 NA
ENDBRANCH  30  31
ENDBRANCH  29  30
ENDBRANCH  28  29
ENDBRANCH  22  28
ENDBRANCH  19  22
ENDBRANCH  14  18
BRANCH   1  36
HETATM   36  C5  UNL     1      18.087  28.170   9.246  1.00  0.00     0.152 C 
BRANCH  36  37
HETATM   37  C4  UNL     1      18.116  27.350   8.000  1.00  0.00     0.187 C 
BRANCH  37  38
HETATM   38  O1  UNL     1      18.468  28.165   6.898  1.00  0.00    -0.390 OA
BRANCH  38  39
HETATM   39  C3  UNL     1      18.693  27.344   5.789  1.00  0.00     0.167 C 
BRANCH  39  40
HETATM   40  C2  UNL     1      17.673  27.639   4.729  1.00  0.00     0.022 C 
HETATM   41  C1  UNL     1      17.363  29.135   4.781  1.00  0.00     0.007 C 
ENDBRANCH  39  40
ENDBRANCH  38  39
ENDBRANCH  37  38
ENDBRANCH  36  37
ENDBRANCH   1  36
TORSDOF 13
ENDMDL
MODEL 3
REMARK VINA RESULT: -8.024591512      3.858     10.985
REMARK  13 active torsions:
REMARK  status: ('A' for Active; 'I' for Inactive)
REMARK    1  A    between atoms: C2_2  and  C3_3 
REMARK    2  A    between atoms: C3_3  and  O1_4 
REMARK    3  A    between atoms: O1_4  and  C4_5 
REMARK    4  A    between atoms: C4_5  and  C5_6 
REMARK    5  A    between atoms: C5_6  and  N1_7 
REMARK    6  A    between atoms: C16_20  and  N2_21 
REMARK       I    between atoms: N2_21  and  C17_23 
REMARK    7  A    between atoms: C17_23  and  C18_25 
REMARK    8  A    between atoms: C18_25  and  C19_26 
REMARK    9  A    between atoms: C18_25  and  C24_31 
REMARK   10  A    between atoms: C20_27  and  C22_29 
REMARK   11  A    between atoms: C24_31  and  C25_32 
REMARK   12  A    between atoms: C25_32  and  S1_33 
REMARK   13  A    between atoms: S1_33  and  C26_34 
ROOT
HETATM    1  N1  UNL     1      19.016  27.693  10.438  1.00  0.00    -0.350 N 
HETATM    2  C6  UNL     1      20.197  27.117   9.845  1.00  0.00     0.135 C 
HETATM    3  C7  UNL     1      20.573  25.773  10.419  1.00  0.00     0.131 C 
HETATM    4  C8  UNL     1      21.546  25.116   9.481  1.00  0.00     0.260 C 
HETATM    5  O2  UNL     1      21.018  24.560   8.481  1.00  0.00    -0.265 OA
HETATM    6  O3  UNL     1      22.884  25.165   9.767  1.00  0.00    -0.321 OA
HETATM    7  C9  UNL     1      23.752  26.245   9.816  1.00  0.00     0.178 C 
HETATM    8  C10 UNL     1      24.494  26.343  11.157  1.00  0.00     0.027 C 
HETATM    9  C11 UNL     1      25.127  27.684  11.248  1.00  0.00     0.002 C 
HETATM   10  C12 UNL     1      24.568  28.600  12.304  1.00  0.00     0.000 C 
HETATM   11  C13 UNL     1      23.106  28.367  12.565  1.00  0.00     0.000 C 
HETATM   12  C14 UNL     1      22.405  29.507  13.248  1.00  0.00     0.002 C 
HETATM   13  C15 UNL     1      21.259  29.963  12.397  1.00  0.00     0.026 C 
HETATM   14  C16 UNL     1      19.903  29.655  12.925  1.00  0.00     0.093 C 
HETATM   15  C27 UNL     1      19.649  28.174  12.901  1.00  0.00     0.128 C 
HETATM   16  C28 UNL     1      18.718  27.780  11.811  1.00  0.00     0.221 C 
HETATM   17  O5  UNL     1      17.524  27.492  12.179  1.00  0.00    -0.273 OA
ENDROOT
BRANCH  14  18
HETATM   18  N2  UNL     1      19.713  30.289  14.201  1.00  0.00    -0.355 N 
HETATM   19  C17 UNL     1      19.354  31.683  14.314  1.00  0.00     0.225 C 
HETATM   20  O4  UNL     1      19.209  32.270  13.219  1.00  0.00    -0.273 OA
ATOM     21  H2  UNL     1      19.836  29.739  15.051  1.00  0.00     0.162 HD
BRANCH  19  22
HETATM   22  C18 UNL     1      19.182  32.350  15.589  1.00  0.00     0.101 C 
BRANCH  22  23
HETATM   23  C19 UNL     1      20.338  32.661  16.421  1.00  0.00    -0.010 C 
HETATM   24  C20 UNL     1      21.528  33.109  16.227  1.00  0.00    -0.087 C 
HETATM   25  C21 UNL     1      22.422  33.285  17.456  1.00  0.00     0.043 C 
BRANCH  24  26
HETATM   26  C22 UNL     1      22.197  33.438  14.964  1.00  0.00     0.029 C 
HETATM   27  C23 UNL     1      23.544  32.696  14.905  1.00  0.00     0.010 C 
ENDBRANCH  24  26
ENDBRANCH  22  23
BRANCH  22  28
HETATM   28  C24 UNL     1      18.128  31.744  16.493  1.00  0.00     0.028 C 
BRANCH  28  29
HETATM   29  C25 UNL     1      16.723  32.080  16.141  1.00  0.00     0.083 C 
BRANCH  29  30
HETATM   30  S1  UNL     1      16.481  33.905  16.107  1.00  0.00    -0.098 SA
BRANCH  30  31
HETATM   31  C26 UNL     1      16.611  34.458  17.804  1.00  0.00     0.147 C 
HETATM   32  N3  UNL     1      17.769  34.818  18.246  1.00  0.00    -0.382 N 
ATOM     33  H32 UNL     1      18.566  34.771  17.610  1.00  0.00     0.157 HD
ATOM     34  H31 UNL     1      17.843  35.133  19.214  1.00  0.00     0.157 HD
HETATM   35  N4  UNL     1      15.507  34.524  18.685  1.00  0.00    -0.075 NA
ENDBRANCH  30  31
ENDBRANCH  29  30
ENDBRANCH  28  29
ENDBRANCH  22  28
ENDBRANCH  19  22
ENDBRANCH  14  18
BRANCH   1  36
HETATM   36  C5  UNL     1      18.034  28.241   9.482  1.00  0.00     0.152 C 
BRANCH  36  37
HETATM   37  C4  UNL     1      17.943  27.397   8.255  1.00  0.00     0.187 C 
BRANCH  37  38
HETATM   38  O1  UNL     1      18.292  28.164   7.118  1.00  0.00    -0.390 OA
BRANCH  38  39
HETATM   39  C3  UNL     1      18.690  27.296   6.098  1.00  0.00     0.167 C 
BRANCH  39  40
HETATM   40  C2  UNL     1      17.820  27.502   4.894  1.00  0.00     0.022 C 
HETATM   41  C1  UNL     1      17.446  28.983   4.834  1.00  0.00     0.007 C 
ENDBRANCH  39  40
ENDBRANCH  38  39
ENDBRANCH  37  38
ENDBRANCH  36  37
ENDBRANCH   1  36
TORSDOF 13
ENDMDL
MODEL 4
REMARK VINA RESULT: -7.851628689      1.303      2.605
REMARK  13 active torsions:
REMARK  status: ('A' for Active; 'I' for Inactive)
REMARK    1  A    between atoms: C2_2  and  C3_3 
REMARK    2  A    between atoms: C3_3  and  O1_4 
REMARK    3  A    between atoms: O1_4  and  C4_5 
REMARK    4  A    between atoms: C4_5  and  C5_6 
REMARK    5  A    between atoms: C5_6  and  N1_7 
REMARK    6  A    between atoms: C16_20  and  N2_21 
REMARK       I    between atoms: N2_21  and  C17_23 
REMARK    7  A    between atoms: C17_23  and  C18_25 
REMARK    8  A    between atoms: C18_25  and  C19_26 
REMARK    9  A    between atoms: C18_25  and  C24_31 
REMARK   10  A    between atoms: C20_27  and  C22_29 
REMARK   11  A    between atoms: C24_31  and  C25_32 
REMARK   12  A    between atoms: C25_32  and  S1_33 
REMARK   13  A    between atoms: S1_33  and  C26_34 
ROOT
HETATM    1  N1  UNL     1      20.908  34.800  16.658  1.00  0.00    -0.350 N 
HETATM    2  C6  UNL     1      19.681  35.394  17.129  1.00  0.00     0.135 C 
HETATM    3  C7  UNL     1      19.284  34.955  18.517  1.00  0.00     0.131 C 
HETATM    4  C8  UNL     1      18.247  35.912  19.035  1.00  0.00     0.260 C 
HETATM    5  O2  UNL     1      18.709  36.992  19.490  1.00  0.00    -0.265 OA
HETATM    6  O3  UNL     1      16.926  35.556  18.978  1.00  0.00    -0.321 OA
HETATM    7  C9  UNL     1      16.099  35.345  17.886  1.00  0.00     0.178 C 
HETATM    8  C10 UNL     1      15.424  33.965  17.917  1.00  0.00     0.027 C 
HETATM    9  C11 UNL     1      14.843  33.695  16.577  1.00  0.00     0.002 C 
HETATM   10  C12 UNL     1      15.482  32.573  15.803  1.00  0.00     0.000 C 
HETATM   11  C13 UNL     1      16.945  32.412  16.107  1.00  0.00     0.000 C 
HETATM   12  C14 UNL     1      17.716  31.642  15.072  1.00  0.00     0.002 C 
HETATM   13  C15 UNL     1      18.837  32.493  14.558  1.00  0.00     0.026 C 
HETATM   14  C16 UNL     1      20.205  32.071  14.964  1.00  0.00     0.093 C 
HETATM   15  C27 UNL     1      20.405  32.272  16.440  1.00  0.00     0.128 C 
HETATM   16  C28 UNL     1      21.271  33.443  16.736  1.00  0.00     0.221 C 
HETATM   17  O5  UNL     1      22.470  33.169  17.098  1.00  0.00    -0.273 OA
ENDROOT
BRANCH  14  18
HETATM   18  N2  UNL     1      20.476  30.743  14.483  1.00  0.00    -0.355 N 
HETATM   19  C17 UNL     1      21.151  30.509  13.229  1.00  0.00     0.225 C 
HETATM   20  O4  UNL     1      21.489  31.549  12.621  1.00  0.00    -0.273 OA
ATOM     21  H2  UNL     1      20.181  29.944  15.044  1.00  0.00     0.162 HD
BRANCH  19  22
HETATM   22  C18 UNL     1      21.412  29.180  12.712  1.00  0.00     0.101 C 
BRANCH  22  23
HETATM   23  C19 UNL     1      22.779  28.738  12.466  1.00  0.00    -0.010 C 
HETATM   24  C20 UNL     1      23.342  27.686  11.984  1.00  0.00    -0.087 C 
HETATM   25  C21 UNL     1      24.870  27.677  11.914  1.00  0.00     0.043 C 
BRANCH  24  26
HETATM   26  C22 UNL     1      22.727  26.435  11.529  1.00  0.00     0.029 C 
HETATM   27  C23 UNL     1      23.439  25.966  10.248  1.00  0.00     0.010 C 
ENDBRANCH  24  26
ENDBRANCH  22  23
BRANCH  22  28
HETATM   28  C24 UNL     1      20.588  28.790  11.502  1.00  0.00     0.028 C 
BRANCH  28  29
HETATM   29  C25 UNL     1      19.116  28.899  11.675  1.00  0.00     0.083 C 
BRANCH  29  30
HETATM   30  S1  UNL     1      18.235  28.039  10.306  1.00  0.00    -0.098 SA
BRANCH  30  31
HETATM   31  C26 UNL     1      19.113  26.503  10.034  1.00  0.00     0.147 C 
HETATM   32  N3  UNL     1      19.682  26.316   8.891  1.00  0.00    -0.382 N 
ATOM     33  H32 UNL     1      19.608  27.050   8.187  1.00  0.00     0.157 HD
ATOM     34  H31 UNL     1      20.182  25.440   8.736  1.00  0.00     0.157 HD
HETATM   35  N4  UNL     1      19.215  25.485  11.010  1.00  0.00    -0.075 NA
ENDBRANCH  30  31
ENDBRANCH  29  30
ENDBRANCH  28  29
ENDBRANCH  22  28
ENDBRANCH  19  22
ENDBRANCH  14  18
BRANCH   1  36
HETATM   36  C5  UNL     1      21.863  35.737  16.036  1.00  0.00     0.152 C 
BRANCH  36  37
HETATM   37  C4  UNL     1      21.820  37.074  16.696  1.00  0.00     0.187 C 
BRANCH  37  38
HETATM   38  O1  UNL     1      22.674  37.080  17.824  1.00  0.00    -0.390 OA
BRANCH  38  39
HETATM   39  C3  UNL     1      22.063  37.815  18.844  1.00  0.00     0.167 C 
BRANCH  39  40
HETATM   40  C2  UNL     1      22.625  37.398  20.171  1.00  0.00     0.022 C 
HETATM   41  C1  UNL     1      22.335  35.909  20.355  1.00  0.00     0.007 C 
ENDBRANCH  39  40
ENDBRANCH  38  39
ENDBRANCH  37  38
ENDBRANCH  36  37
ENDBRANCH   1  36
TORSDOF 13
ENDMDL
MODEL 5
REMARK VINA RESULT: -7.758391022      3.562     10.381
REMARK  13 active torsions:
REMARK  status: ('A' for Active; 'I' for Inactive)
REMARK    1  A    between atoms: C2_2  and  C3_3 
REMARK    2  A    between atoms: C3_3  and  O1_4 
REMARK    3  A    between atoms: O1_4  and  C4_5 
REMARK    4  A    between atoms: C4_5  and  C5_6 
REMARK    5  A    between atoms: C5_6  and  N1_7 
REMARK    6  A    between atoms: C16_20  and  N2_21 
REMARK       I    between atoms: N2_21  and  C17_23 
REMARK    7  A    between atoms: C17_23  and  C18_25 
REMARK    8  A    between atoms: C18_25  and  C19_26 
REMARK    9  A    between atoms: C18_25  and  C24_31 
REMARK   10  A    between atoms: C20_27  and  C22_29 
REMARK   11  A    between atoms: C24_31  and  C25_32 
REMARK   12  A    between atoms: C25_32  and  S1_33 
REMARK   13  A    between atoms: S1_33  and  C26_34 
ROOT
HETATM    1  N1  UNL     1      18.757  27.995  11.120  1.00  0.00    -0.350 N 
HETATM    2  C6  UNL     1      19.894  27.366  10.495  1.00  0.00     0.135 C 
HETATM    3  C7  UNL     1      20.280  26.046  11.118  1.00  0.00     0.131 C 
HETATM    4  C8  UNL     1      21.188  25.323  10.164  1.00  0.00     0.260 C 
HETATM    5  O2  UNL     1      20.597  24.727   9.225  1.00  0.00    -0.265 OA
HETATM    6  O3  UNL     1      22.542  25.362  10.374  1.00  0.00    -0.321 OA
HETATM    7  C9  UNL     1      23.428  26.426  10.318  1.00  0.00     0.178 C 
HETATM    8  C10 UNL     1      24.244  26.579  11.611  1.00  0.00     0.027 C 
HETATM    9  C11 UNL     1      24.903  27.911  11.595  1.00  0.00     0.002 C 
HETATM   10  C12 UNL     1      24.418  28.891  12.631  1.00  0.00     0.000 C 
HETATM   11  C13 UNL     1      22.969  28.700  12.983  1.00  0.00     0.000 C 
HETATM   12  C14 UNL     1      22.326  29.887  13.642  1.00  0.00     0.002 C 
HETATM   13  C15 UNL     1      21.142  30.319  12.831  1.00  0.00     0.026 C 
HETATM   14  C16 UNL     1      19.812  30.065  13.447  1.00  0.00     0.093 C 
HETATM   15  C27 UNL     1      19.534  28.590  13.516  1.00  0.00     0.128 C 
HETATM   16  C28 UNL     1      18.538  28.158  12.501  1.00  0.00     0.221 C 
HETATM   17  O5  UNL     1      17.361  27.913  12.948  1.00  0.00    -0.273 OA
ENDROOT
BRANCH  14  18
HETATM   18  N2  UNL     1      19.703  30.768  14.697  1.00  0.00    -0.355 N 
HETATM   19  C17 UNL     1      18.993  32.020  14.808  1.00  0.00     0.225 C 
HETATM   20  O4  UNL     1      18.477  32.418  13.740  1.00  0.00    -0.273 OA
ATOM     21  H2  UNL     1      20.140  30.371  15.528  1.00  0.00     0.162 HD
BRANCH  19  22
HETATM   22  C18 UNL     1      18.892  32.760  16.051  1.00  0.00     0.101 C 
BRANCH  22  23
HETATM   23  C19 UNL     1      17.596  32.964  16.685  1.00  0.00    -0.010 C 
HETATM   24  C20 UNL     1      16.566  33.705  16.474  1.00  0.00    -0.087 C 
HETATM   25  C21 UNL     1      15.390  33.565  17.442  1.00  0.00     0.043 C 
BRANCH  24  26
HETATM   26  C22 UNL     1      16.361  34.733  15.448  1.00  0.00     0.029 C 
HETATM   27  C23 UNL     1      16.371  36.117  16.119  1.00  0.00     0.010 C 
ENDBRANCH  24  26
ENDBRANCH  22  23
BRANCH  22  28
HETATM   28  C24 UNL     1      19.615  34.091  16.064  1.00  0.00     0.028 C 
BRANCH  28  29
HETATM   29  C25 UNL     1      20.013  34.582  17.409  1.00  0.00     0.083 C 
BRANCH  29  30
HETATM   30  S1  UNL     1      21.846  34.604  17.576  1.00  0.00    -0.098 SA
BRANCH  30  31
HETATM   31  C26 UNL     1      22.426  33.038  16.933  1.00  0.00     0.147 C 
HETATM   32  N3  UNL     1      22.119  31.960  17.573  1.00  0.00    -0.382 N 
ATOM     33  H32 UNL     1      21.559  32.043  18.422  1.00  0.00     0.157 HD
ATOM     34  H31 UNL     1      22.450  31.067  17.206  1.00  0.00     0.157 HD
HETATM   35  N4  UNL     1      23.201  32.921  15.756  1.00  0.00    -0.075 NA
ENDBRANCH  30  31
ENDBRANCH  29  30
ENDBRANCH  28  29
ENDBRANCH  22  28
ENDBRANCH  19  22
ENDBRANCH  14  18
BRANCH   1  36
HETATM   36  C5  UNL     1      17.733  28.511  10.191  1.00  0.00     0.152 C 
BRANCH  36  37
HETATM   37  C4  UNL     1      17.973  28.031   8.799  1.00  0.00     0.187 C 
BRANCH  37  38
HETATM   38  O1  UNL     1      17.395  26.751   8.626  1.00  0.00    -0.390 OA
BRANCH  38  39
HETATM   39  C3  UNL     1      17.853  26.213   7.420  1.00  0.00     0.167 C 
BRANCH  39  40
HETATM   40  C2  UNL     1      18.552  27.277   6.627  1.00  0.00     0.022 C 
HETATM   41  C1  UNL     1      19.357  26.587   5.525  1.00  0.00     0.007 C 
ENDBRANCH  39  40
ENDBRANCH  38  39
ENDBRANCH  37  38
ENDBRANCH  36  37
ENDBRANCH   1  36
TORSDOF 13
ENDMDL
