MODEL 1
REMARK VINA RESULT: -8.999358819      0.000      0.000
REMARK  13 active torsions:
REMARK  status: ('A' for Active; 'I' for Inactive)
REMARK    1  A    between atoms: O1_2  and  C2_3 
REMARK    2  A    between atoms: C2_3  and  C3_4 
REMARK    3  A    between atoms: C3_4  and  N1_5 
REMARK    4  A    between atoms: N1_5  and  C4_7 
REMARK    5  A    between atoms: C18_21  and  C19_22 
REMARK    6  A    between atoms: C19_22  and  C21_24 
REMARK    7  A    between atoms: C21_24  and  C22_25 
REMARK    8  A    between atoms: C24_27  and  O2_28 
REMARK    9  A    between atoms: C25_30  and  O3_31 
REMARK   10  A    between atoms: C26_33  and  O4_34 
REMARK   11  A    between atoms: O4_34  and  C27_35 
REMARK   12  A    between atoms: C27_35  and  O5_36 
REMARK   13  A    between atoms: C29_38  and  O6_39 
ROOT
HETATM    1  C4  UNL     1      20.963  28.038  12.160  1.00  0.00     0.077 C 
HETATM    2  C5  UNL     1      19.492  28.286  12.412  1.00  0.00     0.025 C 
HETATM    3  C6  UNL     1      19.289  28.874  13.766  1.00  0.00     0.012 C 
HETATM    4  C7  UNL     1      20.321  29.852  14.194  1.00  0.00    -0.036 C 
HETATM    5  C8  UNL     1      21.222  29.158  15.228  1.00  0.00     0.016 C 
HETATM    6  C9  UNL     1      21.218  30.353  13.118  1.00  0.00    -0.004 C 
HETATM    7  C10 UNL     1      20.645  31.408  12.228  1.00  0.00     0.006 C 
HETATM    8  C11 UNL     1      20.099  32.564  13.057  1.00  0.00     0.006 C 
HETATM    9  C12 UNL     1      19.016  31.936  13.949  1.00  0.00    -0.005 C 
HETATM   10  C13 UNL     1      19.739  31.053  14.914  1.00  0.00    -0.002 C 
HETATM   11  C14 UNL     1      18.908  30.650  16.084  1.00  0.00     0.006 C 
HETATM   12  C15 UNL     1      18.496  31.953  16.787  1.00  0.00     0.010 C 
HETATM   13  C16 UNL     1      17.541  32.648  15.869  1.00  0.00    -0.036 C 
HETATM   14  C17 UNL     1      16.189  31.943  15.781  1.00  0.00     0.016 C 
HETATM   15  C18 UNL     1      17.442  34.146  16.022  1.00  0.00    -0.002 C 
HETATM   16  C31 UNL     1      18.595  34.224  15.009  1.00  0.00     0.011 C 
HETATM   17  C32 UNL     1      18.071  32.900  14.498  1.00  0.00    -0.001 C 
HETATM   18  C33 UNL     1      21.808  29.255  12.260  1.00  0.00     0.030 C 
ENDROOT
BRANCH  15  19
HETATM   19  C19 UNL     1      17.774  34.716  17.354  1.00  0.00    -0.013 C 
HETATM   20  C20 UNL     1      16.564  34.792  18.251  1.00  0.00     0.010 C 
BRANCH  19  21
HETATM   21  C21 UNL     1      18.333  36.123  17.102  1.00  0.00     0.012 C 
BRANCH  21  22
HETATM   22  C22 UNL     1      19.594  36.363  17.913  1.00  0.00     0.020 C 
HETATM   23  C23 UNL     1      19.347  35.827  19.291  1.00  0.00     0.041 C 
HETATM   24  C24 UNL     1      20.572  35.651  20.118  1.00  0.00     0.150 C 
HETATM   25  C25 UNL     1      21.811  35.344  19.332  1.00  0.00     0.178 C 
HETATM   26  C26 UNL     1      21.399  34.619  18.077  1.00  0.00     0.184 C 
HETATM   27  C29 UNL     1      20.715  35.662  17.185  1.00  0.00     0.156 C 
BRANCH  24  28
HETATM   28  O2  UNL     1      20.345  34.543  20.966  1.00  0.00    -0.393 OA
ATOM     29  H2  UNL     1      20.240  33.781  20.408  1.00  0.00     0.210 HD
ENDBRANCH  24  28
BRANCH  25  30
HETATM   30  O3  UNL     1      22.473  36.527  19.074  1.00  0.00    -0.390 OA
ATOM     31  H3  UNL     1      22.655  36.575  18.143  1.00  0.00     0.210 HD
ENDBRANCH  25  30
BRANCH  26  32
HETATM   32  O4  UNL     1      22.545  34.234  17.412  1.00  0.00    -0.356 OA
BRANCH  32  33
HETATM   33  C27 UNL     1      22.447  32.998  16.797  1.00  0.00     0.337 C 
BRANCH  33  34
HETATM   34  O5  UNL     1      22.473  33.204  15.419  1.00  0.00    -0.372 OA
HETATM   35  C28 UNL     1      23.606  32.602  14.876  1.00  0.00     0.204 C 
ENDBRANCH  33  34
ENDBRANCH  32  33
ENDBRANCH  26  32
BRANCH  27  36
HETATM   36  O6  UNL     1      21.729  36.548  16.811  1.00  0.00    -0.388 OA
HETATM   37  C30 UNL     1      21.171  37.814  16.619  1.00  0.00     0.202 C 
ENDBRANCH  27  36
ENDBRANCH  21  22
ENDBRANCH  19  21
ENDBRANCH  15  19
BRANCH   1  38
HETATM   38  N1  UNL     1      21.134  27.328  10.920  1.00  0.00    -0.415 N 
ATOM     39  H1  UNL     1      20.848  27.722  10.024  1.00  0.00     0.153 HD
BRANCH  38  40
HETATM   40  C3  UNL     1      21.729  26.037  11.029  1.00  0.00     0.140 C 
BRANCH  40  41
HETATM   41  C2  UNL     1      23.180  26.112  10.542  1.00  0.00     0.186 C 
BRANCH  41  42
HETATM   42  O1  UNL     1      24.091  25.826  11.528  1.00  0.00    -0.394 OA
HETATM   43  C1  UNL     1      24.871  26.940  11.871  1.00  0.00     0.201 C 
ENDBRANCH  41  42
ENDBRANCH  40  41
ENDBRANCH  38  40
ENDBRANCH   1  38
TORSDOF 13
ENDMDL
MODEL 2
REMARK VINA RESULT: -8.915851361      1.501      2.616
REMARK  13 active torsions:
REMARK  status: ('A' for Active; 'I' for Inactive)
REMARK    1  A    between atoms: O1_2  and  C2_3 
REMARK    2  A    between atoms: C2_3  and  C3_4 
REMARK    3  A    between atoms: C3_4  and  N1_5 
REMARK    4  A    between atoms: N1_5  and  C4_7 
REMARK    5  A    between atoms: C18_21  and  C19_22 
REMARK    6  A    between atoms: C19_22  and  C21_24 
REMARK    7  A    between atoms: C21_24  and  C22_25 
REMARK    8  A    between atoms: C24_27  and  O2_28 
REMARK    9  A    between atoms: C25_30  and  O3_31 
REMARK   10  A    between atoms: C26_33  and  O4_34 
REMARK   11  A    between atoms: O4_34  and  C27_35 
REMARK   12  A    between atoms: C27_35  and  O5_36 
REMARK   13  A    between atoms: C29_38  and  O6_39 
ROOT
HETATM    1  C4  UNL     1      20.964  28.080  12.184  1.00  0.00     0.077 C 
HETATM    2  C5  UNL     1      19.471  28.323  12.233  1.00  0.00     0.025 C 
HETATM    3  C6  UNL     1      19.073  28.832  13.575  1.00  0.00     0.012 C 
HETATM    4  C7  UNL     1      20.030  29.777  14.204  1.00  0.00    -0.036 C 
HETATM    5  C8  UNL     1      20.772  29.020  15.316  1.00  0.00     0.016 C 
HETATM    6  C9  UNL     1      21.073  30.334  13.301  1.00  0.00    -0.004 C 
HETATM    7  C10 UNL     1      20.632  31.442  12.400  1.00  0.00     0.006 C 
HETATM    8  C11 UNL     1      19.969  32.552  13.206  1.00  0.00     0.006 C 
HETATM    9  C12 UNL     1      18.769  31.880  13.894  1.00  0.00    -0.005 C 
HETATM   10  C13 UNL     1      19.346  30.939  14.901  1.00  0.00    -0.002 C 
HETATM   11  C14 UNL     1      18.355  30.474  15.912  1.00  0.00     0.006 C 
HETATM   12  C15 UNL     1      17.842  31.737  16.623  1.00  0.00     0.010 C 
HETATM   13  C16 UNL     1      17.030  32.490  15.618  1.00  0.00    -0.036 C 
HETATM   14  C17 UNL     1      15.706  31.800  15.293  1.00  0.00     0.016 C 
HETATM   15  C18 UNL     1      16.906  33.977  15.842  1.00  0.00    -0.002 C 
HETATM   16  C31 UNL     1      18.194  34.106  15.012  1.00  0.00     0.011 C 
HETATM   17  C32 UNL     1      17.753  32.817  14.355  1.00  0.00    -0.001 C 
HETATM   18  C33 UNL     1      21.783  29.284  12.476  1.00  0.00     0.030 C 
ENDROOT
BRANCH  15  19
HETATM   19  C19 UNL     1      17.040  34.467  17.239  1.00  0.00    -0.013 C 
HETATM   20  C20 UNL     1      15.757  34.309  18.015  1.00  0.00     0.010 C 
BRANCH  19  21
HETATM   21  C21 UNL     1      17.422  35.951  17.148  1.00  0.00     0.012 C 
BRANCH  21  22
HETATM   22  C22 UNL     1      18.328  36.352  18.299  1.00  0.00     0.020 C 
HETATM   23  C23 UNL     1      19.274  35.215  18.540  1.00  0.00     0.041 C 
HETATM   24  C24 UNL     1      20.453  35.556  19.382  1.00  0.00     0.150 C 
HETATM   25  C25 UNL     1      20.901  36.982  19.272  1.00  0.00     0.178 C 
HETATM   26  C26 UNL     1      20.540  37.480  17.896  1.00  0.00     0.184 C 
HETATM   27  C29 UNL     1      19.013  37.631  17.883  1.00  0.00     0.156 C 
BRANCH  24  28
HETATM   28  O2  UNL     1      21.530  34.758  18.932  1.00  0.00    -0.393 OA
ATOM     29  H2  UNL     1      22.266  35.340  18.782  1.00  0.00     0.210 HD
ENDBRANCH  24  28
BRANCH  25  30
HETATM   30  O3  UNL     1      20.302  37.711  20.279  1.00  0.00    -0.390 OA
ATOM     31  H3  UNL     1      20.965  38.242  20.704  1.00  0.00     0.210 HD
ENDBRANCH  25  30
BRANCH  26  32
HETATM   32  O4  UNL     1      21.055  38.753  17.755  1.00  0.00    -0.356 OA
BRANCH  32  33
HETATM   33  C27 UNL     1      21.464  39.050  16.468  1.00  0.00     0.337 C 
BRANCH  33  34
HETATM   34  O5  UNL     1      20.655  40.080  15.990  1.00  0.00    -0.372 OA
HETATM   35  C28 UNL     1      20.697  41.157  16.873  1.00  0.00     0.204 C 
ENDBRANCH  33  34
ENDBRANCH  32  33
ENDBRANCH  26  32
BRANCH  27  36
HETATM   36  O6  UNL     1      18.740  38.681  18.765  1.00  0.00    -0.388 OA
HETATM   37  C30 UNL     1      17.664  39.418  18.264  1.00  0.00     0.202 C 
ENDBRANCH  27  36
ENDBRANCH  21  22
ENDBRANCH  19  21
ENDBRANCH  15  19
BRANCH   1  38
HETATM   38  N1  UNL     1      21.314  27.442  10.942  1.00  0.00    -0.415 N 
ATOM     39  H1  UNL     1      21.222  27.913  10.043  1.00  0.00     0.153 HD
BRANCH  38  40
HETATM   40  C3  UNL     1      21.800  26.105  11.055  1.00  0.00     0.140 C 
BRANCH  40  41
HETATM   41  C2  UNL     1      23.238  26.049  10.527  1.00  0.00     0.186 C 
BRANCH  41  42
HETATM   42  O1  UNL     1      24.162  25.811  11.513  1.00  0.00    -0.394 OA
HETATM   43  C1  UNL     1      24.857  26.971  11.883  1.00  0.00     0.201 C 
ENDBRANCH  41  42
ENDBRANCH  40  41
ENDBRANCH  38  40
ENDBRANCH   1  38
TORSDOF 13
ENDMDL
MODEL 3
REMARK VINA RESULT: -8.717739493      1.602      1.927
REMARK  13 active torsions:
REMARK  status: ('A' for Active; 'I' for Inactive)
REMARK    1  A    between atoms: O1_2  and  C2_3 
REMARK    2  A    between atoms: C2_3  and  C3_4 
REMARK    3  A    between atoms: C3_4  and  N1_5 
REMARK    4  A    between atoms: N1_5  and  C4_7 
REMARK    5  A    between atoms: C18_21  and  C19_22 
REMARK    6  A    between atoms: C19_22  and  C21_24 
REMARK    7  A    between atoms: C21_24  and  C22_25 
REMARK    8  A    between atoms: C24_27  and  O2_28 
REMARK    9  A    between atoms: C25_30  and  O3_31 
REMARK   10  A    between atoms: C26_33  and  O4_34 
REMARK   11  A    between atoms: O4_34  and  C27_35 
REMARK   12  A    between atoms: C27_35  and  O5_36 
REMARK   13  A    between atoms: C29_38  and  O6_39 
ROOT
HETATM    1  C4  UNL     1      20.087  28.020  12.108  1.00  0.00     0.077 C 
HETATM    2  C5  UNL     1      18.661  28.471  12.341  1.00  0.00     0.025 C 
HETATM    3  C6  UNL     1      18.513  29.035  13.711  1.00  0.00     0.012 C 
HETATM    4  C7  UNL     1      19.665  29.838  14.195  1.00  0.00    -0.036 C 
HETATM    5  C8  UNL     1      20.430  28.986  15.219  1.00  0.00     0.016 C 
HETATM    6  C9  UNL     1      20.651  30.239  13.155  1.00  0.00    -0.004 C 
HETATM    7  C10 UNL     1      20.258  31.396  12.295  1.00  0.00     0.006 C 
HETATM    8  C11 UNL     1      19.864  32.591  13.155  1.00  0.00     0.006 C 
HETATM    9  C12 UNL     1      18.681  32.097  14.003  1.00  0.00    -0.005 C 
HETATM   10  C13 UNL     1      19.245  31.086  14.948  1.00  0.00    -0.002 C 
HETATM   11  C14 UNL     1      18.336  30.769  16.086  1.00  0.00     0.006 C 
HETATM   12  C15 UNL     1      18.100  32.093  16.829  1.00  0.00     0.010 C 
HETATM   13  C16 UNL     1      17.278  32.950  15.919  1.00  0.00    -0.036 C 
HETATM   14  C17 UNL     1      15.841  32.452  15.779  1.00  0.00     0.016 C 
HETATM   15  C18 UNL     1      17.392  34.441  16.126  1.00  0.00    -0.002 C 
HETATM   16  C31 UNL     1      18.569  34.384  15.138  1.00  0.00     0.011 C 
HETATM   17  C32 UNL     1      17.872  33.168  14.569  1.00  0.00    -0.001 C 
HETATM   18  C33 UNL     1      21.096  29.097  12.269  1.00  0.00     0.030 C 
ENDROOT
BRANCH  15  19
HETATM   19  C19 UNL     1      17.771  34.910  17.484  1.00  0.00    -0.013 C 
HETATM   20  C20 UNL     1      16.589  34.939  18.420  1.00  0.00     0.010 C 
BRANCH  19  21
HETATM   21  C21 UNL     1      18.344  36.324  17.315  1.00  0.00     0.012 C 
BRANCH  21  22
HETATM   22  C22 UNL     1      19.650  36.478  18.075  1.00  0.00     0.020 C 
HETATM   23  C23 UNL     1      19.444  35.896  19.440  1.00  0.00     0.041 C 
HETATM   24  C24 UNL     1      20.697  35.635  20.200  1.00  0.00     0.150 C 
HETATM   25  C25 UNL     1      21.884  35.312  19.345  1.00  0.00     0.178 C 
HETATM   26  C26 UNL     1      21.385  34.657  18.082  1.00  0.00     0.184 C 
HETATM   27  C29 UNL     1      20.706  35.764  17.266  1.00  0.00     0.156 C 
BRANCH  24  28
HETATM   28  O2  UNL     1      20.462  34.502  21.013  1.00  0.00    -0.393 OA
ATOM     29  H2  UNL     1      21.095  33.840  20.759  1.00  0.00     0.210 HD
ENDBRANCH  24  28
BRANCH  25  30
HETATM   30  O3  UNL     1      22.583  36.476  19.103  1.00  0.00    -0.390 OA
ATOM     31  H3  UNL     1      23.390  36.455  19.605  1.00  0.00     0.210 HD
ENDBRANCH  25  30
BRANCH  26  32
HETATM   32  O4  UNL     1      22.482  34.255  17.348  1.00  0.00    -0.356 OA
BRANCH  32  33
HETATM   33  C27 UNL     1      22.643  32.882  17.290  1.00  0.00     0.337 C 
BRANCH  33  34
HETATM   34  O5  UNL     1      22.071  32.436  16.100  1.00  0.00    -0.372 OA
HETATM   35  C28 UNL     1      23.061  32.286  15.131  1.00  0.00     0.204 C 
ENDBRANCH  33  34
ENDBRANCH  32  33
ENDBRANCH  26  32
BRANCH  27  36
HETATM   36  O6  UNL     1      21.739  36.623  16.881  1.00  0.00    -0.388 OA
HETATM   37  C30 UNL     1      21.209  37.901  16.681  1.00  0.00     0.202 C 
ENDBRANCH  27  36
ENDBRANCH  21  22
ENDBRANCH  19  21
ENDBRANCH  15  19
BRANCH   1  38
HETATM   38  N1  UNL     1      20.183  27.336  10.846  1.00  0.00    -0.415 N 
ATOM     39  H1  UNL     1      20.986  27.444  10.227  1.00  0.00     0.153 HD
BRANCH  38  40
HETATM   40  C3  UNL     1      19.078  26.495  10.518  1.00  0.00     0.140 C 
BRANCH  40  41
HETATM   41  C2  UNL     1      18.871  26.509   8.999  1.00  0.00     0.186 C 
BRANCH  41  42
HETATM   42  O1  UNL     1      18.429  27.721   8.530  1.00  0.00    -0.394 OA
HETATM   43  C1  UNL     1      18.317  27.743   7.133  1.00  0.00     0.201 C 
ENDBRANCH  41  42
ENDBRANCH  40  41
ENDBRANCH  38  40
ENDBRANCH   1  38
TORSDOF 13
ENDMDL
MODEL 4
REMARK VINA RESULT: -8.700560456      2.026      3.142
REMARK  13 active torsions:
REMARK  status: ('A' for Active; 'I' for Inactive)
REMARK    1  A    between atoms: O1_2  and  C2_3 
REMARK    2  A    between atoms: C2_3  and  C3_4 
REMARK    3  A    between atoms: C3_4  and  N1_5 
REMARK    4  A    between atoms: N1_5  and  C4_7 
REMARK    5  A    between atoms: C18_21  and  C19_22 
REMARK    6  A    between atoms: C19_22  and  C21_24 
REMARK    7  A    between atoms: C21_24  and  C22_25 
REMARK    8  A    between atoms: C24_27  and  O2_28 
REMARK    9  A    between atoms: C25_30  and  O3_31 
REMARK   10  A    between atoms: C26_33  and  O4_34 
REMARK   11  A    between atoms: O4_34  and  C27_35 
REMARK   12  A    between atoms: C27_35  and  O5_36 
REMARK   13  A    between atoms: C29_38  and  O6_39 
ROOT
HETATM    1  C4  UNL     1      20.408  28.344  12.177  1.00  0.00     0.077 C 
HETATM    2  C5  UNL     1      18.935  28.684  12.257  1.00  0.00     0.025 C 
HETATM    3  C6  UNL     1      18.588  29.167  13.622  1.00  0.00     0.012 C 
HETATM    4  C7  UNL     1      19.614  30.021  14.273  1.00  0.00    -0.036 C 
HETATM    5  C8  UNL     1      20.317  29.174  15.345  1.00  0.00     0.016 C 
HETATM    6  C9  UNL     1      20.682  30.541  13.376  1.00  0.00    -0.004 C 
HETATM    7  C10 UNL     1      20.307  31.709  12.524  1.00  0.00     0.006 C 
HETATM    8  C11 UNL     1      19.730  32.830  13.380  1.00  0.00     0.006 C 
HETATM    9  C12 UNL     1      18.496  32.215  14.059  1.00  0.00    -0.005 C 
HETATM   10  C13 UNL     1      19.019  31.199  15.022  1.00  0.00    -0.002 C 
HETATM   11  C14 UNL     1      18.011  30.764  16.029  1.00  0.00     0.006 C 
HETATM   12  C15 UNL     1      17.593  32.030  16.793  1.00  0.00     0.010 C 
HETATM   13  C16 UNL     1      16.822  32.874  15.829  1.00  0.00    -0.036 C 
HETATM   14  C17 UNL     1      15.451  32.287  15.498  1.00  0.00     0.016 C 
HETATM   15  C18 UNL     1      16.802  34.357  16.110  1.00  0.00    -0.002 C 
HETATM   16  C31 UNL     1      18.086  34.430  15.268  1.00  0.00     0.011 C 
HETATM   17  C32 UNL     1      17.550  33.199  14.569  1.00  0.00    -0.001 C 
HETATM   18  C33 UNL     1      21.310  29.477  12.502  1.00  0.00     0.030 C 
ENDROOT
BRANCH  15  19
HETATM   19  C19 UNL     1      16.985  34.782  17.522  1.00  0.00    -0.013 C 
HETATM   20  C20 UNL     1      15.696  34.714  18.302  1.00  0.00     0.010 C 
BRANCH  19  21
HETATM   21  C21 UNL     1      17.500  36.228  17.480  1.00  0.00     0.012 C 
BRANCH  21  22
HETATM   22  C22 UNL     1      18.492  36.486  18.601  1.00  0.00     0.020 C 
HETATM   23  C23 UNL     1      19.355  35.267  18.723  1.00  0.00     0.041 C 
HETATM   24  C24 UNL     1      20.599  35.463  19.516  1.00  0.00     0.150 C 
HETATM   25  C25 UNL     1      21.154  36.854  19.464  1.00  0.00     0.178 C 
HETATM   26  C26 UNL     1      20.765  37.462  18.142  1.00  0.00     0.184 C 
HETATM   27  C29 UNL     1      19.257  37.731  18.222  1.00  0.00     0.156 C 
BRANCH  24  28
HETATM   28  O2  UNL     1      21.584  34.612  18.962  1.00  0.00    -0.393 OA
ATOM     29  H2  UNL     1      21.236  34.279  18.143  1.00  0.00     0.210 HD
ENDBRANCH  24  28
BRANCH  25  30
HETATM   30  O3  UNL     1      20.667  37.562  20.544  1.00  0.00    -0.390 OA
ATOM     31  H3  UNL     1      20.936  37.122  21.341  1.00  0.00     0.210 HD
ENDBRANCH  25  30
BRANCH  26  32
HETATM   32  O4  UNL     1      21.372  38.697  18.046  1.00  0.00    -0.356 OA
BRANCH  32  33
HETATM   33  C27 UNL     1      21.547  39.135  16.745  1.00  0.00     0.337 C 
BRANCH  33  34
HETATM   34  O5  UNL     1      21.125  40.462  16.681  1.00  0.00    -0.372 OA
HETATM   35  C28 UNL     1      20.043  40.569  15.810  1.00  0.00     0.204 C 
ENDBRANCH  33  34
ENDBRANCH  32  33
ENDBRANCH  26  32
BRANCH  27  36
HETATM   36  O6  UNL     1      19.114  38.742  19.177  1.00  0.00    -0.388 OA
HETATM   37  C30 UNL     1      18.047  39.564  18.803  1.00  0.00     0.202 C 
ENDBRANCH  27  36
ENDBRANCH  21  22
ENDBRANCH  19  21
ENDBRANCH  15  19
BRANCH   1  38
HETATM   38  N1  UNL     1      20.699  27.731  10.908  1.00  0.00    -0.415 N 
ATOM     39  H1  UNL     1      21.156  28.238  10.151  1.00  0.00     0.153 HD
BRANCH  38  40
HETATM   40  C3  UNL     1      20.305  26.366  10.781  1.00  0.00     0.140 C 
BRANCH  40  41
HETATM   41  C2  UNL     1      19.491  26.198   9.492  1.00  0.00     0.186 C 
BRANCH  41  42
HETATM   42  O1  UNL     1      18.322  25.506   9.684  1.00  0.00    -0.394 OA
HETATM   43  C1  UNL     1      17.308  25.920   8.808  1.00  0.00     0.201 C 
ENDBRANCH  41  42
ENDBRANCH  40  41
ENDBRANCH  38  40
ENDBRANCH   1  38
TORSDOF 13
ENDMDL
MODEL 5
REMARK VINA RESULT: -8.645595845      2.106      3.201
REMARK  13 active torsions:
REMARK  status: ('A' for Active; 'I' for Inactive)
REMARK    1  A    between atoms: O1_2  and  C2_3 
REMARK    2  A    between atoms: C2_3  and  C3_4 
REMARK    3  A    between atoms: C3_4  and  N1_5 
REMARK    4  A    between atoms: N1_5  and  C4_7 
REMARK    5  A    between atoms: C18_21  and  C19_22 
REMARK    6  A    between atoms: C19_22  and  C21_24 
REMARK    7  A    between atoms: C21_24  and  C22_25 
REMARK    8  A    between atoms: C24_27  and  O2_28 
REMARK    9  A    between atoms: C25_30  and  O3_31 
REMARK   10  A    between atoms: C26_33  and  O4_34 
REMARK   11  A    between atoms: O4_34  and  C27_35 
REMARK   12  A    between atoms: C27_35  and  O5_36 
REMARK   13  A    between atoms: C29_38  and  O6_39 
ROOT
HETATM    1  C4  UNL     1      20.951  28.815  13.218  1.00  0.00     0.077 C 
HETATM    2  C5  UNL     1      19.441  28.834  13.310  1.00  0.00     0.025 C 
HETATM    3  C6  UNL     1      19.006  29.523  14.556  1.00  0.00     0.012 C 
HETATM    4  C7  UNL     1      19.818  30.705  14.944  1.00  0.00    -0.036 C 
HETATM    5  C8  UNL     1      20.704  30.295  16.130  1.00  0.00     0.016 C 
HETATM    6  C9  UNL     1      20.731  31.230  13.893  1.00  0.00    -0.004 C 
HETATM    7  C10 UNL     1      20.093  32.066  12.832  1.00  0.00     0.006 C 
HETATM    8  C11 UNL     1      19.285  33.197  13.458  1.00  0.00     0.006 C 
HETATM    9  C12 UNL     1      18.229  32.495  14.327  1.00  0.00    -0.005 C 
HETATM   10  C13 UNL     1      18.978  31.861  15.454  1.00  0.00    -0.002 C 
HETATM   11  C14 UNL     1      18.104  31.454  16.590  1.00  0.00     0.006 C 
HETATM   12  C15 UNL     1      17.417  32.736  17.085  1.00  0.00     0.010 C 
HETATM   13  C16 UNL     1      16.466  33.152  16.008  1.00  0.00    -0.036 C 
HETATM   14  C17 UNL     1      15.261  32.221  15.895  1.00  0.00     0.016 C 
HETATM   15  C18 UNL     1      16.112  34.618  15.962  1.00  0.00    -0.002 C 
HETATM   16  C31 UNL     1      17.339  34.780  15.049  1.00  0.00     0.011 C 
HETATM   17  C32 UNL     1      17.089  33.337  14.667  1.00  0.00    -0.001 C 
HETATM   18  C33 UNL     1      21.576  30.162  13.235  1.00  0.00     0.030 C 
ENDROOT
BRANCH  15  19
HETATM   19  C19 UNL     1      16.208  35.380  17.235  1.00  0.00    -0.013 C 
HETATM   20  C20 UNL     1      14.870  35.499  17.920  1.00  0.00     0.010 C 
BRANCH  19  21
HETATM   21  C21 UNL     1      16.741  36.774  16.872  1.00  0.00     0.012 C 
BRANCH  21  22
HETATM   22  C22 UNL     1      17.591  37.341  17.995  1.00  0.00     0.020 C 
HETATM   23  C23 UNL     1      18.714  36.379  18.236  1.00  0.00     0.041 C 
HETATM   24  C24 UNL     1      19.838  36.925  19.045  1.00  0.00     0.150 C 
HETATM   25  C25 UNL     1      20.045  38.402  18.899  1.00  0.00     0.178 C 
HETATM   26  C26 UNL     1      19.581  38.805  17.523  1.00  0.00     0.184 C 
HETATM   27  C29 UNL     1      18.051  38.705  17.541  1.00  0.00     0.156 C 
BRANCH  24  28
HETATM   28  O2  UNL     1      21.022  36.302  18.585  1.00  0.00    -0.393 OA
ATOM     29  H2  UNL     1      20.759  35.538  18.086  1.00  0.00     0.210 HD
ENDBRANCH  24  28
BRANCH  25  30
HETATM   30  O3  UNL     1      19.355  39.045  19.906  1.00  0.00    -0.390 OA
ATOM     31  H3  UNL     1      18.825  39.732  19.519  1.00  0.00     0.210 HD
ENDBRANCH  25  30
BRANCH  26  32
HETATM   32  O4  UNL     1      19.879  40.141  17.347  1.00  0.00    -0.356 OA
BRANCH  32  33
HETATM   33  C27 UNL     1      20.009  40.515  16.022  1.00  0.00     0.337 C 
BRANCH  33  34
HETATM   34  O5  UNL     1      21.115  39.849  15.497  1.00  0.00    -0.372 OA
HETATM   35  C28 UNL     1      21.709  40.632  14.509  1.00  0.00     0.204 C 
ENDBRANCH  33  34
ENDBRANCH  32  33
ENDBRANCH  26  32
BRANCH  27  36
HETATM   36  O6  UNL     1      17.627  39.716  18.409  1.00  0.00    -0.388 OA
HETATM   37  C30 UNL     1      16.566  40.403  17.814  1.00  0.00     0.202 C 
ENDBRANCH  27  36
ENDBRANCH  21  22
ENDBRANCH  19  21
ENDBRANCH  15  19
BRANCH   1  38
HETATM   38  N1  UNL     1      21.362  28.012  12.097  1.00  0.00    -0.415 N 
ATOM     39  H1  UNL     1      20.692  27.537  11.492  1.00  0.00     0.153 HD
BRANCH  38  40
HETATM   40  C3  UNL     1      22.771  27.924  11.888  1.00  0.00     0.140 C 
BRANCH  40  41
HETATM   41  C2  UNL     1      23.129  26.489  11.486  1.00  0.00     0.186 C 
BRANCH  41  42
HETATM   42  O1  UNL     1      24.405  26.135  11.847  1.00  0.00    -0.394 OA
HETATM   43  C1  UNL     1      25.253  27.245  11.963  1.00  0.00     0.201 C 
ENDBRANCH  41  42
ENDBRANCH  40  41
ENDBRANCH  38  40
ENDBRANCH   1  38
TORSDOF 13
ENDMDL
