MODEL 1
REMARK VINA RESULT: -8.850211273      0.000      0.000
REMARK  15 active torsions:
REMARK  status: ('A' for Active; 'I' for Inactive)
REMARK    1  A    between atoms: C2_2  and  C3_3 
REMARK    2  A    between atoms: C3_3  and  O1_5 
REMARK    3  A    between atoms: C3_3  and  C15_17 
REMARK    4  A    between atoms: O1_5  and  C5_6 
REMARK    5  A    between atoms: C5_6  and  C6_8 
REMARK    6  A    between atoms: C15_17  and  O3_18 
REMARK    7  A    between atoms: C15_17  and  C16_20 
REMARK    8  A    between atoms: C16_20  and  N1_21 
REMARK    9  A    between atoms: N2_28  and  C23_29 
REMARK   10  A    between atoms: C23_29  and  C24_30 
REMARK   11  A    between atoms: C24_30  and  O4_31 
REMARK   12  A    between atoms: C24_30  and  C25_33 
REMARK   13  A    between atoms: C25_33  and  O5_34 
REMARK   14  A    between atoms: C26_36  and  C27_37 
REMARK   15  A    between atoms: C27_37  and  C28_38 
ROOT
HETATM    1  N1  UNL     1      19.844  32.656  16.682  1.00  0.00    -0.347 N 
HETATM    2  C17 UNL     1      18.438  32.338  16.795  1.00  0.00     0.130 C 
HETATM    3  C18 UNL     1      17.432  32.982  15.934  1.00  0.00     0.005 C 
HETATM    4  C19 UNL     1      16.199  32.139  15.888  1.00  0.00     0.012 C 
HETATM    5  C20 UNL     1      17.057  34.451  16.336  1.00  0.00     0.015 C 
HETATM    6  C21 UNL     1      16.515  35.108  15.057  1.00  0.00     0.012 C 
HETATM    7  C22 UNL     1      18.286  34.970  16.764  1.00  0.00     0.278 C 
HETATM    8  N2  UNL     1      19.111  35.969  17.163  1.00  0.00     0.105 N 
HETATM    9  C26 UNL     1      20.417  35.297  17.325  1.00  0.00     0.314 C 
HETATM   10  C31 UNL     1      20.509  33.917  16.800  1.00  0.00     0.253 C 
HETATM   11  O6  UNL     1      21.628  33.816  16.223  1.00  0.00    -0.271 OA
ENDROOT
BRANCH   1  12
HETATM   12  C16 UNL     1      20.737  31.510  16.419  1.00  0.00     0.160 C 
BRANCH  12  13
HETATM   13  C15 UNL     1      19.877  30.451  15.836  1.00  0.00     0.170 C 
BRANCH  13  14
HETATM   14  C3  UNL     1      20.009  30.084  14.422  1.00  0.00     0.094 C 
HETATM   15  C4  UNL     1      20.896  28.813  14.209  1.00  0.00     0.049 C 
BRANCH  14  16
HETATM   16  C2  UNL     1      20.586  31.101  13.526  1.00  0.00     0.036 C 
HETATM   17  C1  UNL     1      19.653  32.176  13.034  1.00  0.00     0.008 C 
ENDBRANCH  14  16
BRANCH  14  18
HETATM   18  O1  UNL     1      18.743  29.609  13.963  1.00  0.00    -0.307 OA
BRANCH  18  19
HETATM   19  C5  UNL     1      18.499  28.359  13.500  1.00  0.00     0.263 C 
HETATM   20  O2  UNL     1      17.767  27.584  14.155  1.00  0.00    -0.265 OA
BRANCH  19  21
HETATM   21  C6  UNL     1      19.108  27.882  12.188  1.00  0.00     0.086 C 
HETATM   22  C7  UNL     1      18.758  26.453  11.931  1.00  0.00     0.015 C 
HETATM   23  C8  UNL     1      19.078  26.114  10.513  1.00  0.00     0.005 C 
HETATM   24  C9  UNL     1      17.982  26.441   9.546  1.00  0.00    -0.018 C 
HETATM   25  C10 UNL     1      18.461  26.912   8.205  1.00  0.00     0.010 C 
HETATM   26  C11 UNL     1      16.975  27.411  10.095  1.00  0.00     0.008 C 
HETATM   27  C12 UNL     1      17.506  28.747  10.434  1.00  0.00    -0.017 C 
HETATM   28  C13 UNL     1      16.420  29.481  11.233  1.00  0.00     0.010 C 
HETATM   29  C14 UNL     1      18.834  28.805  11.068  1.00  0.00     0.018 C 
ENDBRANCH  19  21
ENDBRANCH  18  19
ENDBRANCH  14  18
ENDBRANCH  13  14
BRANCH  13  30
HETATM   30  O3  UNL     1      20.018  29.309  16.674  1.00  0.00    -0.391 OA
ATOM     31  H3  UNL     1      19.178  29.040  17.028  1.00  0.00     0.210 HD
ENDBRANCH  13  30
ENDBRANCH  12  13
ENDBRANCH   1  12
BRANCH   9  32
HETATM   32  C27 UNL     1      21.534  36.167  16.849  1.00  0.00     0.049 C 
BRANCH  32  33
HETATM   33  C28 UNL     1      22.508  36.662  17.840  1.00  0.00    -0.020 C 
HETATM   34  C29 UNL     1      22.485  38.153  18.038  1.00  0.00     0.009 C 
HETATM   35  C30 UNL     1      22.176  36.038  19.209  1.00  0.00     0.009 C 
ENDBRANCH  32  33
ENDBRANCH   9  32
BRANCH   8  36
HETATM   36  C23 UNL     1      18.884  36.690  18.374  1.00  0.00     0.307 C 
BRANCH  36  37
HETATM   37  C24 UNL     1      18.515  38.116  18.267  1.00  0.00     0.170 C 
BRANCH  37  38
HETATM   38  O4  UNL     1      19.231  38.718  17.242  1.00  0.00    -0.392 OA
ATOM     39  H4  UNL     1      19.607  39.537  17.543  1.00  0.00     0.210 HD
ENDBRANCH  37  38
BRANCH  37  40
HETATM   40  C25 UNL     1      17.039  38.202  17.851  1.00  0.00     0.197 C 
BRANCH  40  41
HETATM   41  O5  UNL     1      16.893  38.365  16.495  1.00  0.00    -0.398 OA
ATOM     42  H5  UNL     1      15.986  38.286  16.221  1.00  0.00     0.209 HD
ENDBRANCH  40  41
ENDBRANCH  37  40
ENDBRANCH  36  37
ENDBRANCH   8  36
TORSDOF 15
ENDMDL
MODEL 2
REMARK VINA RESULT: -8.720933448      2.672      9.309
REMARK  15 active torsions:
REMARK  status: ('A' for Active; 'I' for Inactive)
REMARK    1  A    between atoms: C2_2  and  C3_3 
REMARK    2  A    between atoms: C3_3  and  O1_5 
REMARK    3  A    between atoms: C3_3  and  C15_17 
REMARK    4  A    between atoms: O1_5  and  C5_6 
REMARK    5  A    between atoms: C5_6  and  C6_8 
REMARK    6  A    between atoms: C15_17  and  O3_18 
REMARK    7  A    between atoms: C15_17  and  C16_20 
REMARK    8  A    between atoms: C16_20  and  N1_21 
REMARK    9  A    between atoms: N2_28  and  C23_29 
REMARK   10  A    between atoms: C23_29  and  C24_30 
REMARK   11  A    between atoms: C24_30  and  O4_31 
REMARK   12  A    between atoms: C24_30  and  C25_33 
REMARK   13  A    between atoms: C25_33  and  O5_34 
REMARK   14  A    between atoms: C26_36  and  C27_37 
REMARK   15  A    between atoms: C27_37  and  C28_38 
ROOT
HETATM    1  N1  UNL     1      20.912  30.385  13.829  1.00  0.00    -0.347 N 
HETATM    2  C17 UNL     1      19.536  30.827  13.767  1.00  0.00     0.130 C 
HETATM    3  C18 UNL     1      18.427  29.950  14.176  1.00  0.00     0.005 C 
HETATM    4  C19 UNL     1      17.227  30.780  14.502  1.00  0.00     0.012 C 
HETATM    5  C20 UNL     1      18.040  28.841  13.138  1.00  0.00     0.015 C 
HETATM    6  C21 UNL     1      17.350  27.733  13.950  1.00  0.00     0.012 C 
HETATM    7  C22 UNL     1      19.286  28.469  12.615  1.00  0.00     0.278 C 
HETATM    8  N2  UNL     1      20.108  27.686  11.876  1.00  0.00     0.105 N 
HETATM    9  C26 UNL     1      21.448  28.258  12.124  1.00  0.00     0.314 C 
HETATM   10  C31 UNL     1      21.538  29.256  13.213  1.00  0.00     0.253 C 
HETATM   11  O6  UNL     1      22.598  29.007  13.854  1.00  0.00    -0.271 OA
ENDROOT
BRANCH   1  12
HETATM   12  C16 UNL     1      21.816  31.227  14.638  1.00  0.00     0.160 C 
BRANCH  12  13
HETATM   13  C15 UNL     1      21.289  32.609  14.528  1.00  0.00     0.170 C 
BRANCH  13  14
HETATM   14  C3  UNL     1      21.066  33.414  15.733  1.00  0.00     0.094 C 
HETATM   15  C4  UNL     1      21.666  34.854  15.618  1.00  0.00     0.049 C 
BRANCH  14  16
HETATM   16  C2  UNL     1      21.607  32.881  16.995  1.00  0.00     0.036 C 
HETATM   17  C1  UNL     1      22.284  33.867  17.911  1.00  0.00     0.008 C 
ENDBRANCH  14  16
BRANCH  14  18
HETATM   18  O1  UNL     1      19.671  33.710  15.821  1.00  0.00    -0.307 OA
BRANCH  18  19
HETATM   19  C5  UNL     1      18.854  33.329  16.833  1.00  0.00     0.263 C 
HETATM   20  O2  UNL     1      18.553  32.122  16.969  1.00  0.00    -0.265 OA
BRANCH  19  21
HETATM   21  C6  UNL     1      18.295  34.354  17.810  1.00  0.00     0.086 C 
HETATM   22  C7  UNL     1      18.860  35.710  17.536  1.00  0.00     0.015 C 
HETATM   23  C8  UNL     1      18.063  36.733  18.275  1.00  0.00     0.005 C 
HETATM   24  C9  UNL     1      16.850  37.211  17.537  1.00  0.00    -0.018 C 
HETATM   25  C10 UNL     1      15.672  37.513  18.413  1.00  0.00     0.010 C 
HETATM   26  C11 UNL     1      16.433  36.293  16.423  1.00  0.00     0.008 C 
HETATM   27  C12 UNL     1      16.033  34.934  16.842  1.00  0.00    -0.017 C 
HETATM   28  C13 UNL     1      15.926  34.077  15.573  1.00  0.00     0.010 C 
HETATM   29  C14 UNL     1      16.822  34.297  17.909  1.00  0.00     0.018 C 
ENDBRANCH  19  21
ENDBRANCH  18  19
ENDBRANCH  14  18
ENDBRANCH  13  14
BRANCH  13  30
HETATM   30  O3  UNL     1      22.137  33.292  13.610  1.00  0.00    -0.391 OA
ATOM     31  H3  UNL     1      22.966  33.518  14.016  1.00  0.00     0.210 HD
ENDBRANCH  13  30
ENDBRANCH  12  13
ENDBRANCH   1  12
BRANCH   9  32
HETATM   32  C27 UNL     1      22.479  27.185  12.244  1.00  0.00     0.049 C 
BRANCH  32  33
HETATM   33  C28 UNL     1      23.515  27.087  11.198  1.00  0.00    -0.020 C 
HETATM   34  C29 UNL     1      24.925  27.085  11.721  1.00  0.00     0.009 C 
HETATM   35  C30 UNL     1      23.330  25.753  10.449  1.00  0.00     0.009 C 
ENDBRANCH  32  33
ENDBRANCH   9  32
BRANCH   8  36
HETATM   36  C23 UNL     1      19.977  27.590  10.457  1.00  0.00     0.307 C 
BRANCH  36  37
HETATM   37  C24 UNL     1      19.566  26.289   9.891  1.00  0.00     0.170 C 
BRANCH  37  38
HETATM   38  O4  UNL     1      19.650  25.300  10.860  1.00  0.00    -0.392 OA
ATOM     39  H4  UNL     1      19.044  25.484  11.568  1.00  0.00     0.210 HD
ENDBRANCH  37  38
BRANCH  37  40
HETATM   40  C25 UNL     1      18.081  26.376   9.512  1.00  0.00     0.197 C 
BRANCH  40  41
HETATM   41  O5  UNL     1      17.569  25.156   9.140  1.00  0.00    -0.398 OA
ATOM     42  H5  UNL     1      17.029  25.217   8.361  1.00  0.00     0.209 HD
ENDBRANCH  40  41
ENDBRANCH  37  40
ENDBRANCH  36  37
ENDBRANCH   8  36
TORSDOF 15
ENDMDL
MODEL 3
REMARK VINA RESULT: -8.565032695      1.032      1.708
REMARK  15 active torsions:
REMARK  status: ('A' for Active; 'I' for Inactive)
REMARK    1  A    between atoms: C2_2  and  C3_3 
REMARK    2  A    between atoms: C3_3  and  O1_5 
REMARK    3  A    between atoms: C3_3  and  C15_17 
REMARK    4  A    between atoms: O1_5  and  C5_6 
REMARK    5  A    between atoms: C5_6  and  C6_8 
REMARK    6  A    between atoms: C15_17  and  O3_18 
REMARK    7  A    between atoms: C15_17  and  C16_20 
REMARK    8  A    between atoms: C16_20  and  N1_21 
REMARK    9  A    between atoms: N2_28  and  C23_29 
REMARK   10  A    between atoms: C23_29  and  C24_30 
REMARK   11  A    between atoms: C24_30  and  O4_31 
REMARK   12  A    between atoms: C24_30  and  C25_33 
REMARK   13  A    between atoms: C25_33  and  O5_34 
REMARK   14  A    between atoms: C26_36  and  C27_37 
REMARK   15  A    between atoms: C27_37  and  C28_38 
ROOT
HETATM    1  N1  UNL     1      19.807  33.084  16.825  1.00  0.00    -0.347 N 
HETATM    2  C17 UNL     1      18.414  32.697  16.867  1.00  0.00     0.130 C 
HETATM    3  C18 UNL     1      17.408  33.353  16.015  1.00  0.00     0.005 C 
HETATM    4  C19 UNL     1      16.217  32.461  15.871  1.00  0.00     0.012 C 
HETATM    5  C20 UNL     1      16.952  34.773  16.498  1.00  0.00     0.015 C 
HETATM    6  C21 UNL     1      16.422  35.489  15.245  1.00  0.00     0.012 C 
HETATM    7  C22 UNL     1      18.142  35.316  17.001  1.00  0.00     0.278 C 
HETATM    8  N2  UNL     1      18.905  36.322  17.493  1.00  0.00     0.105 N 
HETATM    9  C26 UNL     1      20.235  35.699  17.657  1.00  0.00     0.314 C 
HETATM   10  C31 UNL     1      20.409  34.362  17.047  1.00  0.00     0.253 C 
HETATM   11  O6  UNL     1      21.549  34.350  16.505  1.00  0.00    -0.271 OA
ENDROOT
BRANCH   1  12
HETATM   12  C16 UNL     1      20.760  31.998  16.519  1.00  0.00     0.160 C 
BRANCH  12  13
HETATM   13  C15 UNL     1      19.932  30.817  16.175  1.00  0.00     0.170 C 
BRANCH  13  14
HETATM   14  C3  UNL     1      20.130  30.119  14.900  1.00  0.00     0.094 C 
HETATM   15  C4  UNL     1      20.670  28.663  15.086  1.00  0.00     0.049 C 
BRANCH  14  16
HETATM   16  C2  UNL     1      21.057  30.745  13.941  1.00  0.00     0.036 C 
HETATM   17  C1  UNL     1      22.437  30.147  13.846  1.00  0.00     0.008 C 
ENDBRANCH  14  16
BRANCH  14  18
HETATM   18  O1  UNL     1      18.848  29.860  14.328  1.00  0.00    -0.307 OA
BRANCH  18  19
HETATM   19  C5  UNL     1      18.562  29.897  13.004  1.00  0.00     0.263 C 
HETATM   20  O2  UNL     1      18.986  30.842  12.301  1.00  0.00    -0.265 OA
BRANCH  19  21
HETATM   21  C6  UNL     1      17.728  28.800  12.356  1.00  0.00     0.086 C 
HETATM   22  C7  UNL     1      17.164  29.264  11.053  1.00  0.00     0.015 C 
HETATM   23  C8  UNL     1      16.639  28.089  10.297  1.00  0.00     0.005 C 
HETATM   24  C9  UNL     1      17.672  27.384   9.472  1.00  0.00    -0.018 C 
HETATM   25  C10 UNL     1      17.496  25.897   9.400  1.00  0.00     0.010 C 
HETATM   26  C11 UNL     1      19.081  27.709   9.880  1.00  0.00     0.008 C 
HETATM   27  C12 UNL     1      19.448  27.311  11.254  1.00  0.00    -0.017 C 
HETATM   28  C13 UNL     1      20.794  27.972  11.578  1.00  0.00     0.010 C 
HETATM   29  C14 UNL     1      18.437  27.504  12.306  1.00  0.00     0.018 C 
ENDBRANCH  19  21
ENDBRANCH  18  19
ENDBRANCH  14  18
ENDBRANCH  13  14
BRANCH  13  30
HETATM   30  O3  UNL     1      20.041  29.914  17.271  1.00  0.00    -0.391 OA
ATOM     31  H3  UNL     1      20.402  29.081  16.991  1.00  0.00     0.210 HD
ENDBRANCH  13  30
ENDBRANCH  12  13
ENDBRANCH   1  12
BRANCH   9  32
HETATM   32  C27 UNL     1      21.325  36.647  17.279  1.00  0.00     0.049 C 
BRANCH  32  33
HETATM   33  C28 UNL     1      22.251  37.109  18.331  1.00  0.00    -0.020 C 
HETATM   34  C29 UNL     1      21.956  38.489  18.853  1.00  0.00     0.009 C 
HETATM   35  C30 UNL     1      22.136  36.156  19.537  1.00  0.00     0.009 C 
ENDBRANCH  32  33
ENDBRANCH   9  32
BRANCH   8  36
HETATM   36  C23 UNL     1      18.607  36.950  18.740  1.00  0.00     0.307 C 
BRANCH  36  37
HETATM   37  C24 UNL     1      17.939  38.267  18.705  1.00  0.00     0.170 C 
BRANCH  37  38
HETATM   38  O4  UNL     1      18.375  39.052  19.763  1.00  0.00    -0.392 OA
ATOM     39  H4  UNL     1      17.974  38.759  20.573  1.00  0.00     0.210 HD
ENDBRANCH  37  38
BRANCH  37  40
HETATM   40  C25 UNL     1      18.386  38.999  17.431  1.00  0.00     0.197 C 
BRANCH  40  41
HETATM   41  O5  UNL     1      17.414  38.989  16.460  1.00  0.00    -0.398 OA
ATOM     42  H5  UNL     1      16.984  39.832  16.374  1.00  0.00     0.209 HD
ENDBRANCH  40  41
ENDBRANCH  37  40
ENDBRANCH  36  37
ENDBRANCH   8  36
TORSDOF 15
ENDMDL
MODEL 4
REMARK VINA RESULT: -8.518225591      1.790      3.626
REMARK  15 active torsions:
REMARK  status: ('A' for Active; 'I' for Inactive)
REMARK    1  A    between atoms: C2_2  and  C3_3 
REMARK    2  A    between atoms: C3_3  and  O1_5 
REMARK    3  A    between atoms: C3_3  and  C15_17 
REMARK    4  A    between atoms: O1_5  and  C5_6 
REMARK    5  A    between atoms: C5_6  and  C6_8 
REMARK    6  A    between atoms: C15_17  and  O3_18 
REMARK    7  A    between atoms: C15_17  and  C16_20 
REMARK    8  A    between atoms: C16_20  and  N1_21 
REMARK    9  A    between atoms: N2_28  and  C23_29 
REMARK   10  A    between atoms: C23_29  and  C24_30 
REMARK   11  A    between atoms: C24_30  and  O4_31 
REMARK   12  A    between atoms: C24_30  and  C25_33 
REMARK   13  A    between atoms: C25_33  and  O5_34 
REMARK   14  A    between atoms: C26_36  and  C27_37 
REMARK   15  A    between atoms: C27_37  and  C28_38 
ROOT
HETATM    1  N1  UNL     1      19.748  33.202  14.824  1.00  0.00    -0.347 N 
HETATM    2  C17 UNL     1      21.160  33.427  14.608  1.00  0.00     0.130 C 
HETATM    3  C18 UNL     1      22.160  33.082  15.631  1.00  0.00     0.005 C 
HETATM    4  C19 UNL     1      23.501  32.927  14.989  1.00  0.00     0.012 C 
HETATM    5  C20 UNL     1      22.259  34.089  16.829  1.00  0.00     0.015 C 
HETATM    6  C21 UNL     1      22.855  33.289  17.998  1.00  0.00     0.012 C 
HETATM    7  C22 UNL     1      20.921  34.462  17.021  1.00  0.00     0.278 C 
HETATM    8  N2  UNL     1      19.914  35.069  17.693  1.00  0.00     0.105 N 
HETATM    9  C26 UNL     1      18.712  34.720  16.907  1.00  0.00     0.314 C 
HETATM   10  C31 UNL     1      18.894  33.687  15.864  1.00  0.00     0.253 C 
HETATM   11  O6  UNL     1      17.885  32.928  15.916  1.00  0.00    -0.271 OA
ENDROOT
BRANCH   1  12
HETATM   12  C16 UNL     1      19.076  32.355  13.818  1.00  0.00     0.160 C 
BRANCH  12  13
HETATM   13  C15 UNL     1      20.050  31.293  13.467  1.00  0.00     0.170 C 
BRANCH  13  14
HETATM   14  C3  UNL     1      19.925  29.952  14.048  1.00  0.00     0.094 C 
HETATM   15  C4  UNL     1      19.833  29.976  15.609  1.00  0.00     0.049 C 
BRANCH  14  16
HETATM   16  C2  UNL     1      21.007  28.998  13.749  1.00  0.00     0.036 C 
HETATM   17  C1  UNL     1      22.415  29.529  13.819  1.00  0.00     0.008 C 
ENDBRANCH  14  16
BRANCH  14  18
HETATM   18  O1  UNL     1      18.636  29.438  13.710  1.00  0.00    -0.307 OA
BRANCH  18  19
HETATM   19  C5  UNL     1      18.389  28.181  13.268  1.00  0.00     0.263 C 
HETATM   20  O2  UNL     1      17.664  27.415  13.941  1.00  0.00    -0.265 OA
BRANCH  19  21
HETATM   21  C6  UNL     1      18.985  27.685  11.957  1.00  0.00     0.086 C 
HETATM   22  C7  UNL     1      18.587  26.269  11.697  1.00  0.00     0.015 C 
HETATM   23  C8  UNL     1      18.901  25.921  10.279  1.00  0.00     0.005 C 
HETATM   24  C9  UNL     1      17.820  26.287   9.309  1.00  0.00    -0.018 C 
HETATM   25  C10 UNL     1      18.319  26.743   7.971  1.00  0.00     0.010 C 
HETATM   26  C11 UNL     1      16.845  27.290   9.856  1.00  0.00     0.008 C 
HETATM   27  C12 UNL     1      17.420  28.607  10.199  1.00  0.00    -0.017 C 
HETATM   28  C13 UNL     1      16.358  29.377  10.995  1.00  0.00     0.010 C 
HETATM   29  C14 UNL     1      18.747  28.619  10.837  1.00  0.00     0.018 C 
ENDBRANCH  19  21
ENDBRANCH  18  19
ENDBRANCH  14  18
ENDBRANCH  13  14
BRANCH  13  30
HETATM   30  O3  UNL     1      20.085  31.230  12.045  1.00  0.00    -0.391 OA
ATOM     31  H3  UNL     1      19.344  30.739  11.708  1.00  0.00     0.210 HD
ENDBRANCH  13  30
ENDBRANCH  12  13
ENDBRANCH   1  12
BRANCH   9  32
HETATM   32  C27 UNL     1      17.548  34.435  17.799  1.00  0.00     0.049 C 
BRANCH  32  33
HETATM   33  C28 UNL     1      16.412  35.376  17.790  1.00  0.00    -0.020 C 
HETATM   34  C29 UNL     1      16.289  36.188  16.530  1.00  0.00     0.009 C 
HETATM   35  C30 UNL     1      15.106  34.567  17.913  1.00  0.00     0.009 C 
ENDBRANCH  32  33
ENDBRANCH   9  32
BRANCH   8  36
HETATM   36  C23 UNL     1      19.874  36.485  17.867  1.00  0.00     0.307 C 
BRANCH  36  37
HETATM   37  C24 UNL     1      20.566  37.054  19.042  1.00  0.00     0.170 C 
BRANCH  37  38
HETATM   38  O4  UNL     1      19.691  37.846  19.773  1.00  0.00    -0.392 OA
ATOM     39  H4  UNL     1      20.026  38.734  19.830  1.00  0.00     0.210 HD
ENDBRANCH  37  38
BRANCH  37  40
HETATM   40  C25 UNL     1      20.958  35.899  19.975  1.00  0.00     0.197 C 
BRANCH  40  41
HETATM   41  O5  UNL     1      20.927  36.268  21.298  1.00  0.00    -0.398 OA
ATOM     42  H5  UNL     1      20.572  35.584  21.853  1.00  0.00     0.209 HD
ENDBRANCH  40  41
ENDBRANCH  37  40
ENDBRANCH  36  37
ENDBRANCH   8  36
TORSDOF 15
ENDMDL
MODEL 5
REMARK VINA RESULT: -8.450723386      2.555     10.202
REMARK  15 active torsions:
REMARK  status: ('A' for Active; 'I' for Inactive)
REMARK    1  A    between atoms: C2_2  and  C3_3 
REMARK    2  A    between atoms: C3_3  and  O1_5 
REMARK    3  A    between atoms: C3_3  and  C15_17 
REMARK    4  A    between atoms: O1_5  and  C5_6 
REMARK    5  A    between atoms: C5_6  and  C6_8 
REMARK    6  A    between atoms: C15_17  and  O3_18 
REMARK    7  A    between atoms: C15_17  and  C16_20 
REMARK    8  A    between atoms: C16_20  and  N1_21 
REMARK    9  A    between atoms: N2_28  and  C23_29 
REMARK   10  A    between atoms: C23_29  and  C24_30 
REMARK   11  A    between atoms: C24_30  and  O4_31 
REMARK   12  A    between atoms: C24_30  and  C25_33 
REMARK   13  A    between atoms: C25_33  and  O5_34 
REMARK   14  A    between atoms: C26_36  and  C27_37 
REMARK   15  A    between atoms: C27_37  and  C28_38 
ROOT
HETATM    1  N1  UNL     1      18.740  30.035  13.089  1.00  0.00    -0.347 N 
HETATM    2  C17 UNL     1      19.985  29.976  13.822  1.00  0.00     0.130 C 
HETATM    3  C18 UNL     1      21.284  30.148  13.149  1.00  0.00     0.005 C 
HETATM    4  C19 UNL     1      22.317  30.551  14.151  1.00  0.00     0.012 C 
HETATM    5  C20 UNL     1      21.784  28.901  12.342  1.00  0.00     0.015 C 
HETATM    6  C21 UNL     1      22.759  29.450  11.288  1.00  0.00     0.012 C 
HETATM    7  C22 UNL     1      20.594  28.392  11.803  1.00  0.00     0.278 C 
HETATM    8  N2  UNL     1      19.879  27.570  10.998  1.00  0.00     0.105 N 
HETATM    9  C26 UNL     1      18.482  27.999  11.216  1.00  0.00     0.314 C 
HETATM   10  C31 UNL     1      18.298  29.258  11.972  1.00  0.00     0.253 C 
HETATM   11  O6  UNL     1      17.378  29.903  11.395  1.00  0.00    -0.271 OA
ENDROOT
BRANCH   1  12
HETATM   12  C16 UNL     1      17.768  31.039  13.565  1.00  0.00     0.160 C 
BRANCH  12  13
HETATM   13  C15 UNL     1      18.142  31.330  14.971  1.00  0.00     0.170 C 
BRANCH  13  14
HETATM   14  C3  UNL     1      17.998  32.686  15.510  1.00  0.00     0.094 C 
HETATM   15  C4  UNL     1      16.946  32.769  16.665  1.00  0.00     0.049 C 
BRANCH  14  16
HETATM   16  C2  UNL     1      17.595  33.737  14.558  1.00  0.00     0.036 C 
HETATM   17  C1  UNL     1      16.698  34.823  15.091  1.00  0.00     0.008 C 
ENDBRANCH  14  16
BRANCH  14  18
HETATM   18  O1  UNL     1      19.196  33.018  16.212  1.00  0.00    -0.307 OA
BRANCH  18  19
HETATM   19  C5  UNL     1      20.181  33.820  15.740  1.00  0.00     0.263 C 
HETATM   20  O2  UNL     1      20.876  33.447  14.769  1.00  0.00    -0.265 OA
BRANCH  19  21
HETATM   21  C6  UNL     1      20.455  35.175  16.379  1.00  0.00     0.086 C 
HETATM   22  C7  UNL     1      19.500  35.436  17.498  1.00  0.00     0.015 C 
HETATM   23  C8  UNL     1      19.988  36.593  18.304  1.00  0.00     0.005 C 
HETATM   24  C9  UNL     1      20.967  36.219  19.375  1.00  0.00    -0.018 C 
HETATM   25  C10 UNL     1      22.042  37.236  19.612  1.00  0.00     0.010 C 
HETATM   26  C11 UNL     1      21.586  34.866  19.168  1.00  0.00     0.008 C 
HETATM   27  C12 UNL     1      22.392  34.721  17.939  1.00  0.00    -0.017 C 
HETATM   28  C13 UNL     1      22.689  33.227  17.759  1.00  0.00     0.010 C 
HETATM   29  C14 UNL     1      21.881  35.364  16.717  1.00  0.00     0.018 C 
ENDBRANCH  19  21
ENDBRANCH  18  19
ENDBRANCH  14  18
ENDBRANCH  13  14
BRANCH  13  30
HETATM   30  O3  UNL     1      17.446  30.385  15.778  1.00  0.00    -0.391 OA
ATOM     31  H3  UNL     1      17.806  29.512  15.666  1.00  0.00     0.210 HD
ENDBRANCH  13  30
ENDBRANCH  12  13
ENDBRANCH   1  12
BRANCH   9  32
HETATM   32  C27 UNL     1      17.706  27.978   9.941  1.00  0.00     0.049 C 
BRANCH  32  33
HETATM   33  C28 UNL     1      18.106  27.023   8.891  1.00  0.00    -0.020 C 
HETATM   34  C29 UNL     1      17.108  25.926   8.638  1.00  0.00     0.009 C 
HETATM   35  C30 UNL     1      18.254  27.788   7.562  1.00  0.00     0.009 C 
ENDBRANCH  32  33
ENDBRANCH   9  32
BRANCH   8  36
HETATM   36  C23 UNL     1      19.889  26.153  11.174  1.00  0.00     0.307 C 
BRANCH  36  37
HETATM   37  C24 UNL     1      21.179  25.509  11.497  1.00  0.00     0.170 C 
BRANCH  37  38
HETATM   38  O4  UNL     1      20.965  24.217  11.956  1.00  0.00    -0.392 OA
ATOM     39  H4  UNL     1      21.777  23.725  11.936  1.00  0.00     0.210 HD
ENDBRANCH  37  38
BRANCH  37  40
HETATM   40  C25 UNL     1      21.982  25.361  10.196  1.00  0.00     0.197 C 
BRANCH  40  41
HETATM   41  O5  UNL     1      21.296  24.647   9.243  1.00  0.00    -0.398 OA
ATOM     42  H5  UNL     1      21.432  24.993   8.369  1.00  0.00     0.209 HD
ENDBRANCH  40  41
ENDBRANCH  37  40
ENDBRANCH  36  37
ENDBRANCH   8  36
TORSDOF 15
ENDMDL
