MODEL 1
REMARK VINA RESULT: -9.089976747      0.000      0.000
REMARK  15 active torsions:
REMARK  status: ('A' for Active; 'I' for Inactive)
REMARK    1  A    between atoms: C2_2  and  C3_3 
REMARK    2  A    between atoms: C2_2  and  C28_37 
REMARK    3  A    between atoms: C4_4  and  C5_5 
REMARK    4  A    between atoms: C6_6  and  O1_7 
REMARK    5  A    between atoms: C8_10  and  O2_11 
REMARK    6  A    between atoms: C14_18  and  O3_20 
REMARK    7  A    between atoms: O3_20  and  C16_21 
REMARK    8  A    between atoms: C16_21  and  C17_23 
REMARK    9  A    between atoms: C18_24  and  C19_25 
REMARK   10  A    between atoms: C19_25  and  C20_27 
REMARK   11  A    between atoms: C20_27  and  C21_28 
REMARK   12  A    between atoms: C21_28  and  C22_29 
REMARK   13  A    between atoms: C22_29  and  C23_30 
REMARK       I    between atoms: C23_30  and  N1_32 
REMARK   14  A    between atoms: C28_37  and  C30_39 
REMARK   15  A    between atoms: C30_39  and  O7_42 
ROOT
HETATM    1  C5  UNL     1      17.358  33.167  17.354  1.00  0.00     0.042 C 
HETATM    2  C6  UNL     1      16.709  32.129  16.515  1.00  0.00     0.128 C 
HETATM    3  C7  UNL     1      17.532  31.435  15.478  1.00  0.00     0.065 C 
HETATM    4  C8  UNL     1      19.042  31.465  15.771  1.00  0.00     0.132 C 
HETATM    5  C9  UNL     1      19.378  32.872  15.836  1.00  0.00     0.018 C 
HETATM    6  C10 UNL     1      18.850  33.562  14.568  1.00  0.00     0.021 C 
HETATM    7  C11 UNL     1      18.763  33.484  17.074  1.00  0.00     0.009 C 
HETATM    8  C12 UNL     1      19.113  34.919  16.793  1.00  0.00     0.009 C 
HETATM    9  C13 UNL     1      20.568  34.787  16.374  1.00  0.00     0.039 C 
HETATM   10  C14 UNL     1      20.777  33.343  15.964  1.00  0.00     0.077 C 
HETATM   11  C15 UNL     1      21.615  32.662  16.981  1.00  0.00     0.047 C 
ENDROOT
BRANCH  10  12
HETATM   12  O3  UNL     1      21.395  33.210  14.700  1.00  0.00    -0.306 OA
BRANCH  12  13
HETATM   13  C16 UNL     1      22.550  32.398  14.505  1.00  0.00     0.283 C 
HETATM   14  O4  UNL     1      23.603  33.083  14.527  1.00  0.00    -0.260 OA
BRANCH  13  15
HETATM   15  C17 UNL     1      22.430  30.985  14.314  1.00  0.00     0.086 C 
HETATM   16  C18 UNL     1      21.642  30.353  13.522  1.00  0.00     0.056 C 
BRANCH  16  17
HETATM   17  C19 UNL     1      20.645  30.781  12.591  1.00  0.00     0.149 C 
HETATM   18  O5  UNL     1      20.659  31.805  11.880  1.00  0.00    -0.293 OA
BRANCH  17  19
HETATM   19  C20 UNL     1      19.405  29.930  12.412  1.00  0.00     0.083 C 
BRANCH  19  20
HETATM   20  C21 UNL     1      19.675  28.842  11.411  1.00  0.00     0.017 C 
BRANCH  20  21
HETATM   21  C22 UNL     1      19.887  27.529  12.081  1.00  0.00     0.103 C 
BRANCH  21  22
HETATM   22  C23 UNL     1      20.584  26.605  11.153  1.00  0.00     0.219 C 
HETATM   23  O6  UNL     1      19.904  25.847  10.430  1.00  0.00    -0.273 OA
HETATM   24  N1  UNL     1      21.997  26.584  11.094  1.00  0.00    -0.352 N 
HETATM   25  C24 UNL     1      22.867  25.747  10.286  1.00  0.00     0.126 C 
HETATM   26  C27 UNL     1      22.915  27.440  11.852  1.00  0.00     0.126 C 
HETATM   27  C25 UNL     1      24.027  26.634   9.862  1.00  0.00     0.021 C 
HETATM   28  C26 UNL     1      23.884  27.860  10.743  1.00  0.00     0.021 C 
ENDBRANCH  21  22
ENDBRANCH  20  21
ENDBRANCH  19  20
ENDBRANCH  17  19
ENDBRANCH  16  17
ENDBRANCH  13  15
ENDBRANCH  12  13
ENDBRANCH  10  12
BRANCH   4  29
HETATM   29  O2  UNL     1      19.204  30.693  16.900  1.00  0.00    -0.395 OA
ATOM     30  H2  UNL     1      19.445  31.304  17.586  1.00  0.00     0.210 HD
ENDBRANCH   4  29
BRANCH   1  31
HETATM   31  C4  UNL     1      16.449  34.330  17.463  1.00  0.00    -0.023 C 
HETATM   32  C3  UNL     1      16.322  35.158  18.473  1.00  0.00    -0.025 C 
BRANCH  32  33
HETATM   33  C2  UNL     1      15.396  36.308  18.517  1.00  0.00     0.010 C 
HETATM   34  C1  UNL     1      14.183  35.864  17.660  1.00  0.00     0.015 C 
BRANCH  33  35
HETATM   35  C28 UNL     1      15.864  37.597  17.979  1.00  0.00     0.022 C 
HETATM   36  C29 UNL     1      16.848  37.443  16.824  1.00  0.00     0.014 C 
BRANCH  35  37
HETATM   37  C30 UNL     1      16.341  38.620  18.968  1.00  0.00     0.054 C 
HETATM   38  C31 UNL     1      15.960  40.034  18.541  1.00  0.00     0.045 C 
HETATM   39  C32 UNL     1      17.890  38.661  18.968  1.00  0.00     0.045 C 
BRANCH  37  40
HETATM   40  O7  UNL     1      15.862  38.397  20.222  1.00  0.00    -0.390 OA
ATOM     41  H7  UNL     1      15.217  39.043  20.487  1.00  0.00     0.210 HD
ENDBRANCH  37  40
ENDBRANCH  35  37
ENDBRANCH  33  35
ENDBRANCH  32  33
ENDBRANCH   1  31
BRANCH   2  42
HETATM   42  O1  UNL     1      15.573  32.601  15.827  1.00  0.00    -0.395 OA
ATOM     43  H1  UNL     1      15.214  31.967  15.217  1.00  0.00     0.210 HD
ENDBRANCH   2  42
TORSDOF 15
ENDMDL
MODEL 2
REMARK VINA RESULT: -9.029133501      1.734      2.064
REMARK  15 active torsions:
REMARK  status: ('A' for Active; 'I' for Inactive)
REMARK    1  A    between atoms: C2_2  and  C3_3 
REMARK    2  A    between atoms: C2_2  and  C28_37 
REMARK    3  A    between atoms: C4_4  and  C5_5 
REMARK    4  A    between atoms: C6_6  and  O1_7 
REMARK    5  A    between atoms: C8_10  and  O2_11 
REMARK    6  A    between atoms: C14_18  and  O3_20 
REMARK    7  A    between atoms: O3_20  and  C16_21 
REMARK    8  A    between atoms: C16_21  and  C17_23 
REMARK    9  A    between atoms: C18_24  and  C19_25 
REMARK   10  A    between atoms: C19_25  and  C20_27 
REMARK   11  A    between atoms: C20_27  and  C21_28 
REMARK   12  A    between atoms: C21_28  and  C22_29 
REMARK   13  A    between atoms: C22_29  and  C23_30 
REMARK       I    between atoms: C23_30  and  N1_32 
REMARK   14  A    between atoms: C28_37  and  C30_39 
REMARK   15  A    between atoms: C30_39  and  O7_42 
ROOT
HETATM    1  C5  UNL     1      17.589  33.468  17.521  1.00  0.00     0.042 C 
HETATM    2  C6  UNL     1      16.843  32.506  16.672  1.00  0.00     0.128 C 
HETATM    3  C7  UNL     1      17.588  31.769  15.606  1.00  0.00     0.065 C 
HETATM    4  C8  UNL     1      19.099  31.668  15.873  1.00  0.00     0.132 C 
HETATM    5  C9  UNL     1      19.552  33.040  15.960  1.00  0.00     0.018 C 
HETATM    6  C10 UNL     1      19.062  33.798  14.716  1.00  0.00     0.021 C 
HETATM    7  C11 UNL     1      19.011  33.674  17.221  1.00  0.00     0.009 C 
HETATM    8  C12 UNL     1      19.474  35.081  16.963  1.00  0.00     0.009 C 
HETATM    9  C13 UNL     1      20.906  34.838  16.515  1.00  0.00     0.039 C 
HETATM   10  C14 UNL     1      20.988  33.391  16.071  1.00  0.00     0.077 C 
HETATM   11  C15 UNL     1      21.783  32.621  17.059  1.00  0.00     0.047 C 
ENDROOT
BRANCH  10  12
HETATM   12  O3  UNL     1      21.570  33.235  14.794  1.00  0.00    -0.306 OA
BRANCH  12  13
HETATM   13  C16 UNL     1      22.657  32.341  14.564  1.00  0.00     0.283 C 
HETATM   14  O4  UNL     1      23.764  32.902  14.756  1.00  0.00    -0.260 OA
BRANCH  13  15
HETATM   15  C17 UNL     1      22.420  30.988  14.162  1.00  0.00     0.086 C 
HETATM   16  C18 UNL     1      21.544  30.545  13.335  1.00  0.00     0.056 C 
BRANCH  16  17
HETATM   17  C19 UNL     1      20.532  31.181  12.550  1.00  0.00     0.149 C 
HETATM   18  O5  UNL     1      20.643  32.213  11.860  1.00  0.00    -0.293 OA
BRANCH  17  19
HETATM   19  C20 UNL     1      19.145  30.574  12.523  1.00  0.00     0.083 C 
BRANCH  19  20
HETATM   20  C21 UNL     1      19.188  29.182  13.090  1.00  0.00     0.017 C 
BRANCH  20  21
HETATM   21  C22 UNL     1      17.844  28.541  13.054  1.00  0.00     0.103 C 
BRANCH  21  22
HETATM   22  C23 UNL     1      17.431  28.334  11.644  1.00  0.00     0.219 C 
HETATM   23  O6  UNL     1      16.666  29.164  11.110  1.00  0.00    -0.273 OA
HETATM   24  N1  UNL     1      17.897  27.211  10.921  1.00  0.00    -0.352 N 
HETATM   25  C24 UNL     1      17.596  26.810   9.558  1.00  0.00     0.126 C 
HETATM   26  C27 UNL     1      18.824  26.184  11.407  1.00  0.00     0.126 C 
HETATM   27  C25 UNL     1      18.889  26.247   8.990  1.00  0.00     0.021 C 
HETATM   28  C26 UNL     1      19.774  26.078  10.209  1.00  0.00     0.021 C 
ENDBRANCH  21  22
ENDBRANCH  20  21
ENDBRANCH  19  20
ENDBRANCH  17  19
ENDBRANCH  16  17
ENDBRANCH  13  15
ENDBRANCH  12  13
ENDBRANCH  10  12
BRANCH   4  29
HETATM   29  O2  UNL     1      19.216  30.860  16.983  1.00  0.00    -0.395 OA
ATOM     30  H2  UNL     1      19.522  30.024  16.650  1.00  0.00     0.210 HD
ENDBRANCH   4  29
BRANCH   1  31
HETATM   31  C4  UNL     1      16.782  34.699  17.669  1.00  0.00    -0.023 C 
HETATM   32  C3  UNL     1      16.654  35.452  18.737  1.00  0.00    -0.025 C 
BRANCH  32  33
HETATM   33  C2  UNL     1      15.832  36.677  18.819  1.00  0.00     0.010 C 
HETATM   34  C1  UNL     1      14.745  36.490  17.732  1.00  0.00     0.015 C 
BRANCH  33  35
HETATM   35  C28 UNL     1      16.490  37.970  18.565  1.00  0.00     0.022 C 
HETATM   36  C29 UNL     1      17.996  37.847  18.357  1.00  0.00     0.014 C 
BRANCH  35  37
HETATM   37  C30 UNL     1      16.159  39.102  19.493  1.00  0.00     0.054 C 
HETATM   38  C31 UNL     1      15.185  40.087  18.853  1.00  0.00     0.045 C 
HETATM   39  C32 UNL     1      17.423  39.966  19.731  1.00  0.00     0.045 C 
BRANCH  37  40
HETATM   40  O7  UNL     1      15.636  38.673  20.674  1.00  0.00    -0.390 OA
ATOM     41  H7  UNL     1      14.800  39.078  20.872  1.00  0.00     0.210 HD
ENDBRANCH  37  40
ENDBRANCH  35  37
ENDBRANCH  33  35
ENDBRANCH  32  33
ENDBRANCH   1  31
BRANCH   2  42
HETATM   42  O1  UNL     1      15.738  33.085  16.015  1.00  0.00    -0.395 OA
ATOM     43  H1  UNL     1      15.155  33.551  16.603  1.00  0.00     0.210 HD
ENDBRANCH   2  42
TORSDOF 15
ENDMDL
MODEL 3
REMARK VINA RESULT: -8.894235206      1.874      3.728
REMARK  15 active torsions:
REMARK  status: ('A' for Active; 'I' for Inactive)
REMARK    1  A    between atoms: C2_2  and  C3_3 
REMARK    2  A    between atoms: C2_2  and  C28_37 
REMARK    3  A    between atoms: C4_4  and  C5_5 
REMARK    4  A    between atoms: C6_6  and  O1_7 
REMARK    5  A    between atoms: C8_10  and  O2_11 
REMARK    6  A    between atoms: C14_18  and  O3_20 
REMARK    7  A    between atoms: O3_20  and  C16_21 
REMARK    8  A    between atoms: C16_21  and  C17_23 
REMARK    9  A    between atoms: C18_24  and  C19_25 
REMARK   10  A    between atoms: C19_25  and  C20_27 
REMARK   11  A    between atoms: C20_27  and  C21_28 
REMARK   12  A    between atoms: C21_28  and  C22_29 
REMARK   13  A    between atoms: C22_29  and  C23_30 
REMARK       I    between atoms: C23_30  and  N1_32 
REMARK   14  A    between atoms: C28_37  and  C30_39 
REMARK   15  A    between atoms: C30_39  and  O7_42 
ROOT
HETATM    1  C5  UNL     1      20.681  34.049  15.806  1.00  0.00     0.042 C 
HETATM    2  C6  UNL     1      22.093  33.617  15.955  1.00  0.00     0.128 C 
HETATM    3  C7  UNL     1      22.455  32.217  15.574  1.00  0.00     0.065 C 
HETATM    4  C8  UNL     1      21.476  31.583  14.571  1.00  0.00     0.132 C 
HETATM    5  C9  UNL     1      20.191  31.618  15.235  1.00  0.00     0.018 C 
HETATM    6  C10 UNL     1      20.342  30.991  16.630  1.00  0.00     0.021 C 
HETATM    7  C11 UNL     1      19.713  33.049  15.341  1.00  0.00     0.009 C 
HETATM    8  C12 UNL     1      18.500  32.801  16.193  1.00  0.00     0.009 C 
HETATM    9  C13 UNL     1      17.886  31.604  15.485  1.00  0.00     0.039 C 
HETATM   10  C14 UNL     1      18.988  30.970  14.660  1.00  0.00     0.077 C 
HETATM   11  C15 UNL     1      18.726  31.217  13.222  1.00  0.00     0.047 C 
ENDROOT
BRANCH  10  12
HETATM   12  O3  UNL     1      19.106  29.578  14.871  1.00  0.00    -0.306 OA
BRANCH  12  13
HETATM   13  C16 UNL     1      19.126  28.649  13.789  1.00  0.00     0.283 C 
HETATM   14  O4  UNL     1      20.265  28.577  13.266  1.00  0.00    -0.260 OA
BRANCH  13  15
HETATM   15  C17 UNL     1      17.944  27.934  13.415  1.00  0.00     0.086 C 
HETATM   16  C18 UNL     1      17.409  27.836  12.252  1.00  0.00     0.056 C 
BRANCH  16  17
HETATM   17  C19 UNL     1      17.755  28.365  10.969  1.00  0.00     0.149 C 
HETATM   18  O5  UNL     1      17.223  29.322  10.374  1.00  0.00    -0.293 OA
BRANCH  17  19
HETATM   19  C20 UNL     1      18.890  27.721  10.201  1.00  0.00     0.083 C 
BRANCH  19  20
HETATM   20  C21 UNL     1      18.832  26.228  10.363  1.00  0.00     0.017 C 
BRANCH  20  21
HETATM   21  C22 UNL     1      20.037  25.713  11.069  1.00  0.00     0.103 C 
BRANCH  21  22
HETATM   22  C23 UNL     1      21.160  25.592  10.108  1.00  0.00     0.219 C 
HETATM   23  O6  UNL     1      20.956  25.046   9.004  1.00  0.00    -0.273 OA
HETATM   24  N1  UNL     1      22.443  26.085  10.443  1.00  0.00    -0.352 N 
HETATM   25  C24 UNL     1      23.671  26.043   9.668  1.00  0.00     0.126 C 
HETATM   26  C27 UNL     1      22.816  26.779  11.680  1.00  0.00     0.126 C 
HETATM   27  C25 UNL     1      24.378  27.364   9.929  1.00  0.00     0.021 C 
HETATM   28  C26 UNL     1      23.627  27.947  11.110  1.00  0.00     0.021 C 
ENDBRANCH  21  22
ENDBRANCH  20  21
ENDBRANCH  19  20
ENDBRANCH  17  19
ENDBRANCH  16  17
ENDBRANCH  13  15
ENDBRANCH  12  13
ENDBRANCH  10  12
BRANCH   4  29
HETATM   29  O2  UNL     1      21.640  32.300  13.406  1.00  0.00    -0.395 OA
ATOM     30  H2  UNL     1      21.623  33.212  13.672  1.00  0.00     0.210 HD
ENDBRANCH   4  29
BRANCH   1  31
HETATM   31  C4  UNL     1      20.285  34.810  17.012  1.00  0.00    -0.023 C 
HETATM   32  C3  UNL     1      19.822  36.036  17.071  1.00  0.00    -0.025 C 
BRANCH  32  33
HETATM   33  C2  UNL     1      19.438  36.740  18.312  1.00  0.00     0.010 C 
HETATM   34  C1  UNL     1      19.912  35.805  19.452  1.00  0.00     0.015 C 
BRANCH  33  35
HETATM   35  C28 UNL     1      18.010  37.019  18.538  1.00  0.00     0.022 C 
HETATM   36  C29 UNL     1      17.145  35.762  18.531  1.00  0.00     0.014 C 
BRANCH  35  37
HETATM   37  C30 UNL     1      17.386  38.112  17.721  1.00  0.00     0.054 C 
HETATM   38  C31 UNL     1      18.323  39.308  17.575  1.00  0.00     0.045 C 
HETATM   39  C32 UNL     1      16.178  38.708  18.486  1.00  0.00     0.045 C 
BRANCH  37  40
HETATM   40  O7  UNL     1      17.015  37.692  16.481  1.00  0.00    -0.390 OA
ATOM     41  H7  UNL     1      16.699  38.402  15.935  1.00  0.00     0.210 HD
ENDBRANCH  37  40
ENDBRANCH  35  37
ENDBRANCH  33  35
ENDBRANCH  32  33
ENDBRANCH   1  31
BRANCH   2  42
HETATM   42  O1  UNL     1      22.590  33.782  17.263  1.00  0.00    -0.395 OA
ATOM     43  H1  UNL     1      23.538  33.843  17.300  1.00  0.00     0.210 HD
ENDBRANCH   2  42
TORSDOF 15
ENDMDL
MODEL 4
REMARK VINA RESULT: -8.842215244      2.743     10.139
REMARK  15 active torsions:
REMARK  status: ('A' for Active; 'I' for Inactive)
REMARK    1  A    between atoms: C2_2  and  C3_3 
REMARK    2  A    between atoms: C2_2  and  C28_37 
REMARK    3  A    between atoms: C4_4  and  C5_5 
REMARK    4  A    between atoms: C6_6  and  O1_7 
REMARK    5  A    between atoms: C8_10  and  O2_11 
REMARK    6  A    between atoms: C14_18  and  O3_20 
REMARK    7  A    between atoms: O3_20  and  C16_21 
REMARK    8  A    between atoms: C16_21  and  C17_23 
REMARK    9  A    between atoms: C18_24  and  C19_25 
REMARK   10  A    between atoms: C19_25  and  C20_27 
REMARK   11  A    between atoms: C20_27  and  C21_28 
REMARK   12  A    between atoms: C21_28  and  C22_29 
REMARK   13  A    between atoms: C22_29  and  C23_30 
REMARK       I    between atoms: C23_30  and  N1_32 
REMARK   14  A    between atoms: C28_37  and  C30_39 
REMARK   15  A    between atoms: C30_39  and  O7_42 
ROOT
HETATM    1  C5  UNL     1      21.247  30.331  14.733  1.00  0.00     0.042 C 
HETATM    2  C6  UNL     1      22.191  31.415  15.102  1.00  0.00     0.128 C 
HETATM    3  C7  UNL     1      21.636  32.762  15.436  1.00  0.00     0.065 C 
HETATM    4  C8  UNL     1      20.170  32.722  15.900  1.00  0.00     0.132 C 
HETATM    5  C9  UNL     1      19.448  32.129  14.794  1.00  0.00     0.018 C 
HETATM    6  C10 UNL     1      19.805  32.893  13.509  1.00  0.00     0.021 C 
HETATM    7  C11 UNL     1      19.820  30.669  14.669  1.00  0.00     0.009 C 
HETATM    8  C12 UNL     1      19.090  30.376  13.388  1.00  0.00     0.009 C 
HETATM    9  C13 UNL     1      17.747  31.034  13.662  1.00  0.00     0.039 C 
HETATM   10  C14 UNL     1      17.969  32.037  14.777  1.00  0.00     0.077 C 
HETATM   11  C15 UNL     1      17.321  31.542  16.016  1.00  0.00     0.047 C 
ENDROOT
BRANCH  10  12
HETATM   12  O3  UNL     1      17.460  33.320  14.476  1.00  0.00    -0.306 OA
BRANCH  12  13
HETATM   13  C16 UNL     1      16.882  34.156  15.476  1.00  0.00     0.283 C 
HETATM   14  O4  UNL     1      17.754  34.848  16.057  1.00  0.00    -0.260 OA
BRANCH  13  15
HETATM   15  C17 UNL     1      15.472  34.142  15.719  1.00  0.00     0.086 C 
HETATM   16  C18 UNL     1      14.839  34.559  16.756  1.00  0.00     0.056 C 
BRANCH  16  17
HETATM   17  C19 UNL     1      15.262  35.156  17.984  1.00  0.00     0.149 C 
HETATM   18  O5  UNL     1      15.532  34.580  19.055  1.00  0.00    -0.293 OA
BRANCH  17  19
HETATM   19  C20 UNL     1      15.412  36.662  18.045  1.00  0.00     0.083 C 
BRANCH  19  20
HETATM   20  C21 UNL     1      16.446  37.029  19.073  1.00  0.00     0.017 C 
BRANCH  20  21
HETATM   21  C22 UNL     1      17.739  37.397  18.434  1.00  0.00     0.103 C 
BRANCH  21  22
HETATM   22  C23 UNL     1      18.782  36.418  18.826  1.00  0.00     0.219 C 
HETATM   23  O6  UNL     1      18.441  35.384  19.438  1.00  0.00    -0.273 OA
HETATM   24  N1  UNL     1      20.140  36.658  18.514  1.00  0.00    -0.352 N 
HETATM   25  C24 UNL     1      21.308  35.853  18.827  1.00  0.00     0.126 C 
HETATM   26  C27 UNL     1      20.676  37.804  17.771  1.00  0.00     0.126 C 
HETATM   27  C25 UNL     1      22.224  35.952  17.616  1.00  0.00     0.021 C 
HETATM   28  C26 UNL     1      21.631  37.090  16.809  1.00  0.00     0.021 C 
ENDBRANCH  21  22
ENDBRANCH  20  21
ENDBRANCH  19  20
ENDBRANCH  17  19
ENDBRANCH  16  17
ENDBRANCH  13  15
ENDBRANCH  12  13
ENDBRANCH  10  12
BRANCH   4  29
HETATM   29  O2  UNL     1      20.192  32.060  17.107  1.00  0.00    -0.395 OA
ATOM     30  H2  UNL     1      19.599  31.325  16.998  1.00  0.00     0.210 HD
ENDBRANCH   4  29
BRANCH   1  31
HETATM   31  C4  UNL     1      21.786  29.606  13.561  1.00  0.00    -0.023 C 
HETATM   32  C3  UNL     1      21.631  28.338  13.261  1.00  0.00    -0.025 C 
BRANCH  32  33
HETATM   33  C2  UNL     1      22.194  27.674  12.067  1.00  0.00     0.010 C 
HETATM   34  C1  UNL     1      22.856  28.818  11.260  1.00  0.00     0.015 C 
BRANCH  33  35
HETATM   35  C28 UNL     1      21.266  26.976  11.160  1.00  0.00     0.022 C 
HETATM   36  C29 UNL     1      19.813  27.045  11.620  1.00  0.00     0.014 C 
BRANCH  35  37
HETATM   37  C30 UNL     1      21.638  25.586  10.735  1.00  0.00     0.054 C 
HETATM   38  C31 UNL     1      23.140  25.451  10.509  1.00  0.00     0.045 C 
HETATM   39  C32 UNL     1      21.047  25.296   9.332  1.00  0.00     0.045 C 
BRANCH  37  40
HETATM   40  O7  UNL     1      21.242  24.642  11.631  1.00  0.00    -0.390 OA
ATOM     41  H7  UNL     1      21.095  23.794  11.227  1.00  0.00     0.210 HD
ENDBRANCH  37  40
ENDBRANCH  35  37
ENDBRANCH  33  35
ENDBRANCH  32  33
ENDBRANCH   1  31
BRANCH   2  42
HETATM   42  O1  UNL     1      23.172  31.655  14.119  1.00  0.00    -0.395 OA
ATOM     43  H1  UNL     1      24.060  31.590  14.452  1.00  0.00     0.210 HD
ENDBRANCH   2  42
TORSDOF 15
ENDMDL
MODEL 5
REMARK VINA RESULT: -8.837080663      2.270      4.679
REMARK  15 active torsions:
REMARK  status: ('A' for Active; 'I' for Inactive)
REMARK    1  A    between atoms: C2_2  and  C3_3 
REMARK    2  A    between atoms: C2_2  and  C28_37 
REMARK    3  A    between atoms: C4_4  and  C5_5 
REMARK    4  A    between atoms: C6_6  and  O1_7 
REMARK    5  A    between atoms: C8_10  and  O2_11 
REMARK    6  A    between atoms: C14_18  and  O3_20 
REMARK    7  A    between atoms: O3_20  and  C16_21 
REMARK    8  A    between atoms: C16_21  and  C17_23 
REMARK    9  A    between atoms: C18_24  and  C19_25 
REMARK   10  A    between atoms: C19_25  and  C20_27 
REMARK   11  A    between atoms: C20_27  and  C21_28 
REMARK   12  A    between atoms: C21_28  and  C22_29 
REMARK   13  A    between atoms: C22_29  and  C23_30 
REMARK       I    between atoms: C23_30  and  N1_32 
REMARK   14  A    between atoms: C28_37  and  C30_39 
REMARK   15  A    between atoms: C30_39  and  O7_42 
ROOT
HETATM    1  C5  UNL     1      18.993  32.688  14.278  1.00  0.00     0.042 C 
HETATM    2  C6  UNL     1      20.350  33.281  14.387  1.00  0.00     0.128 C 
HETATM    3  C7  UNL     1      21.527  32.441  14.006  1.00  0.00     0.065 C 
HETATM    4  C8  UNL     1      21.178  31.298  13.039  1.00  0.00     0.132 C 
HETATM    5  C9  UNL     1      20.189  30.508  13.742  1.00  0.00     0.018 C 
HETATM    6  C10 UNL     1      20.737  30.165  15.136  1.00  0.00     0.021 C 
HETATM    7  C11 UNL     1      18.899  31.287  13.850  1.00  0.00     0.009 C 
HETATM    8  C12 UNL     1      18.153  30.334  14.741  1.00  0.00     0.009 C 
HETATM    9  C13 UNL     1      18.452  29.007  14.062  1.00  0.00     0.039 C 
HETATM   10  C14 UNL     1      19.687  29.219  13.209  1.00  0.00     0.077 C 
HETATM   11  C15 UNL     1      19.301  29.199  11.777  1.00  0.00     0.047 C 
ENDROOT
BRANCH  10  12
HETATM   12  O3  UNL     1      20.684  28.243  13.427  1.00  0.00    -0.306 OA
BRANCH  12  13
HETATM   13  C16 UNL     1      21.490  27.736  12.365  1.00  0.00     0.283 C 
HETATM   14  O4  UNL     1      21.029  26.660  11.911  1.00  0.00    -0.260 OA
BRANCH  13  15
HETATM   15  C17 UNL     1      22.664  28.434  11.937  1.00  0.00     0.086 C 
HETATM   16  C18 UNL     1      23.683  27.967  11.310  1.00  0.00     0.056 C 
BRANCH  16  17
HETATM   17  C19 UNL     1      24.022  26.663  10.832  1.00  0.00     0.149 C 
HETATM   18  O5  UNL     1      24.379  25.676  11.505  1.00  0.00    -0.293 OA
BRANCH  17  19
HETATM   19  C20 UNL     1      23.961  26.398   9.342  1.00  0.00     0.083 C 
BRANCH  19  20
HETATM   20  C21 UNL     1      23.151  25.159   9.079  1.00  0.00     0.017 C 
BRANCH  20  21
HETATM   21  C22 UNL     1      21.716  25.368   9.418  1.00  0.00     0.103 C 
BRANCH  21  22
HETATM   22  C23 UNL     1      20.874  25.012   8.250  1.00  0.00     0.219 C 
HETATM   23  O6  UNL     1      21.306  24.182   7.423  1.00  0.00    -0.273 OA
HETATM   24  N1  UNL     1      19.604  25.609   8.077  1.00  0.00    -0.352 N 
HETATM   25  C24 UNL     1      18.644  25.425   7.003  1.00  0.00     0.126 C 
HETATM   26  C27 UNL     1      18.958  26.564   8.983  1.00  0.00     0.126 C 
HETATM   27  C25 UNL     1      17.271  25.449   7.657  1.00  0.00     0.021 C 
HETATM   28  C26 UNL     1      17.547  25.972   9.053  1.00  0.00     0.021 C 
ENDBRANCH  21  22
ENDBRANCH  20  21
ENDBRANCH  19  20
ENDBRANCH  17  19
ENDBRANCH  16  17
ENDBRANCH  13  15
ENDBRANCH  12  13
ENDBRANCH  10  12
BRANCH   4  29
HETATM   29  O2  UNL     1      20.815  31.919  11.864  1.00  0.00    -0.395 OA
ATOM     30  H2  UNL     1      21.460  31.639  11.225  1.00  0.00     0.210 HD
ENDBRANCH   4  29
BRANCH   1  31
HETATM   31  C4  UNL     1      18.220  33.040  15.489  1.00  0.00    -0.023 C 
HETATM   32  C3  UNL     1      17.113  33.742  15.559  1.00  0.00    -0.025 C 
BRANCH  32  33
HETATM   33  C2  UNL     1      16.384  34.056  16.804  1.00  0.00     0.010 C 
HETATM   34  C1  UNL     1      15.118  33.163  16.751  1.00  0.00     0.015 C 
BRANCH  33  35
HETATM   35  C28 UNL     1      15.933  35.443  17.013  1.00  0.00     0.022 C 
HETATM   36  C29 UNL     1      16.316  36.376  15.869  1.00  0.00     0.014 C 
BRANCH  35  37
HETATM   37  C30 UNL     1      16.227  36.067  18.346  1.00  0.00     0.054 C 
HETATM   38  C31 UNL     1      16.056  37.582  18.307  1.00  0.00     0.045 C 
HETATM   39  C32 UNL     1      17.731  35.894  18.680  1.00  0.00     0.045 C 
BRANCH  37  40
HETATM   40  O7  UNL     1      15.449  35.562  19.342  1.00  0.00    -0.390 OA
ATOM     41  H7  UNL     1      15.957  35.269  20.089  1.00  0.00     0.210 HD
ENDBRANCH  37  40
ENDBRANCH  35  37
ENDBRANCH  33  35
ENDBRANCH  32  33
ENDBRANCH   1  31
BRANCH   2  42
HETATM   42  O1  UNL     1      20.644  33.762  15.679  1.00  0.00    -0.395 OA
ATOM     43  H1  UNL     1      21.570  33.921  15.817  1.00  0.00     0.210 HD
ENDBRANCH   2  42
TORSDOF 15
ENDMDL
