MODEL 1
REMARK VINA RESULT: -7.539849134      0.000      0.000
REMARK  16 active torsions:
REMARK  status: ('A' for Active; 'I' for Inactive)
REMARK    1  A    between atoms: C2_2  and  C3_3 
REMARK    2  A    between atoms: C3_3  and  C4_4 
REMARK    3  A    between atoms: C4_4  and  C5_5 
REMARK    4  A    between atoms: C5_5  and  C6_6 
REMARK    5  A    between atoms: C6_6  and  C7_7 
REMARK    6  A    between atoms: C7_7  and  C8_8 
REMARK    7  A    between atoms: C8_8  and  C9_9 
REMARK    8  A    between atoms: C9_9  and  C10_10 
REMARK    9  A    between atoms: C10_10  and  C11_11 
REMARK   10  A    between atoms: C11_11  and  C12_12 
REMARK   11  A    between atoms: C12_12  and  C13_13 
REMARK   12  A    between atoms: C13_13  and  C14_14 
REMARK   13  A    between atoms: C14_14  and  C15_15 
REMARK   14  A    between atoms: C15_15  and  C16_16 
REMARK       I    between atoms: C16_16  and  N1_18 
REMARK   15  A    between atoms: N1_18  and  C17_20 
REMARK   16  A    between atoms: C20_24  and  N2_25 
REMARK       I    between atoms: N2_25  and  C21_27 
REMARK       I    between atoms: C21_27  and  N3_29 
ROOT
HETATM    1  C17 UNL     1      21.712  29.635  13.557  1.00  0.00     0.352 C 
HETATM    2  C18 UNL     1      22.717  28.554  13.098  1.00  0.00     0.228 C 
HETATM    3  O2  UNL     1      22.107  27.869  12.072  1.00  0.00    -0.351 OA
HETATM    4  C19 UNL     1      21.104  28.646  11.531  1.00  0.00     0.393 C 
HETATM    5  C20 UNL     1      19.772  28.004  11.423  1.00  0.00     0.217 C 
HETATM    6  C27 UNL     1      18.830  29.154  11.704  1.00  0.00     0.187 C 
HETATM    7  O4  UNL     1      17.741  29.291  11.225  1.00  0.00    -0.293 OA
HETATM    8  C28 UNL     1      19.569  30.000  12.660  1.00  0.00     0.296 C 
HETATM    9  C29 UNL     1      19.139  31.445  12.654  1.00  0.00     0.051 C 
HETATM   10  N5  UNL     1      20.975  29.820  12.366  1.00  0.00     0.156 N 
ENDROOT
BRANCH   1  11
HETATM   11  N1  UNL     1      22.419  30.778  14.051  1.00  0.00    -0.329 N 
HETATM   12  C16 UNL     1      21.922  31.483  15.179  1.00  0.00     0.222 C 
HETATM   13  O1  UNL     1      20.879  31.092  15.746  1.00  0.00    -0.273 OA
ATOM     14  H1  UNL     1      23.276  31.085  13.593  1.00  0.00     0.164 HD
BRANCH  12  15
HETATM   15  C15 UNL     1      22.697  32.676  15.637  1.00  0.00     0.130 C 
BRANCH  15  16
HETATM   16  C14 UNL     1      22.302  33.082  16.971  1.00  0.00    -0.018 C 
BRANCH  16  17
HETATM   17  C13 UNL     1      21.647  34.300  17.398  1.00  0.00    -0.008 C 
BRANCH  17  18
HETATM   18  C12 UNL     1      20.254  34.602  17.391  1.00  0.00    -0.027 C 
BRANCH  18  19
HETATM   19  C11 UNL     1      19.095  33.982  16.792  1.00  0.00     0.027 C 
BRANCH  19  20
HETATM   20  C10 UNL     1      18.877  33.993  15.349  1.00  0.00     0.004 C 
BRANCH  20  21
HETATM   21  C9  UNL     1      17.392  33.921  14.962  1.00  0.00     0.000 C 
BRANCH  21  22
HETATM   22  C8  UNL     1      16.853  32.579  15.297  1.00  0.00     0.000 C 
BRANCH  22  23
HETATM   23  C7  UNL     1      15.618  32.634  16.155  1.00  0.00     0.000 C 
BRANCH  23  24
HETATM   24  C6  UNL     1      15.232  34.013  16.608  1.00  0.00     0.000 C 
BRANCH  24  25
HETATM   25  C5  UNL     1      15.376  34.147  18.101  1.00  0.00     0.000 C 
BRANCH  25  26
HETATM   26  C4  UNL     1      15.943  35.475  18.543  1.00  0.00     0.000 C 
BRANCH  26  27
HETATM   27  C3  UNL     1      15.867  36.435  17.384  1.00  0.00    -0.000 C 
BRANCH  27  28
HETATM   28  C2  UNL     1      17.096  37.289  17.226  1.00  0.00    -0.005 C 
HETATM   29  C1  UNL     1      17.961  37.283  18.468  1.00  0.00     0.005 C 
ENDBRANCH  27  28
ENDBRANCH  26  27
ENDBRANCH  25  26
ENDBRANCH  24  25
ENDBRANCH  23  24
ENDBRANCH  22  23
ENDBRANCH  21  22
ENDBRANCH  20  21
ENDBRANCH  19  20
ENDBRANCH  18  19
ENDBRANCH  17  18
ENDBRANCH  16  17
ENDBRANCH  15  16
ENDBRANCH  12  15
ENDBRANCH   1  11
BRANCH   5  30
HETATM   30  N2  UNL     1      19.451  27.567  10.067  1.00  0.00    -0.327 N 
HETATM   31  C21 UNL     1      19.124  26.229   9.836  1.00  0.00     0.319 C 
HETATM   32  O3  UNL     1      19.108  25.411  10.813  1.00  0.00    -0.247 OA
HETATM   33  N3  UNL     1      18.802  25.700   8.574  1.00  0.00    -0.331 N 
HETATM   34  C22 UNL     1      18.446  24.293   8.435  1.00  0.00     0.157 C 
HETATM   35  C26 UNL     1      18.808  26.455   7.332  1.00  0.00     0.157 C 
HETATM   36  C23 UNL     1      18.780  23.855   7.044  1.00  0.00     0.291 C 
HETATM   37  N4  UNL     1      20.010  24.456   6.573  1.00  0.00     0.087 N 
HETATM   38  C24 UNL     1      21.080  24.036   7.459  1.00  0.00     0.310 C 
HETATM   39  C25 UNL     1      19.907  25.887   6.448  1.00  0.00     0.291 C 
ATOM     40  H2  UNL     1      19.466  28.233   9.295  1.00  0.00     0.165 HD
ENDBRANCH   5  30
TORSDOF 16
ENDMDL
MODEL 2
REMARK VINA RESULT: -7.523579320      0.937      2.286
REMARK  16 active torsions:
REMARK  status: ('A' for Active; 'I' for Inactive)
REMARK    1  A    between atoms: C2_2  and  C3_3 
REMARK    2  A    between atoms: C3_3  and  C4_4 
REMARK    3  A    between atoms: C4_4  and  C5_5 
REMARK    4  A    between atoms: C5_5  and  C6_6 
REMARK    5  A    between atoms: C6_6  and  C7_7 
REMARK    6  A    between atoms: C7_7  and  C8_8 
REMARK    7  A    between atoms: C8_8  and  C9_9 
REMARK    8  A    between atoms: C9_9  and  C10_10 
REMARK    9  A    between atoms: C10_10  and  C11_11 
REMARK   10  A    between atoms: C11_11  and  C12_12 
REMARK   11  A    between atoms: C12_12  and  C13_13 
REMARK   12  A    between atoms: C13_13  and  C14_14 
REMARK   13  A    between atoms: C14_14  and  C15_15 
REMARK   14  A    between atoms: C15_15  and  C16_16 
REMARK       I    between atoms: C16_16  and  N1_18 
REMARK   15  A    between atoms: N1_18  and  C17_20 
REMARK   16  A    between atoms: C20_24  and  N2_25 
REMARK       I    between atoms: N2_25  and  C21_27 
REMARK       I    between atoms: C21_27  and  N3_29 
ROOT
HETATM    1  C17 UNL     1      21.675  30.062  13.905  1.00  0.00     0.352 C 
HETATM    2  C18 UNL     1      22.579  28.891  13.457  1.00  0.00     0.228 C 
HETATM    3  O2  UNL     1      21.869  28.195  12.507  1.00  0.00    -0.351 OA
HETATM    4  C19 UNL     1      20.890  29.008  11.975  1.00  0.00     0.393 C 
HETATM    5  C20 UNL     1      19.515  28.454  11.974  1.00  0.00     0.217 C 
HETATM    6  C27 UNL     1      18.668  29.679  12.237  1.00  0.00     0.187 C 
HETATM    7  O4  UNL     1      17.565  29.864  11.809  1.00  0.00    -0.293 OA
HETATM    8  C28 UNL     1      19.514  30.524  13.102  1.00  0.00     0.296 C 
HETATM    9  C29 UNL     1      19.180  31.992  13.034  1.00  0.00     0.051 C 
HETATM   10  N5  UNL     1      20.885  30.232  12.745  1.00  0.00     0.156 N 
ENDROOT
BRANCH   1  11
HETATM   11  N1  UNL     1      22.482  31.180  14.293  1.00  0.00    -0.329 N 
HETATM   12  C16 UNL     1      22.135  31.936  15.444  1.00  0.00     0.222 C 
HETATM   13  O1  UNL     1      21.135  31.613  16.122  1.00  0.00    -0.273 OA
ATOM     14  H1  UNL     1      23.304  31.431  13.744  1.00  0.00     0.164 HD
BRANCH  12  15
HETATM   15  C15 UNL     1      23.008  33.099  15.788  1.00  0.00     0.130 C 
BRANCH  15  16
HETATM   16  C14 UNL     1      22.321  34.038  16.651  1.00  0.00    -0.018 C 
BRANCH  16  17
HETATM   17  C13 UNL     1      21.287  34.995  16.320  1.00  0.00    -0.008 C 
BRANCH  17  18
HETATM   18  C12 UNL     1      19.891  34.914  16.592  1.00  0.00    -0.027 C 
BRANCH  18  19
HETATM   19  C11 UNL     1      19.105  34.311  17.644  1.00  0.00     0.027 C 
BRANCH  19  20
HETATM   20  C10 UNL     1      18.581  35.096  18.757  1.00  0.00     0.004 C 
BRANCH  20  21
HETATM   21  C9  UNL     1      18.132  36.507  18.342  1.00  0.00     0.000 C 
BRANCH  21  22
HETATM   22  C8  UNL     1      16.767  36.769  18.865  1.00  0.00     0.000 C 
BRANCH  22  23
HETATM   23  C7  UNL     1      15.706  36.724  17.799  1.00  0.00     0.000 C 
BRANCH  23  24
HETATM   24  C6  UNL     1      14.744  35.577  17.922  1.00  0.00     0.000 C 
BRANCH  24  25
HETATM   25  C5  UNL     1      15.227  34.385  17.140  1.00  0.00     0.000 C 
BRANCH  25  26
HETATM   26  C4  UNL     1      15.915  34.743  15.843  1.00  0.00     0.000 C 
BRANCH  26  27
HETATM   27  C3  UNL     1      16.568  33.502  15.293  1.00  0.00    -0.000 C 
BRANCH  27  28
HETATM   28  C2  UNL     1      16.126  32.235  15.974  1.00  0.00    -0.005 C 
HETATM   29  C1  UNL     1      17.229  31.201  16.032  1.00  0.00     0.005 C 
ENDBRANCH  27  28
ENDBRANCH  26  27
ENDBRANCH  25  26
ENDBRANCH  24  25
ENDBRANCH  23  24
ENDBRANCH  22  23
ENDBRANCH  21  22
ENDBRANCH  20  21
ENDBRANCH  19  20
ENDBRANCH  18  19
ENDBRANCH  17  18
ENDBRANCH  16  17
ENDBRANCH  15  16
ENDBRANCH  12  15
ENDBRANCH   1  11
BRANCH   5  30
HETATM   30  N2  UNL     1      19.091  27.966  10.665  1.00  0.00    -0.327 N 
HETATM   31  C21 UNL     1      18.734  26.624  10.515  1.00  0.00     0.319 C 
HETATM   32  O3  UNL     1      18.783  25.847  11.524  1.00  0.00    -0.247 OA
HETATM   33  N3  UNL     1      18.315  26.049   9.302  1.00  0.00    -0.331 N 
HETATM   34  C22 UNL     1      17.935  24.642   9.249  1.00  0.00     0.157 C 
HETATM   35  C26 UNL     1      18.236  26.752   8.034  1.00  0.00     0.157 C 
HETATM   36  C23 UNL     1      18.161  24.144   7.856  1.00  0.00     0.291 C 
HETATM   37  N4  UNL     1      19.359  24.709   7.271  1.00  0.00     0.087 N 
HETATM   38  C24 UNL     1      20.487  24.311   8.092  1.00  0.00     0.310 C 
HETATM   39  C25 UNL     1      19.260  26.136   7.095  1.00  0.00     0.291 C 
ATOM     40  H2  UNL     1      19.054  28.600   9.867  1.00  0.00     0.165 HD
ENDBRANCH   5  30
TORSDOF 16
ENDMDL
MODEL 3
REMARK VINA RESULT: -7.500876110      1.873      3.709
REMARK  16 active torsions:
REMARK  status: ('A' for Active; 'I' for Inactive)
REMARK    1  A    between atoms: C2_2  and  C3_3 
REMARK    2  A    between atoms: C3_3  and  C4_4 
REMARK    3  A    between atoms: C4_4  and  C5_5 
REMARK    4  A    between atoms: C5_5  and  C6_6 
REMARK    5  A    between atoms: C6_6  and  C7_7 
REMARK    6  A    between atoms: C7_7  and  C8_8 
REMARK    7  A    between atoms: C8_8  and  C9_9 
REMARK    8  A    between atoms: C9_9  and  C10_10 
REMARK    9  A    between atoms: C10_10  and  C11_11 
REMARK   10  A    between atoms: C11_11  and  C12_12 
REMARK   11  A    between atoms: C12_12  and  C13_13 
REMARK   12  A    between atoms: C13_13  and  C14_14 
REMARK   13  A    between atoms: C14_14  and  C15_15 
REMARK   14  A    between atoms: C15_15  and  C16_16 
REMARK       I    between atoms: C16_16  and  N1_18 
REMARK   15  A    between atoms: N1_18  and  C17_20 
REMARK   16  A    between atoms: C20_24  and  N2_25 
REMARK       I    between atoms: N2_25  and  C21_27 
REMARK       I    between atoms: C21_27  and  N3_29 
ROOT
HETATM    1  C17 UNL     1      20.438  31.411  16.086  1.00  0.00     0.352 C 
HETATM    2  C18 UNL     1      19.723  30.182  16.691  1.00  0.00     0.228 C 
HETATM    3  O2  UNL     1      19.700  29.223  15.705  1.00  0.00    -0.351 OA
HETATM    4  C19 UNL     1      20.682  29.495  14.774  1.00  0.00     0.393 C 
HETATM    5  C20 UNL     1      20.242  29.538  13.360  1.00  0.00     0.217 C 
HETATM    6  C27 UNL     1      21.107  30.636  12.781  1.00  0.00     0.187 C 
HETATM    7  O4  UNL     1      21.515  30.677  11.655  1.00  0.00    -0.293 OA
HETATM    8  C28 UNL     1      21.298  31.574  13.903  1.00  0.00     0.296 C 
HETATM    9  C29 UNL     1      22.546  32.412  13.792  1.00  0.00     0.051 C 
HETATM   10  N5  UNL     1      21.248  30.782  15.113  1.00  0.00     0.156 N 
ENDROOT
BRANCH   1  11
HETATM   11  N1  UNL     1      21.126  32.129  17.116  1.00  0.00    -0.329 N 
HETATM   12  C16 UNL     1      21.194  33.547  17.064  1.00  0.00     0.222 C 
HETATM   13  O1  UNL     1      20.640  34.162  16.128  1.00  0.00    -0.273 OA
ATOM     14  H1  UNL     1      21.566  31.624  17.885  1.00  0.00     0.164 HD
BRANCH  12  15
HETATM   15  C15 UNL     1      21.938  34.238  18.161  1.00  0.00     0.130 C 
BRANCH  15  16
HETATM   16  C14 UNL     1      21.155  35.314  18.733  1.00  0.00    -0.018 C 
BRANCH  16  17
HETATM   17  C13 UNL     1      19.855  35.260  19.367  1.00  0.00    -0.008 C 
BRANCH  17  18
HETATM   18  C12 UNL     1      18.632  35.840  18.921  1.00  0.00    -0.027 C 
BRANCH  18  19
HETATM   19  C11 UNL     1      18.283  36.759  17.862  1.00  0.00     0.027 C 
BRANCH  19  20
HETATM   20  C10 UNL     1      16.944  37.328  17.750  1.00  0.00     0.004 C 
BRANCH  20  21
HETATM   21  C9  UNL     1      16.014  36.916  18.902  1.00  0.00     0.000 C 
BRANCH  21  22
HETATM   22  C8  UNL     1      14.627  36.762  18.394  1.00  0.00     0.000 C 
BRANCH  22  23
HETATM   23  C7  UNL     1      14.401  35.456  17.682  1.00  0.00     0.000 C 
BRANCH  23  24
HETATM   24  C6  UNL     1      15.231  34.313  18.191  1.00  0.00     0.000 C 
BRANCH  24  25
HETATM   25  C5  UNL     1      15.573  33.360  17.077  1.00  0.00     0.000 C 
BRANCH  25  26
HETATM   26  C4  UNL     1      17.031  33.380  16.682  1.00  0.00     0.000 C 
BRANCH  26  27
HETATM   27  C3  UNL     1      17.160  34.112  15.371  1.00  0.00    -0.000 C 
BRANCH  27  28
HETATM   28  C2  UNL     1      17.878  33.325  14.308  1.00  0.00    -0.005 C 
HETATM   29  C1  UNL     1      17.414  31.886  14.250  1.00  0.00     0.005 C 
ENDBRANCH  27  28
ENDBRANCH  26  27
ENDBRANCH  25  26
ENDBRANCH  24  25
ENDBRANCH  23  24
ENDBRANCH  22  23
ENDBRANCH  21  22
ENDBRANCH  20  21
ENDBRANCH  19  20
ENDBRANCH  18  19
ENDBRANCH  17  18
ENDBRANCH  16  17
ENDBRANCH  15  16
ENDBRANCH  12  15
ENDBRANCH   1  11
BRANCH   5  30
HETATM   30  N2  UNL     1      20.592  28.336  12.609  1.00  0.00    -0.327 N 
HETATM   31  C21 UNL     1      19.797  27.943  11.530  1.00  0.00     0.319 C 
HETATM   32  O3  UNL     1      18.779  28.642  11.216  1.00  0.00    -0.247 OA
HETATM   33  N3  UNL     1      20.040  26.804  10.742  1.00  0.00    -0.331 N 
HETATM   34  C22 UNL     1      19.169  26.490   9.617  1.00  0.00     0.157 C 
HETATM   35  C26 UNL     1      21.119  25.857  10.964  1.00  0.00     0.157 C 
HETATM   36  C23 UNL     1      19.216  25.013   9.379  1.00  0.00     0.291 C 
HETATM   37  N4  UNL     1      19.279  24.271  10.621  1.00  0.00     0.087 N 
HETATM   38  C24 UNL     1      18.083  24.578  11.384  1.00  0.00     0.310 C 
HETATM   39  C25 UNL     1      20.496  24.524  11.349  1.00  0.00     0.291 C 
ATOM     40  H2  UNL     1      21.412  27.787  12.870  1.00  0.00     0.165 HD
ENDBRANCH   5  30
TORSDOF 16
ENDMDL
MODEL 4
REMARK VINA RESULT: -7.460533206      1.017      1.191
REMARK  16 active torsions:
REMARK  status: ('A' for Active; 'I' for Inactive)
REMARK    1  A    between atoms: C2_2  and  C3_3 
REMARK    2  A    between atoms: C3_3  and  C4_4 
REMARK    3  A    between atoms: C4_4  and  C5_5 
REMARK    4  A    between atoms: C5_5  and  C6_6 
REMARK    5  A    between atoms: C6_6  and  C7_7 
REMARK    6  A    between atoms: C7_7  and  C8_8 
REMARK    7  A    between atoms: C8_8  and  C9_9 
REMARK    8  A    between atoms: C9_9  and  C10_10 
REMARK    9  A    between atoms: C10_10  and  C11_11 
REMARK   10  A    between atoms: C11_11  and  C12_12 
REMARK   11  A    between atoms: C12_12  and  C13_13 
REMARK   12  A    between atoms: C13_13  and  C14_14 
REMARK   13  A    between atoms: C14_14  and  C15_15 
REMARK   14  A    between atoms: C15_15  and  C16_16 
REMARK       I    between atoms: C16_16  and  N1_18 
REMARK   15  A    between atoms: N1_18  and  C17_20 
REMARK   16  A    between atoms: C20_24  and  N2_25 
REMARK       I    between atoms: N2_25  and  C21_27 
REMARK       I    between atoms: C21_27  and  N3_29 
ROOT
HETATM    1  C17 UNL     1      21.310  30.159  14.160  1.00  0.00     0.352 C 
HETATM    2  C18 UNL     1      22.303  29.075  13.684  1.00  0.00     0.228 C 
HETATM    3  O2  UNL     1      21.649  28.351  12.714  1.00  0.00    -0.351 OA
HETATM    4  C19 UNL     1      20.610  29.099  12.201  1.00  0.00     0.393 C 
HETATM    5  C20 UNL     1      19.282  28.440  12.182  1.00  0.00     0.217 C 
HETATM    6  C27 UNL     1      18.342  29.588  12.476  1.00  0.00     0.187 C 
HETATM    7  O4  UNL     1      17.228  29.698  12.051  1.00  0.00    -0.293 OA
HETATM    8  C28 UNL     1      19.119  30.472  13.365  1.00  0.00     0.296 C 
HETATM    9  C29 UNL     1      18.672  31.912  13.337  1.00  0.00     0.051 C 
HETATM   10  N5  UNL     1      20.510  30.299  13.004  1.00  0.00     0.156 N 
ENDROOT
BRANCH   1  11
HETATM   11  N1  UNL     1      22.027  31.325  14.580  1.00  0.00    -0.329 N 
HETATM   12  C16 UNL     1      21.720  31.933  15.827  1.00  0.00     0.222 C 
HETATM   13  O1  UNL     1      20.836  31.438  16.559  1.00  0.00    -0.273 OA
ATOM     14  H1  UNL     1      22.757  31.718  13.986  1.00  0.00     0.164 HD
BRANCH  12  15
HETATM   15  C15 UNL     1      22.494  33.156  16.202  1.00  0.00     0.130 C 
BRANCH  15  16
HETATM   16  C14 UNL     1      21.802  34.363  15.797  1.00  0.00    -0.018 C 
BRANCH  16  17
HETATM   17  C13 UNL     1      21.160  35.367  16.619  1.00  0.00    -0.008 C 
BRANCH  17  18
HETATM   18  C12 UNL     1      19.884  35.306  17.249  1.00  0.00    -0.027 C 
BRANCH  18  19
HETATM   19  C11 UNL     1      18.956  34.236  17.539  1.00  0.00     0.027 C 
BRANCH  19  20
HETATM   20  C10 UNL     1      18.156  33.610  16.492  1.00  0.00     0.004 C 
BRANCH  20  21
HETATM   21  C9  UNL     1      17.368  34.623  15.646  1.00  0.00     0.000 C 
BRANCH  21  22
HETATM   22  C8  UNL     1      15.924  34.273  15.665  1.00  0.00     0.000 C 
BRANCH  22  23
HETATM   23  C7  UNL     1      15.541  33.404  16.832  1.00  0.00     0.000 C 
BRANCH  23  24
HETATM   24  C6  UNL     1      15.111  34.157  18.058  1.00  0.00     0.000 C 
BRANCH  24  25
HETATM   25  C5  UNL     1      14.335  35.392  17.685  1.00  0.00     0.000 C 
BRANCH  25  26
HETATM   26  C4  UNL     1      14.791  36.640  18.403  1.00  0.00     0.000 C 
BRANCH  26  27
HETATM   27  C3  UNL     1      16.185  36.406  18.926  1.00  0.00    -0.000 C 
BRANCH  27  28
HETATM   28  C2  UNL     1      17.159  37.491  18.553  1.00  0.00    -0.005 C 
HETATM   29  C1  UNL     1      16.951  37.986  17.139  1.00  0.00     0.005 C 
ENDBRANCH  27  28
ENDBRANCH  26  27
ENDBRANCH  25  26
ENDBRANCH  24  25
ENDBRANCH  23  24
ENDBRANCH  22  23
ENDBRANCH  21  22
ENDBRANCH  20  21
ENDBRANCH  19  20
ENDBRANCH  18  19
ENDBRANCH  17  18
ENDBRANCH  16  17
ENDBRANCH  15  16
ENDBRANCH  12  15
ENDBRANCH   1  11
BRANCH   5  30
HETATM   30  N2  UNL     1      18.897  27.956  10.860  1.00  0.00    -0.327 N 
HETATM   31  C21 UNL     1      18.588  26.606  10.686  1.00  0.00     0.319 C 
HETATM   32  O3  UNL     1      18.645  25.817  11.685  1.00  0.00    -0.247 OA
HETATM   33  N3  UNL     1      18.209  26.033   9.458  1.00  0.00    -0.331 N 
HETATM   34  C22 UNL     1      17.878  24.616   9.380  1.00  0.00     0.157 C 
HETATM   35  C26 UNL     1      18.129  26.751   8.198  1.00  0.00     0.157 C 
HETATM   36  C23 UNL     1      18.144  24.144   7.985  1.00  0.00     0.291 C 
HETATM   37  N4  UNL     1      19.333  24.757   7.429  1.00  0.00     0.087 N 
HETATM   38  C24 UNL     1      20.459  24.385   8.266  1.00  0.00     0.310 C 
HETATM   39  C25 UNL     1      19.190  26.181   7.270  1.00  0.00     0.291 C 
ATOM     40  H2  UNL     1      18.854  28.600  10.069  1.00  0.00     0.165 HD
ENDBRANCH   5  30
TORSDOF 16
ENDMDL
MODEL 5
REMARK VINA RESULT: -7.304208299      1.934      3.895
REMARK  16 active torsions:
REMARK  status: ('A' for Active; 'I' for Inactive)
REMARK    1  A    between atoms: C2_2  and  C3_3 
REMARK    2  A    between atoms: C3_3  and  C4_4 
REMARK    3  A    between atoms: C4_4  and  C5_5 
REMARK    4  A    between atoms: C5_5  and  C6_6 
REMARK    5  A    between atoms: C6_6  and  C7_7 
REMARK    6  A    between atoms: C7_7  and  C8_8 
REMARK    7  A    between atoms: C8_8  and  C9_9 
REMARK    8  A    between atoms: C9_9  and  C10_10 
REMARK    9  A    between atoms: C10_10  and  C11_11 
REMARK   10  A    between atoms: C11_11  and  C12_12 
REMARK   11  A    between atoms: C12_12  and  C13_13 
REMARK   12  A    between atoms: C13_13  and  C14_14 
REMARK   13  A    between atoms: C14_14  and  C15_15 
REMARK   14  A    between atoms: C15_15  and  C16_16 
REMARK       I    between atoms: C16_16  and  N1_18 
REMARK   15  A    between atoms: N1_18  and  C17_20 
REMARK   16  A    between atoms: C20_24  and  N2_25 
REMARK       I    between atoms: N2_25  and  C21_27 
REMARK       I    between atoms: C21_27  and  N3_29 
ROOT
HETATM    1  C17 UNL     1      20.386  31.709  16.198  1.00  0.00     0.352 C 
HETATM    2  C18 UNL     1      19.823  30.403  16.805  1.00  0.00     0.228 C 
HETATM    3  O2  UNL     1      19.862  29.462  15.802  1.00  0.00    -0.351 OA
HETATM    4  C19 UNL     1      20.775  29.848  14.843  1.00  0.00     0.393 C 
HETATM    5  C20 UNL     1      20.279  29.867  13.446  1.00  0.00     0.217 C 
HETATM    6  C27 UNL     1      21.005  31.057  12.857  1.00  0.00     0.187 C 
HETATM    7  O4  UNL     1      21.364  31.157  11.719  1.00  0.00    -0.293 OA
HETATM    8  C28 UNL     1      21.142  31.992  13.990  1.00  0.00     0.296 C 
HETATM    9  C29 UNL     1      22.292  32.956  13.849  1.00  0.00     0.051 C 
HETATM   10  N5  UNL     1      21.218  31.181  15.185  1.00  0.00     0.156 N 
ENDROOT
BRANCH   1  11
HETATM   11  N1  UNL     1      21.035  32.478  17.216  1.00  0.00    -0.329 N 
HETATM   12  C16 UNL     1      20.948  33.896  17.193  1.00  0.00     0.222 C 
HETATM   13  O1  UNL     1      20.293  34.464  16.294  1.00  0.00    -0.273 OA
ATOM     14  H1  UNL     1      21.557  32.010  17.956  1.00  0.00     0.164 HD
BRANCH  12  15
HETATM   15  C15 UNL     1      21.659  34.643  18.276  1.00  0.00     0.130 C 
BRANCH  15  16
HETATM   16  C14 UNL     1      22.015  35.980  17.847  1.00  0.00    -0.018 C 
BRANCH  16  17
HETATM   17  C13 UNL     1      21.421  37.247  18.219  1.00  0.00    -0.008 C 
BRANCH  17  18
HETATM   18  C12 UNL     1      20.112  37.727  17.926  1.00  0.00    -0.027 C 
BRANCH  18  19
HETATM   19  C11 UNL     1      18.815  37.101  17.805  1.00  0.00     0.027 C 
BRANCH  19  20
HETATM   20  C10 UNL     1      17.781  37.274  18.820  1.00  0.00     0.004 C 
BRANCH  20  21
HETATM   21  C9  UNL     1      16.610  38.149  18.345  1.00  0.00     0.000 C 
BRANCH  21  22
HETATM   22  C8  UNL     1      15.328  37.565  18.816  1.00  0.00     0.000 C 
BRANCH  22  23
HETATM   23  C7  UNL     1      15.328  36.061  18.817  1.00  0.00     0.000 C 
BRANCH  23  24
HETATM   24  C6  UNL     1      14.545  35.435  17.698  1.00  0.00     0.000 C 
BRANCH  24  25
HETATM   25  C5  UNL     1      15.427  34.553  16.854  1.00  0.00     0.000 C 
BRANCH  25  26
HETATM   26  C4  UNL     1      16.280  35.311  15.865  1.00  0.00     0.000 C 
BRANCH  26  27
HETATM   27  C3  UNL     1      16.943  34.316  14.948  1.00  0.00    -0.000 C 
BRANCH  27  28
HETATM   28  C2  UNL     1      16.901  32.902  15.461  1.00  0.00    -0.005 C 
HETATM   29  C1  UNL     1      17.278  31.894  14.396  1.00  0.00     0.005 C 
ENDBRANCH  27  28
ENDBRANCH  26  27
ENDBRANCH  25  26
ENDBRANCH  24  25
ENDBRANCH  23  24
ENDBRANCH  22  23
ENDBRANCH  21  22
ENDBRANCH  20  21
ENDBRANCH  19  20
ENDBRANCH  18  19
ENDBRANCH  17  18
ENDBRANCH  16  17
ENDBRANCH  15  16
ENDBRANCH  12  15
ENDBRANCH   1  11
BRANCH   5  30
HETATM   30  N2  UNL     1      20.723  28.719  12.660  1.00  0.00    -0.327 N 
HETATM   31  C21 UNL     1      19.898  28.217  11.651  1.00  0.00     0.319 C 
HETATM   32  O3  UNL     1      18.772  28.772  11.429  1.00  0.00    -0.247 OA
HETATM   33  N3  UNL     1      20.224  27.117  10.838  1.00  0.00    -0.331 N 
HETATM   34  C22 UNL     1      19.309  26.683   9.788  1.00  0.00     0.157 C 
HETATM   35  C26 UNL     1      21.434  26.324  10.961  1.00  0.00     0.157 C 
HETATM   36  C23 UNL     1      19.534  25.225   9.539  1.00  0.00     0.291 C 
HETATM   37  N4  UNL     1      19.801  24.505  10.766  1.00  0.00     0.087 N 
HETATM   38  C24 UNL     1      18.644  24.652  11.629  1.00  0.00     0.310 C 
HETATM   39  C25 UNL     1      21.031  24.922  11.389  1.00  0.00     0.291 C 
ATOM     40  H2  UNL     1      21.627  28.286  12.847  1.00  0.00     0.165 HD
ENDBRANCH   5  30
TORSDOF 16
ENDMDL
