MODEL 1
REMARK VINA RESULT: -7.576855783      0.000      0.000
REMARK  16 active torsions:
REMARK  status: ('A' for Active; 'I' for Inactive)
REMARK    1  A    between atoms: C2_2  and  C3_3 
REMARK    2  A    between atoms: C3_3  and  C4_4 
REMARK    3  A    between atoms: C4_4  and  C5_5 
REMARK    4  A    between atoms: C5_5  and  C6_6 
REMARK    5  A    between atoms: C6_6  and  C7_7 
REMARK    6  A    between atoms: C7_7  and  N1_8 
REMARK       I    between atoms: N1_8  and  C8_10 
REMARK       I    between atoms: C8_10  and  N2_12 
REMARK    7  A    between atoms: N3_15  and  C11_16 
REMARK    8  A    between atoms: C11_16  and  C12_17 
REMARK    9  A    between atoms: C12_17  and  N4_18 
REMARK   10  A    between atoms: N4_18  and  C13_19 
REMARK   11  A    between atoms: N4_18  and  C18_25 
REMARK   12  A    between atoms: C13_19  and  C14_20 
REMARK   13  A    between atoms: C14_20  and  N5_21 
REMARK   14  A    between atoms: N5_21  and  C16_23 
REMARK   15  A    between atoms: C18_25  and  C19_26 
REMARK   16  A    between atoms: N6_31  and  C23_33 
ROOT
HETATM    1  C12 UNL     1      21.657  31.050  14.988  1.00  0.00     0.078 C 
ENDROOT
BRANCH   1   2
HETATM    2  C11 UNL     1      21.287  32.430  14.534  1.00  0.00     0.169 C 
BRANCH   2   3
HETATM    3  N3  UNL     1      20.609  33.211  15.531  1.00  0.00    -0.352 N 
HETATM    4  C10 UNL     1      21.331  33.614  16.758  1.00  0.00     0.146 C 
HETATM    5  C9  UNL     1      20.419  34.618  17.415  1.00  0.00     0.156 C 
HETATM    6  N2  UNL     1      19.083  34.213  16.978  1.00  0.00    -0.275 N 
HETATM    7  C8  UNL     1      17.941  34.355  17.760  1.00  0.00     0.324 C 
HETATM    8  C25 UNL     1      19.301  33.694  15.668  1.00  0.00     0.180 C 
HETATM    9  N1  UNL     1      16.613  33.979  17.416  1.00  0.00    -0.343 N 
HETATM   10  O1  UNL     1      18.054  34.881  18.921  1.00  0.00    -0.247 OA
ATOM     11  H1  UNL     1      16.441  33.555  16.505  1.00  0.00     0.164 HD
HETATM   12  S2  UNL     1      18.143  33.678  14.526  1.00  0.00    -0.040 SA
BRANCH   9  13
HETATM   13  C7  UNL     1      15.495  34.179  18.324  1.00  0.00     0.124 C 
BRANCH  13  14
HETATM   14  C6  UNL     1      14.416  34.927  17.600  1.00  0.00     0.020 C 
BRANCH  14  15
HETATM   15  C5  UNL     1      14.368  36.376  17.959  1.00  0.00     0.002 C 
BRANCH  15  16
HETATM   16  C4  UNL     1      15.153  36.749  19.180  1.00  0.00     0.000 C 
BRANCH  16  17
HETATM   17  C3  UNL     1      16.088  37.903  18.951  1.00  0.00    -0.000 C 
BRANCH  17  18
HETATM   18  C2  UNL     1      16.631  37.926  17.544  1.00  0.00    -0.005 C 
HETATM   19  C1  UNL     1      18.133  38.198  17.551  1.00  0.00     0.005 C 
ENDBRANCH  17  18
ENDBRANCH  16  17
ENDBRANCH  15  16
ENDBRANCH  14  15
ENDBRANCH  13  14
ENDBRANCH   9  13
ENDBRANCH   2   3
ENDBRANCH   1   2
BRANCH   1  20
HETATM   20  N4  UNL     1      21.278  30.049  14.090  1.00  0.00    -0.388 N 
BRANCH  20  21
HETATM   21  C13 UNL     1      22.144  28.953  13.853  1.00  0.00     0.141 C 
BRANCH  21  22
HETATM   22  C14 UNL     1      22.686  28.945  12.419  1.00  0.00     0.141 C 
BRANCH  22  23
HETATM   23  N5  UNL     1      23.178  27.672  12.089  1.00  0.00    -0.396 N 
HETATM   24  C15 UNL     1      22.282  26.623  11.822  1.00  0.00     0.148 C 
BRANCH  23  25
HETATM   25  C16 UNL     1      24.556  27.411  12.183  1.00  0.00     0.053 C 
HETATM   26  C17 UNL     1      25.146  26.692  10.994  1.00  0.00     0.054 C 
ENDBRANCH  23  25
ENDBRANCH  22  23
ENDBRANCH  21  22
ENDBRANCH  20  21
BRANCH  20  27
HETATM   27  C18 UNL     1      19.917  29.643  14.135  1.00  0.00     0.147 C 
BRANCH  27  28
HETATM   28  C19 UNL     1      19.245  29.175  12.885  1.00  0.00     0.102 C 
HETATM   29  C20 UNL     1      18.066  29.969  12.527  1.00  0.00     0.037 C 
HETATM   30  C21 UNL     1      17.071  29.364  11.568  1.00  0.00     0.084 C 
HETATM   31  S1  UNL     1      17.746  27.877  10.725  1.00  0.00    -0.094 SA
HETATM   32  C22 UNL     1      18.489  26.979  12.072  1.00  0.00     0.136 C 
HETATM   33  N6  UNL     1      18.536  25.713  12.041  1.00  0.00    -0.371 N 
HETATM   34  N7  UNL     1      18.986  27.742  13.129  1.00  0.00    -0.365 N 
ATOM     35  H6  UNL     1      18.963  25.198  12.811  1.00  0.00     0.161 HD
ATOM     36  H7  UNL     1      19.164  27.322  14.042  1.00  0.00     0.162 HD
BRANCH  33  37
HETATM   37  C23 UNL     1      17.980  24.995  10.901  1.00  0.00     0.117 C 
HETATM   38  C24 UNL     1      17.672  23.591  11.377  1.00  0.00     0.026 C 
ENDBRANCH  33  37
ENDBRANCH  27  28
ENDBRANCH  20  27
ENDBRANCH   1  20
TORSDOF 16
ENDMDL
MODEL 2
REMARK VINA RESULT: -7.487263715      2.980     10.391
REMARK  16 active torsions:
REMARK  status: ('A' for Active; 'I' for Inactive)
REMARK    1  A    between atoms: C2_2  and  C3_3 
REMARK    2  A    between atoms: C3_3  and  C4_4 
REMARK    3  A    between atoms: C4_4  and  C5_5 
REMARK    4  A    between atoms: C5_5  and  C6_6 
REMARK    5  A    between atoms: C6_6  and  C7_7 
REMARK    6  A    between atoms: C7_7  and  N1_8 
REMARK       I    between atoms: N1_8  and  C8_10 
REMARK       I    between atoms: C8_10  and  N2_12 
REMARK    7  A    between atoms: N3_15  and  C11_16 
REMARK    8  A    between atoms: C11_16  and  C12_17 
REMARK    9  A    between atoms: C12_17  and  N4_18 
REMARK   10  A    between atoms: N4_18  and  C13_19 
REMARK   11  A    between atoms: N4_18  and  C18_25 
REMARK   12  A    between atoms: C13_19  and  C14_20 
REMARK   13  A    between atoms: C14_20  and  N5_21 
REMARK   14  A    between atoms: N5_21  and  C16_23 
REMARK   15  A    between atoms: C18_25  and  C19_26 
REMARK   16  A    between atoms: N6_31  and  C23_33 
ROOT
HETATM    1  C12 UNL     1      18.342  30.986  14.980  1.00  0.00     0.078 C 
ENDROOT
BRANCH   1   2
HETATM    2  C11 UNL     1      18.583  31.355  13.547  1.00  0.00     0.169 C 
BRANCH   2   3
HETATM    3  N3  UNL     1      18.660  30.227  12.660  1.00  0.00    -0.352 N 
HETATM    4  C10 UNL     1      17.414  29.630  12.128  1.00  0.00     0.146 C 
HETATM    5  C9  UNL     1      17.884  28.682  11.055  1.00  0.00     0.156 C 
HETATM    6  N2  UNL     1      19.220  28.286  11.500  1.00  0.00    -0.275 N 
HETATM    7  C8  UNL     1      19.767  27.028  11.269  1.00  0.00     0.324 C 
HETATM    8  C25 UNL     1      19.713  29.451  12.160  1.00  0.00     0.180 C 
HETATM    9  N1  UNL     1      21.048  26.561  11.677  1.00  0.00    -0.343 N 
HETATM   10  O1  UNL     1      19.077  26.168  10.621  1.00  0.00    -0.247 OA
ATOM     11  H1  UNL     1      21.660  27.190  12.197  1.00  0.00     0.164 HD
HETATM   12  S2  UNL     1      21.301  29.776  12.296  1.00  0.00    -0.040 SA
BRANCH   9  13
HETATM   13  C7  UNL     1      21.511  25.216  11.375  1.00  0.00     0.124 C 
BRANCH  13  14
HETATM   14  C6  UNL     1      21.962  25.172   9.946  1.00  0.00     0.020 C 
BRANCH  14  15
HETATM   15  C5  UNL     1      23.415  24.861   9.801  1.00  0.00     0.002 C 
BRANCH  15  16
HETATM   16  C4  UNL     1      24.194  25.851   8.990  1.00  0.00     0.000 C 
BRANCH  16  17
HETATM   17  C3  UNL     1      24.529  27.104   9.749  1.00  0.00    -0.000 C 
BRANCH  17  18
HETATM   18  C2  UNL     1      25.245  26.812  11.044  1.00  0.00    -0.005 C 
HETATM   19  C1  UNL     1      24.578  27.545  12.206  1.00  0.00     0.005 C 
ENDBRANCH  17  18
ENDBRANCH  16  17
ENDBRANCH  15  16
ENDBRANCH  14  15
ENDBRANCH  13  14
ENDBRANCH   9  13
ENDBRANCH   2   3
ENDBRANCH   1   2
BRANCH   1  20
HETATM   20  N4  UNL     1      18.304  32.089  15.839  1.00  0.00    -0.388 N 
BRANCH  20  21
HETATM   21  C13 UNL     1      19.515  32.665  16.296  1.00  0.00     0.141 C 
BRANCH  21  22
HETATM   22  C14 UNL     1      20.580  31.605  16.597  1.00  0.00     0.141 C 
BRANCH  22  23
HETATM   23  N5  UNL     1      21.867  32.145  16.438  1.00  0.00    -0.396 N 
HETATM   24  C15 UNL     1      22.357  33.074  17.372  1.00  0.00     0.148 C 
BRANCH  23  25
HETATM   25  C16 UNL     1      22.594  31.880  15.265  1.00  0.00     0.053 C 
HETATM   26  C17 UNL     1      22.712  33.047  14.317  1.00  0.00     0.054 C 
ENDBRANCH  23  25
ENDBRANCH  22  23
ENDBRANCH  21  22
ENDBRANCH  20  21
BRANCH  20  27
HETATM   27  C18 UNL     1      17.326  33.079  15.550  1.00  0.00     0.147 C 
BRANCH  27  28
HETATM   28  C19 UNL     1      16.839  33.974  16.643  1.00  0.00     0.102 C 
HETATM   29  C20 UNL     1      15.505  33.616  17.136  1.00  0.00     0.037 C 
HETATM   30  C21 UNL     1      14.733  34.658  17.905  1.00  0.00     0.084 C 
HETATM   31  S1  UNL     1      15.797  36.068  18.412  1.00  0.00    -0.094 SA
HETATM   32  C22 UNL     1      16.706  36.415  16.920  1.00  0.00     0.136 C 
HETATM   33  N6  UNL     1      17.082  37.599  16.667  1.00  0.00    -0.371 N 
HETATM   34  N7  UNL     1      16.954  35.333  16.076  1.00  0.00    -0.365 N 
ATOM     35  H6  UNL     1      17.604  37.799  15.814  1.00  0.00     0.161 HD
ATOM     36  H7  UNL     1      17.207  35.475  15.097  1.00  0.00     0.162 HD
BRANCH  33  37
HETATM   37  C23 UNL     1      16.768  38.674  17.600  1.00  0.00     0.117 C 
HETATM   38  C24 UNL     1      17.336  39.946  17.008  1.00  0.00     0.026 C 
ENDBRANCH  33  37
ENDBRANCH  27  28
ENDBRANCH  20  27
ENDBRANCH   1  20
TORSDOF 16
ENDMDL
MODEL 3
REMARK VINA RESULT: -7.443015960      2.983     10.599
REMARK  16 active torsions:
REMARK  status: ('A' for Active; 'I' for Inactive)
REMARK    1  A    between atoms: C2_2  and  C3_3 
REMARK    2  A    between atoms: C3_3  and  C4_4 
REMARK    3  A    between atoms: C4_4  and  C5_5 
REMARK    4  A    between atoms: C5_5  and  C6_6 
REMARK    5  A    between atoms: C6_6  and  C7_7 
REMARK    6  A    between atoms: C7_7  and  N1_8 
REMARK       I    between atoms: N1_8  and  C8_10 
REMARK       I    between atoms: C8_10  and  N2_12 
REMARK    7  A    between atoms: N3_15  and  C11_16 
REMARK    8  A    between atoms: C11_16  and  C12_17 
REMARK    9  A    between atoms: C12_17  and  N4_18 
REMARK   10  A    between atoms: N4_18  and  C13_19 
REMARK   11  A    between atoms: N4_18  and  C18_25 
REMARK   12  A    between atoms: C13_19  and  C14_20 
REMARK   13  A    between atoms: C14_20  and  N5_21 
REMARK   14  A    between atoms: N5_21  and  C16_23 
REMARK   15  A    between atoms: C18_25  and  C19_26 
REMARK   16  A    between atoms: N6_31  and  C23_33 
ROOT
HETATM    1  C12 UNL     1      17.925  31.243  15.327  1.00  0.00     0.078 C 
ENDROOT
BRANCH   1   2
HETATM    2  C11 UNL     1      17.793  31.601  13.877  1.00  0.00     0.169 C 
BRANCH   2   3
HETATM    3  N3  UNL     1      18.311  30.604  12.981  1.00  0.00    -0.352 N 
HETATM    4  C10 UNL     1      17.388  29.623  12.368  1.00  0.00     0.146 C 
HETATM    5  C9  UNL     1      18.218  28.939  11.313  1.00  0.00     0.156 C 
HETATM    6  N2  UNL     1      19.583  29.028  11.831  1.00  0.00    -0.275 N 
HETATM    7  C8  UNL     1      20.553  28.053  11.617  1.00  0.00     0.324 C 
HETATM    8  C25 UNL     1      19.595  30.268  12.534  1.00  0.00     0.180 C 
HETATM    9  N1  UNL     1      21.893  28.057  12.093  1.00  0.00    -0.343 N 
HETATM   10  O1  UNL     1      20.247  27.026  10.917  1.00  0.00    -0.247 OA
ATOM     11  H1  UNL     1      22.214  28.844  12.657  1.00  0.00     0.164 HD
HETATM   12  S2  UNL     1      20.954  31.131  12.769  1.00  0.00    -0.040 SA
BRANCH   9  13
HETATM   13  C7  UNL     1      22.819  26.974  11.801  1.00  0.00     0.124 C 
BRANCH  13  14
HETATM   14  C6  UNL     1      24.218  27.507  11.867  1.00  0.00     0.020 C 
BRANCH  14  15
HETATM   15  C5  UNL     1      25.210  26.631  11.176  1.00  0.00     0.002 C 
BRANCH  15  16
HETATM   16  C4  UNL     1      24.616  25.505  10.387  1.00  0.00     0.000 C 
BRANCH  16  17
HETATM   17  C3  UNL     1      24.832  25.643   8.906  1.00  0.00    -0.000 C 
BRANCH  17  18
HETATM   18  C2  UNL     1      23.549  25.493   8.126  1.00  0.00    -0.005 C 
HETATM   19  C1  UNL     1      22.524  24.691   8.925  1.00  0.00     0.005 C 
ENDBRANCH  17  18
ENDBRANCH  16  17
ENDBRANCH  15  16
ENDBRANCH  14  15
ENDBRANCH  13  14
ENDBRANCH   9  13
ENDBRANCH   2   3
ENDBRANCH   1   2
BRANCH   1  20
HETATM   20  N4  UNL     1      17.875  32.350  16.179  1.00  0.00    -0.388 N 
BRANCH  20  21
HETATM   21  C13 UNL     1      19.059  32.804  16.811  1.00  0.00     0.141 C 
BRANCH  21  22
HETATM   22  C14 UNL     1      20.288  31.994  16.383  1.00  0.00     0.141 C 
BRANCH  22  23
HETATM   23  N5  UNL     1      21.357  32.851  16.078  1.00  0.00    -0.396 N 
HETATM   24  C15 UNL     1      21.101  34.170  15.665  1.00  0.00     0.148 C 
BRANCH  23  25
HETATM   25  C16 UNL     1      22.666  32.343  16.030  1.00  0.00     0.053 C 
HETATM   26  C17 UNL     1      23.540  32.945  14.957  1.00  0.00     0.054 C 
ENDBRANCH  23  25
ENDBRANCH  22  23
ENDBRANCH  21  22
ENDBRANCH  20  21
BRANCH  20  27
HETATM   27  C18 UNL     1      17.054  33.432  15.761  1.00  0.00     0.147 C 
BRANCH  27  28
HETATM   28  C19 UNL     1      16.562  34.418  16.770  1.00  0.00     0.102 C 
HETATM   29  C20 UNL     1      15.160  34.213  17.147  1.00  0.00     0.037 C 
HETATM   30  C21 UNL     1      14.430  35.358  17.803  1.00  0.00     0.084 C 
HETATM   31  S1  UNL     1      15.580  36.680  18.356  1.00  0.00    -0.094 SA
HETATM   32  C22 UNL     1      16.650  36.871  16.945  1.00  0.00     0.136 C 
HETATM   33  N6  UNL     1      17.164  38.000  16.686  1.00  0.00    -0.371 N 
HETATM   34  N7  UNL     1      16.863  35.732  16.167  1.00  0.00    -0.365 N 
ATOM     35  H6  UNL     1      17.778  38.110  15.879  1.00  0.00     0.161 HD
ATOM     36  H7  UNL     1      17.217  35.806  15.213  1.00  0.00     0.162 HD
BRANCH  33  37
HETATM   37  C23 UNL     1      16.876  39.141  17.546  1.00  0.00     0.117 C 
HETATM   38  C24 UNL     1      17.495  40.354  16.884  1.00  0.00     0.026 C 
ENDBRANCH  33  37
ENDBRANCH  27  28
ENDBRANCH  20  27
ENDBRANCH   1  20
TORSDOF 16
ENDMDL
MODEL 4
REMARK VINA RESULT: -7.442377228      1.140      2.026
REMARK  16 active torsions:
REMARK  status: ('A' for Active; 'I' for Inactive)
REMARK    1  A    between atoms: C2_2  and  C3_3 
REMARK    2  A    between atoms: C3_3  and  C4_4 
REMARK    3  A    between atoms: C4_4  and  C5_5 
REMARK    4  A    between atoms: C5_5  and  C6_6 
REMARK    5  A    between atoms: C6_6  and  C7_7 
REMARK    6  A    between atoms: C7_7  and  N1_8 
REMARK       I    between atoms: N1_8  and  C8_10 
REMARK       I    between atoms: C8_10  and  N2_12 
REMARK    7  A    between atoms: N3_15  and  C11_16 
REMARK    8  A    between atoms: C11_16  and  C12_17 
REMARK    9  A    between atoms: C12_17  and  N4_18 
REMARK   10  A    between atoms: N4_18  and  C13_19 
REMARK   11  A    between atoms: N4_18  and  C18_25 
REMARK   12  A    between atoms: C13_19  and  C14_20 
REMARK   13  A    between atoms: C14_20  and  N5_21 
REMARK   14  A    between atoms: N5_21  and  C16_23 
REMARK   15  A    between atoms: C18_25  and  C19_26 
REMARK   16  A    between atoms: N6_31  and  C23_33 
ROOT
HETATM    1  C12 UNL     1      21.835  30.933  14.436  1.00  0.00     0.078 C 
ENDROOT
BRANCH   1   2
HETATM    2  C11 UNL     1      20.968  31.020  15.656  1.00  0.00     0.169 C 
BRANCH   2   3
HETATM    3  N3  UNL     1      21.013  32.297  16.314  1.00  0.00    -0.352 N 
HETATM    4  C10 UNL     1      22.081  32.573  17.301  1.00  0.00     0.146 C 
HETATM    5  C9  UNL     1      21.973  34.053  17.563  1.00  0.00     0.156 C 
HETATM    6  N2  UNL     1      20.560  34.347  17.323  1.00  0.00    -0.275 N 
HETATM    7  C8  UNL     1      19.847  35.318  18.019  1.00  0.00     0.324 C 
HETATM    8  C25 UNL     1      20.199  33.437  16.287  1.00  0.00     0.180 C 
HETATM    9  N1  UNL     1      18.475  35.657  17.856  1.00  0.00    -0.343 N 
HETATM   10  O1  UNL     1      20.456  36.007  18.909  1.00  0.00    -0.247 OA
ATOM     11  H1  UNL     1      17.922  35.155  17.162  1.00  0.00     0.164 HD
HETATM   12  S2  UNL     1      18.983  33.729  15.247  1.00  0.00    -0.040 SA
BRANCH   9  13
HETATM   13  C7  UNL     1      17.838  36.698  18.647  1.00  0.00     0.124 C 
BRANCH  13  14
HETATM   14  C6  UNL     1      16.533  37.060  18.003  1.00  0.00     0.020 C 
BRANCH  14  15
HETATM   15  C5  UNL     1      15.351  36.501  18.725  1.00  0.00     0.002 C 
BRANCH  15  16
HETATM   16  C4  UNL     1      14.497  35.574  17.914  1.00  0.00     0.000 C 
BRANCH  16  17
HETATM   17  C3  UNL     1      15.074  34.192  17.796  1.00  0.00    -0.000 C 
BRANCH  17  18
HETATM   18  C2  UNL     1      15.505  33.873  16.386  1.00  0.00    -0.005 C 
HETATM   19  C1  UNL     1      15.510  32.363  16.154  1.00  0.00     0.005 C 
ENDBRANCH  17  18
ENDBRANCH  16  17
ENDBRANCH  15  16
ENDBRANCH  14  15
ENDBRANCH  13  14
ENDBRANCH   9  13
ENDBRANCH   2   3
ENDBRANCH   1   2
BRANCH   1  20
HETATM   20  N4  UNL     1      21.430  29.943  13.536  1.00  0.00    -0.388 N 
BRANCH  20  21
HETATM   21  C13 UNL     1      22.334  28.917  13.166  1.00  0.00     0.141 C 
BRANCH  21  22
HETATM   22  C14 UNL     1      22.502  28.817  11.646  1.00  0.00     0.141 C 
BRANCH  22  23
HETATM   23  N5  UNL     1      22.953  27.536  11.287  1.00  0.00    -0.396 N 
HETATM   24  C15 UNL     1      22.241  26.399  11.708  1.00  0.00     0.148 C 
BRANCH  23  25
HETATM   25  C16 UNL     1      24.196  27.388  10.649  1.00  0.00     0.053 C 
HETATM   26  C17 UNL     1      25.297  26.844  11.526  1.00  0.00     0.054 C 
ENDBRANCH  23  25
ENDBRANCH  22  23
ENDBRANCH  21  22
ENDBRANCH  20  21
BRANCH  20  27
HETATM   27  C18 UNL     1      20.108  29.446  13.699  1.00  0.00     0.147 C 
BRANCH  27  28
HETATM   28  C19 UNL     1      19.361  28.938  12.509  1.00  0.00     0.102 C 
HETATM   29  C20 UNL     1      18.193  29.754  12.165  1.00  0.00     0.037 C 
HETATM   30  C21 UNL     1      17.133  29.136  11.288  1.00  0.00     0.084 C 
HETATM   31  S1  UNL     1      17.714  27.583  10.496  1.00  0.00    -0.094 SA
HETATM   32  C22 UNL     1      18.491  26.731  11.853  1.00  0.00     0.136 C 
HETATM   33  N6  UNL     1      18.495  25.464  11.889  1.00  0.00    -0.371 N 
HETATM   34  N7  UNL     1      19.065  27.530  12.843  1.00  0.00    -0.365 N 
ATOM     35  H6  UNL     1      18.941  24.975  12.665  1.00  0.00     0.161 HD
ATOM     36  H7  UNL     1      19.274  27.153  13.768  1.00  0.00     0.162 HD
BRANCH  33  37
HETATM   37  C23 UNL     1      17.859  24.708  10.818  1.00  0.00     0.117 C 
HETATM   38  C24 UNL     1      17.460  23.370  11.404  1.00  0.00     0.026 C 
ENDBRANCH  33  37
ENDBRANCH  27  28
ENDBRANCH  20  27
ENDBRANCH   1  20
TORSDOF 16
ENDMDL
MODEL 5
REMARK VINA RESULT: -7.438143881      2.309      4.426
REMARK  16 active torsions:
REMARK  status: ('A' for Active; 'I' for Inactive)
REMARK    1  A    between atoms: C2_2  and  C3_3 
REMARK    2  A    between atoms: C3_3  and  C4_4 
REMARK    3  A    between atoms: C4_4  and  C5_5 
REMARK    4  A    between atoms: C5_5  and  C6_6 
REMARK    5  A    between atoms: C6_6  and  C7_7 
REMARK    6  A    between atoms: C7_7  and  N1_8 
REMARK       I    between atoms: N1_8  and  C8_10 
REMARK       I    between atoms: C8_10  and  N2_12 
REMARK    7  A    between atoms: N3_15  and  C11_16 
REMARK    8  A    between atoms: C11_16  and  C12_17 
REMARK    9  A    between atoms: C12_17  and  N4_18 
REMARK   10  A    between atoms: N4_18  and  C13_19 
REMARK   11  A    between atoms: N4_18  and  C18_25 
REMARK   12  A    between atoms: C13_19  and  C14_20 
REMARK   13  A    between atoms: C14_20  and  N5_21 
REMARK   14  A    between atoms: N5_21  and  C16_23 
REMARK   15  A    between atoms: C18_25  and  C19_26 
REMARK   16  A    between atoms: N6_31  and  C23_33 
ROOT
HETATM    1  C12 UNL     1      21.515  28.985  14.462  1.00  0.00     0.078 C 
ENDROOT
BRANCH   1   2
HETATM    2  C11 UNL     1      22.261  30.230  14.083  1.00  0.00     0.169 C 
BRANCH   2   3
HETATM    3  N3  UNL     1      21.659  31.441  14.570  1.00  0.00    -0.352 N 
HETATM    4  C10 UNL     1      22.198  32.086  15.787  1.00  0.00     0.146 C 
HETATM    5  C9  UNL     1      21.517  33.430  15.830  1.00  0.00     0.156 C 
HETATM    6  N2  UNL     1      20.242  33.196  15.152  1.00  0.00    -0.275 N 
HETATM    7  C8  UNL     1      19.061  33.850  15.487  1.00  0.00     0.324 C 
HETATM    8  C25 UNL     1      20.560  32.212  14.170  1.00  0.00     0.180 C 
HETATM    9  N1  UNL     1      17.783  33.673  14.888  1.00  0.00    -0.343 N 
HETATM   10  O1  UNL     1      19.084  34.715  16.429  1.00  0.00    -0.247 OA
ATOM     11  H1  UNL     1      17.683  33.002  14.127  1.00  0.00     0.164 HD
HETATM   12  S2  UNL     1      19.714  32.044  12.791  1.00  0.00    -0.040 SA
BRANCH   9  13
HETATM   13  C7  UNL     1      16.614  34.419  15.327  1.00  0.00     0.124 C 
BRANCH  13  14
HETATM   14  C6  UNL     1      15.686  33.483  16.041  1.00  0.00     0.020 C 
BRANCH  14  15
HETATM   15  C5  UNL     1      15.473  33.849  17.472  1.00  0.00     0.002 C 
BRANCH  15  16
HETATM   16  C4  UNL     1      14.600  35.047  17.694  1.00  0.00     0.000 C 
BRANCH  16  17
HETATM   17  C3  UNL     1      15.139  35.986  18.736  1.00  0.00    -0.000 C 
BRANCH  17  18
HETATM   18  C2  UNL     1      15.489  37.335  18.161  1.00  0.00    -0.005 C 
HETATM   19  C1  UNL     1      16.891  37.315  17.557  1.00  0.00     0.005 C 
ENDBRANCH  17  18
ENDBRANCH  16  17
ENDBRANCH  15  16
ENDBRANCH  14  15
ENDBRANCH  13  14
ENDBRANCH   9  13
ENDBRANCH   2   3
ENDBRANCH   1   2
BRANCH   1  20
HETATM   20  N4  UNL     1      20.984  28.301  13.364  1.00  0.00    -0.388 N 
BRANCH  20  21
HETATM   21  C13 UNL     1      19.585  28.307  13.143  1.00  0.00     0.141 C 
BRANCH  21  22
HETATM   22  C14 UNL     1      19.181  27.396  11.978  1.00  0.00     0.141 C 
BRANCH  22  23
HETATM   23  N5  UNL     1      18.296  28.066  11.117  1.00  0.00    -0.396 N 
HETATM   24  C15 UNL     1      18.239  27.713   9.758  1.00  0.00     0.148 C 
BRANCH  23  25
HETATM   25  C16 UNL     1      17.590  29.190  11.580  1.00  0.00     0.053 C 
HETATM   26  C17 UNL     1      16.204  29.346  11.005  1.00  0.00     0.054 C 
ENDBRANCH  23  25
ENDBRANCH  22  23
ENDBRANCH  21  22
ENDBRANCH  20  21
BRANCH  20  27
HETATM   27  C18 UNL     1      21.710  28.402  12.147  1.00  0.00     0.147 C 
BRANCH  27  28
HETATM   28  C19 UNL     1      22.687  27.333  11.780  1.00  0.00     0.102 C 
HETATM   29  C20 UNL     1      24.072  27.669  12.122  1.00  0.00     0.037 C 
HETATM   30  C21 UNL     1      25.175  26.902  11.438  1.00  0.00     0.084 C 
HETATM   31  S1  UNL     1      24.543  25.405  10.580  1.00  0.00    -0.094 SA
HETATM   32  C22 UNL     1      23.105  26.030   9.734  1.00  0.00     0.136 C 
HETATM   33  N6  UNL     1      22.744  25.518   8.633  1.00  0.00    -0.371 N 
HETATM   34  N7  UNL     1      22.437  27.093  10.344  1.00  0.00    -0.365 N 
ATOM     35  H6  UNL     1      21.919  25.874   8.148  1.00  0.00     0.161 HD
ATOM     36  H7  UNL     1      21.795  27.684   9.815  1.00  0.00     0.162 HD
BRANCH  33  37
HETATM   37  C23 UNL     1      23.509  24.418   8.060  1.00  0.00     0.117 C 
HETATM   38  C24 UNL     1      23.797  24.789   6.621  1.00  0.00     0.026 C 
ENDBRANCH  33  37
ENDBRANCH  27  28
ENDBRANCH  20  27
ENDBRANCH   1  20
TORSDOF 16
ENDMDL
