MODEL 1
REMARK VINA RESULT: -9.747325439      0.000      0.000
REMARK  14 active torsions:
REMARK  status: ('A' for Active; 'I' for Inactive)
REMARK    1  A    between atoms: C2_2  and  C3_3 
REMARK    2  A    between atoms: C3_3  and  C4_4 
REMARK    3  A    between atoms: C4_4  and  C5_5 
REMARK    4  A    between atoms: C5_5  and  C6_6 
REMARK    5  A    between atoms: C6_6  and  C7_7 
REMARK    6  A    between atoms: C7_7  and  C8_8 
REMARK    7  A    between atoms: C8_8  and  C9_9 
REMARK    8  A    between atoms: C9_9  and  C10_10 
REMARK    9  A    between atoms: C10_10  and  C11_11 
REMARK   10  A    between atoms: C11_11  and  C12_12 
REMARK   11  A    between atoms: C11_11  and  N4_22 
REMARK   12  A    between atoms: C19_25  and  O1_26 
REMARK   13  A    between atoms: O1_26  and  C20_27 
REMARK   14  A    between atoms: C23_30  and  C24_31 
ROOT
HETATM    1  C12 UNL     1      82.046  91.508 148.877  1.00  0.00     0.049 A 
HETATM    2  C13 UNL     1      82.016  91.823 150.219  1.00  0.00     0.045 A 
HETATM    3  C14 UNL     1      80.810  91.853 150.871  1.00  0.00     0.092 A 
HETATM    4  N1  UNL     1      79.666  91.574 150.190  1.00  0.00    -0.344 N 
ATOM      5  H1  UNL     1      78.773  91.599 150.681  1.00  0.00     0.167 HD
HETATM    6  C15 UNL     1      79.692  91.268 148.885  1.00  0.00     0.188 A 
HETATM    7  C16 UNL     1      78.495  90.964 148.124  1.00  0.00     0.137 C 
HETATM    8  N2  UNL     1      77.550  90.729 147.503  1.00  0.00    -0.188 NA
HETATM    9  N3  UNL     1      80.881  91.248 148.283  1.00  0.00    -0.335 N 
ATOM     10  H3  UNL     1      80.902  91.016 147.290  1.00  0.00     0.168 HD
ENDROOT
BRANCH   1  11
HETATM   11  C11 UNL     1      83.320  91.426 148.135  1.00  0.00     0.295 C 
BRANCH  11  12
HETATM   12  C10 UNL     1      84.309  90.440 148.596  1.00  0.00     0.011 C 
BRANCH  12  13
HETATM   13  C9  UNL     1      84.036  89.031 148.817  1.00  0.00    -0.028 C 
BRANCH  13  14
HETATM   14  C8  UNL     1      83.523  88.501 150.088  1.00  0.00     0.027 C 
BRANCH  14  15
HETATM   15  C7  UNL     1      82.110  87.951 150.039  1.00  0.00     0.004 C 
BRANCH  15  16
HETATM   16  C6  UNL     1      82.067  86.713 149.142  1.00  0.00     0.000 C 
BRANCH  16  17
HETATM   17  C5  UNL     1      81.188  85.666 149.747  1.00  0.00     0.000 C 
BRANCH  17  18
HETATM   18  C4  UNL     1      81.942  84.544 150.381  1.00  0.00     0.000 C 
BRANCH  18  19
HETATM   19  C3  UNL     1      83.429  84.721 150.309  1.00  0.00    -0.000 C 
BRANCH  19  20
HETATM   20  C2  UNL     1      84.047  84.701 151.684  1.00  0.00    -0.005 C 
HETATM   21  C1  UNL     1      84.983  85.877 151.893  1.00  0.00     0.005 C 
ENDBRANCH  19  20
ENDBRANCH  18  19
ENDBRANCH  17  18
ENDBRANCH  16  17
ENDBRANCH  15  16
ENDBRANCH  14  15
ENDBRANCH  13  14
ENDBRANCH  12  13
ENDBRANCH  11  12
BRANCH  11  22
HETATM   22  N4  UNL     1      83.908  92.737 147.943  1.00  0.00     0.102 N 
HETATM   23  C17 UNL     1      84.320  93.421 149.106  1.00  0.00     0.276 C 
HETATM   24  C18 UNL     1      85.600  92.922 149.740  1.00  0.00     0.062 C 
HETATM   25  C19 UNL     1      86.717  92.882 148.718  1.00  0.00     0.132 C 
HETATM   26  C30 UNL     1      86.245  93.376 147.379  1.00  0.00     0.062 C 
HETATM   27  C31 UNL     1      84.958  92.719 146.946  1.00  0.00     0.276 C 
BRANCH  25  28
HETATM   28  O1  UNL     1      87.892  93.488 149.068  1.00  0.00    -0.346 OA
BRANCH  28  29
HETATM   29  C20 UNL     1      89.192  93.196 149.015  1.00  0.00     0.069 A 
HETATM   30  C21 UNL     1      89.776  93.044 147.749  1.00  0.00     0.037 A 
HETATM   31  C22 UNL     1      91.108  92.745 147.591  1.00  0.00     0.012 A 
HETATM   32  C23 UNL     1      91.939  92.582 148.697  1.00  0.00    -0.028 A 
HETATM   33  C28 UNL     1      91.377  92.728 149.942  1.00  0.00     0.012 A 
HETATM   34  C29 UNL     1      90.034  93.029 150.078  1.00  0.00     0.037 A 
BRANCH  32  35
HETATM   35  C24 UNL     1      93.376  92.255 148.605  1.00  0.00     0.180 C 
HETATM   36  C25 UNL     1      93.980  92.299 149.966  1.00  0.00     0.268 C 
HETATM   37  N5  UNL     1      95.410  92.087 149.837  1.00  0.00    -0.070 N 
HETATM   38  C26 UNL     1      95.636  90.835 149.174  1.00  0.00     0.258 C 
ATOM     39  H52 UNL     1      95.878  92.864 149.370  1.00  0.00     0.277 HD
ATOM     40  H51 UNL     1      95.895  92.146 150.732  1.00  0.00     0.277 HD
HETATM   41  C27 UNL     1      94.351  90.187 148.699  1.00  0.00     0.196 C 
HETATM   42  O2  UNL     1      93.600  91.064 147.918  1.00  0.00    -0.378 OA
ENDBRANCH  32  35
ENDBRANCH  28  29
ENDBRANCH  25  28
ENDBRANCH  11  22
ENDBRANCH   1  11
TORSDOF 14
ENDMDL
MODEL 2
REMARK VINA RESULT: -9.702219653      0.544      1.326
REMARK  14 active torsions:
REMARK  status: ('A' for Active; 'I' for Inactive)
REMARK    1  A    between atoms: C2_2  and  C3_3 
REMARK    2  A    between atoms: C3_3  and  C4_4 
REMARK    3  A    between atoms: C4_4  and  C5_5 
REMARK    4  A    between atoms: C5_5  and  C6_6 
REMARK    5  A    between atoms: C6_6  and  C7_7 
REMARK    6  A    between atoms: C7_7  and  C8_8 
REMARK    7  A    between atoms: C8_8  and  C9_9 
REMARK    8  A    between atoms: C9_9  and  C10_10 
REMARK    9  A    between atoms: C10_10  and  C11_11 
REMARK   10  A    between atoms: C11_11  and  C12_12 
REMARK   11  A    between atoms: C11_11  and  N4_22 
REMARK   12  A    between atoms: C19_25  and  O1_26 
REMARK   13  A    between atoms: O1_26  and  C20_27 
REMARK   14  A    between atoms: C23_30  and  C24_31 
ROOT
HETATM    1  C12 UNL     1      82.103  91.432 148.922  1.00  0.00     0.049 A 
HETATM    2  C13 UNL     1      82.111  91.675 150.280  1.00  0.00     0.045 A 
HETATM    3  C14 UNL     1      80.921  91.709 150.959  1.00  0.00     0.092 A 
HETATM    4  N1  UNL     1      79.754  91.505 150.289  1.00  0.00    -0.344 N 
ATOM      5  H1  UNL     1      78.872  91.532 150.801  1.00  0.00     0.167 HD
HETATM    6  C15 UNL     1      79.743  91.269 148.970  1.00  0.00     0.188 A 
HETATM    7  C16 UNL     1      78.521  91.044 148.221  1.00  0.00     0.137 C 
HETATM    8  N2  UNL     1      77.556  90.874 147.609  1.00  0.00    -0.188 NA
HETATM    9  N3  UNL     1      80.919  91.243 148.342  1.00  0.00    -0.335 N 
ATOM     10  H3  UNL     1      80.911  91.063 147.338  1.00  0.00     0.168 HD
ENDROOT
BRANCH   1  11
HETATM   11  C11 UNL     1      83.359  91.349 148.149  1.00  0.00     0.295 C 
BRANCH  11  12
HETATM   12  C10 UNL     1      84.359  90.365 148.587  1.00  0.00     0.011 C 
BRANCH  12  13
HETATM   13  C9  UNL     1      84.075  88.975 148.902  1.00  0.00    -0.028 C 
BRANCH  13  14
HETATM   14  C8  UNL     1      83.935  88.474 150.276  1.00  0.00     0.027 C 
BRANCH  14  15
HETATM   15  C7  UNL     1      83.294  87.105 150.406  1.00  0.00     0.004 C 
BRANCH  15  16
HETATM   16  C6  UNL     1      84.047  86.278 151.448  1.00  0.00     0.000 C 
BRANCH  16  17
HETATM   17  C5  UNL     1      83.931  84.821 151.135  1.00  0.00     0.000 C 
BRANCH  17  18
HETATM   18  C4  UNL     1      83.027  84.525 149.984  1.00  0.00     0.000 C 
BRANCH  18  19
HETATM   19  C3  UNL     1      81.886  83.623 150.351  1.00  0.00    -0.000 C 
BRANCH  19  20
HETATM   20  C2  UNL     1      80.560  84.273 150.049  1.00  0.00    -0.005 C 
HETATM   21  C1  UNL     1      80.135  85.216 151.159  1.00  0.00     0.005 C 
ENDBRANCH  19  20
ENDBRANCH  18  19
ENDBRANCH  17  18
ENDBRANCH  16  17
ENDBRANCH  15  16
ENDBRANCH  14  15
ENDBRANCH  13  14
ENDBRANCH  12  13
ENDBRANCH  11  12
BRANCH  11  22
HETATM   22  N4  UNL     1      83.941  92.660 147.940  1.00  0.00     0.102 N 
HETATM   23  C17 UNL     1      84.337  93.367 149.095  1.00  0.00     0.276 C 
HETATM   24  C18 UNL     1      85.613  92.886 149.750  1.00  0.00     0.062 C 
HETATM   25  C19 UNL     1      86.741  92.835 148.741  1.00  0.00     0.132 C 
HETATM   26  C30 UNL     1      86.280  93.303 147.388  1.00  0.00     0.062 C 
HETATM   27  C31 UNL     1      85.001  92.630 146.954  1.00  0.00     0.276 C 
BRANCH  25  28
HETATM   28  O1  UNL     1      87.909  93.454 149.092  1.00  0.00    -0.346 OA
BRANCH  28  29
HETATM   29  C20 UNL     1      89.212  93.177 149.036  1.00  0.00     0.069 A 
HETATM   30  C21 UNL     1      89.782  92.972 147.771  1.00  0.00     0.037 A 
HETATM   31  C22 UNL     1      91.117  92.685 147.609  1.00  0.00     0.012 A 
HETATM   32  C23 UNL     1      91.964  92.587 148.711  1.00  0.00    -0.028 A 
HETATM   33  C28 UNL     1      91.415  92.787 149.955  1.00  0.00     0.012 A 
HETATM   34  C29 UNL     1      90.070  93.074 150.094  1.00  0.00     0.037 A 
BRANCH  32  35
HETATM   35  C24 UNL     1      93.404  92.277 148.615  1.00  0.00     0.180 C 
HETATM   36  C25 UNL     1      93.978  92.168 149.986  1.00  0.00     0.268 C 
HETATM   37  N5  UNL     1      95.411  91.976 149.866  1.00  0.00    -0.070 N 
HETATM   38  C26 UNL     1      95.659  90.807 149.072  1.00  0.00     0.258 C 
ATOM     39  H52 UNL     1      95.885  92.802 149.501  1.00  0.00     0.277 HD
ATOM     40  H51 UNL     1      95.876  91.936 150.774  1.00  0.00     0.277 HD
HETATM   41  C27 UNL     1      94.387  90.214 148.498  1.00  0.00     0.196 C 
HETATM   42  O2  UNL     1      93.650  91.171 147.803  1.00  0.00    -0.378 OA
ENDBRANCH  32  35
ENDBRANCH  28  29
ENDBRANCH  25  28
ENDBRANCH  11  22
ENDBRANCH   1  11
TORSDOF 14
ENDMDL
MODEL 3
REMARK VINA RESULT: -9.600735722      1.089      2.093
REMARK  14 active torsions:
REMARK  status: ('A' for Active; 'I' for Inactive)
REMARK    1  A    between atoms: C2_2  and  C3_3 
REMARK    2  A    between atoms: C3_3  and  C4_4 
REMARK    3  A    between atoms: C4_4  and  C5_5 
REMARK    4  A    between atoms: C5_5  and  C6_6 
REMARK    5  A    between atoms: C6_6  and  C7_7 
REMARK    6  A    between atoms: C7_7  and  C8_8 
REMARK    7  A    between atoms: C8_8  and  C9_9 
REMARK    8  A    between atoms: C9_9  and  C10_10 
REMARK    9  A    between atoms: C10_10  and  C11_11 
REMARK   10  A    between atoms: C11_11  and  C12_12 
REMARK   11  A    between atoms: C11_11  and  N4_22 
REMARK   12  A    between atoms: C19_25  and  O1_26 
REMARK   13  A    between atoms: O1_26  and  C20_27 
REMARK   14  A    between atoms: C23_30  and  C24_31 
ROOT
HETATM    1  C12 UNL     1      82.015  91.357 149.201  1.00  0.00     0.049 A 
HETATM    2  C13 UNL     1      81.065  91.241 148.208  1.00  0.00     0.045 A 
HETATM    3  C14 UNL     1      79.739  91.195 148.553  1.00  0.00     0.092 A 
HETATM    4  N1  UNL     1      79.379  91.264 149.863  1.00  0.00    -0.344 N 
ATOM      5  H1  UNL     1      78.391  91.229 150.113  1.00  0.00     0.167 HD
HETATM    6  C15 UNL     1      80.299  91.377 150.832  1.00  0.00     0.188 A 
HETATM    7  C16 UNL     1      79.955  91.455 152.239  1.00  0.00     0.137 C 
HETATM    8  N2  UNL     1      79.698  91.508 153.364  1.00  0.00    -0.188 NA
HETATM    9  N3  UNL     1      81.578  91.418 150.459  1.00  0.00    -0.335 N 
ATOM     10  H3  UNL     1      82.279  91.504 151.195  1.00  0.00     0.168 HD
ENDROOT
BRANCH   1  11
HETATM   11  C11 UNL     1      83.454  91.446 148.883  1.00  0.00     0.295 C 
BRANCH  11  12
HETATM   12  C10 UNL     1      84.174  90.185 148.652  1.00  0.00     0.011 C 
BRANCH  12  13
HETATM   13  C9  UNL     1      83.630  88.861 148.896  1.00  0.00    -0.028 C 
BRANCH  13  14
HETATM   14  C8  UNL     1      83.637  88.220 150.218  1.00  0.00     0.027 C 
BRANCH  14  15
HETATM   15  C7  UNL     1      82.273  87.845 150.766  1.00  0.00     0.004 C 
BRANCH  15  16
HETATM   16  C6  UNL     1      82.418  86.721 151.792  1.00  0.00     0.000 C 
BRANCH  16  17
HETATM   17  C5  UNL     1      83.731  86.029 151.620  1.00  0.00     0.000 C 
BRANCH  17  18
HETATM   18  C4  UNL     1      83.606  84.595 151.223  1.00  0.00     0.000 C 
BRANCH  18  19
HETATM   19  C3  UNL     1      82.925  84.410 149.900  1.00  0.00    -0.000 C 
BRANCH  19  20
HETATM   20  C2  UNL     1      81.636  83.644 150.053  1.00  0.00    -0.005 C 
HETATM   21  C1  UNL     1      80.468  84.386 149.432  1.00  0.00     0.005 C 
ENDBRANCH  19  20
ENDBRANCH  18  19
ENDBRANCH  17  18
ENDBRANCH  16  17
ENDBRANCH  15  16
ENDBRANCH  14  15
ENDBRANCH  13  14
ENDBRANCH  12  13
ENDBRANCH  11  12
BRANCH  11  22
HETATM   22  N4  UNL     1      84.151  92.309 149.816  1.00  0.00     0.102 N 
HETATM   23  C17 UNL     1      85.393  91.843 150.299  1.00  0.00     0.276 C 
HETATM   24  C18 UNL     1      86.548  91.932 149.328  1.00  0.00     0.062 C 
HETATM   25  C19 UNL     1      86.678  93.341 148.786  1.00  0.00     0.132 C 
HETATM   26  C30 UNL     1      85.645  94.252 149.389  1.00  0.00     0.062 C 
HETATM   27  C31 UNL     1      84.256  93.666 149.323  1.00  0.00     0.276 C 
BRANCH  25  28
HETATM   28  O1  UNL     1      87.920  93.911 148.850  1.00  0.00    -0.346 OA
BRANCH  28  29
HETATM   29  C20 UNL     1      89.186  93.494 148.829  1.00  0.00     0.069 A 
HETATM   30  C21 UNL     1      89.730  93.123 147.591  1.00  0.00     0.037 A 
HETATM   31  C22 UNL     1      91.027  92.682 147.466  1.00  0.00     0.012 A 
HETATM   32  C23 UNL     1      91.858  92.588 148.580  1.00  0.00    -0.028 A 
HETATM   33  C28 UNL     1      91.334  92.948 149.798  1.00  0.00     0.012 A 
HETATM   34  C29 UNL     1      90.028  93.389 149.900  1.00  0.00     0.037 A 
BRANCH  32  35
HETATM   35  C24 UNL     1      93.257  92.118 148.523  1.00  0.00     0.180 C 
HETATM   36  C25 UNL     1      93.881  92.262 149.869  1.00  0.00     0.268 C 
HETATM   37  N5  UNL     1      95.283  91.903 149.762  1.00  0.00    -0.070 N 
HETATM   38  C26 UNL     1      95.382  90.566 149.250  1.00  0.00     0.258 C 
ATOM     39  H52 UNL     1      95.815  92.573 149.207  1.00  0.00     0.277 HD
ATOM     40  H51 UNL     1      95.783  92.020 150.644  1.00  0.00     0.277 HD
HETATM   41  C27 UNL     1      94.035  89.992 148.856  1.00  0.00     0.196 C 
HETATM   42  O2  UNL     1      93.359  90.839 147.979  1.00  0.00    -0.378 OA
ENDBRANCH  32  35
ENDBRANCH  28  29
ENDBRANCH  25  28
ENDBRANCH  11  22
ENDBRANCH   1  11
TORSDOF 14
ENDMDL
MODEL 4
REMARK VINA RESULT: -9.399259711      1.347      1.917
REMARK  14 active torsions:
REMARK  status: ('A' for Active; 'I' for Inactive)
REMARK    1  A    between atoms: C2_2  and  C3_3 
REMARK    2  A    between atoms: C3_3  and  C4_4 
REMARK    3  A    between atoms: C4_4  and  C5_5 
REMARK    4  A    between atoms: C5_5  and  C6_6 
REMARK    5  A    between atoms: C6_6  and  C7_7 
REMARK    6  A    between atoms: C7_7  and  C8_8 
REMARK    7  A    between atoms: C8_8  and  C9_9 
REMARK    8  A    between atoms: C9_9  and  C10_10 
REMARK    9  A    between atoms: C10_10  and  C11_11 
REMARK   10  A    between atoms: C11_11  and  C12_12 
REMARK   11  A    between atoms: C11_11  and  N4_22 
REMARK   12  A    between atoms: C19_25  and  O1_26 
REMARK   13  A    between atoms: O1_26  and  C20_27 
REMARK   14  A    between atoms: C23_30  and  C24_31 
ROOT
HETATM    1  C12 UNL     1      80.775  91.333 149.302  1.00  0.00     0.049 A 
HETATM    2  C13 UNL     1      80.437  91.709 150.585  1.00  0.00     0.045 A 
HETATM    3  C14 UNL     1      79.113  91.829 150.920  1.00  0.00     0.092 A 
HETATM    4  N1  UNL     1      78.155  91.577 149.987  1.00  0.00    -0.344 N 
ATOM      5  H1  UNL     1      77.172  91.668 150.243  1.00  0.00     0.167 HD
HETATM    6  C15 UNL     1      78.479  91.212 148.738  1.00  0.00     0.188 A 
HETATM    7  C16 UNL     1      77.488  90.933 147.717  1.00  0.00     0.137 C 
HETATM    8  N2  UNL     1      76.711  90.718 146.890  1.00  0.00    -0.188 NA
HETATM    9  N3  UNL     1      79.776  91.106 148.449  1.00  0.00    -0.335 N 
ATOM     10  H3  UNL     1      80.024  90.828 147.499  1.00  0.00     0.168 HD
ENDROOT
BRANCH   1  11
HETATM   11  C11 UNL     1      82.184  91.155 148.899  1.00  0.00     0.295 C 
BRANCH  11  12
HETATM   12  C10 UNL     1      82.764  89.812 149.043  1.00  0.00     0.011 C 
BRANCH  12  13
HETATM   13  C9  UNL     1      82.868  89.082 150.296  1.00  0.00    -0.028 C 
BRANCH  13  14
HETATM   14  C8  UNL     1      81.835  88.153 150.772  1.00  0.00     0.027 C 
BRANCH  14  15
HETATM   15  C7  UNL     1      80.899  87.618 149.704  1.00  0.00     0.004 C 
BRANCH  15  16
HETATM   16  C6  UNL     1      81.095  86.109 149.553  1.00  0.00     0.000 C 
BRANCH  16  17
HETATM   17  C5  UNL     1      82.360  85.822 148.811  1.00  0.00     0.000 C 
BRANCH  17  18
HETATM   18  C4  UNL     1      83.214  84.783 149.460  1.00  0.00     0.000 C 
BRANCH  18  19
HETATM   19  C3  UNL     1      82.926  84.615 150.922  1.00  0.00    -0.000 C 
BRANCH  19  20
HETATM   20  C2  UNL     1      84.191  84.683 151.738  1.00  0.00    -0.005 C 
HETATM   21  C1  UNL     1      84.782  86.080 151.739  1.00  0.00     0.005 C 
ENDBRANCH  19  20
ENDBRANCH  18  19
ENDBRANCH  17  18
ENDBRANCH  16  17
ENDBRANCH  15  16
ENDBRANCH  14  15
ENDBRANCH  13  14
ENDBRANCH  12  13
ENDBRANCH  11  12
BRANCH  11  22
HETATM   22  N4  UNL     1      83.034  92.179 149.473  1.00  0.00     0.102 N 
HETATM   23  C17 UNL     1      84.407  91.873 149.582  1.00  0.00     0.276 C 
HETATM   24  C18 UNL     1      85.193  91.923 148.290  1.00  0.00     0.062 C 
HETATM   25  C19 UNL     1      84.995  93.256 147.600  1.00  0.00     0.132 C 
HETATM   26  C30 UNL     1      84.102  94.158 148.407  1.00  0.00     0.062 C 
HETATM   27  C31 UNL     1      82.832  93.466 148.842  1.00  0.00     0.276 C 
BRANCH  25  28
HETATM   28  O1  UNL     1      86.125  93.921 147.211  1.00  0.00    -0.346 OA
BRANCH  28  29
HETATM   29  C20 UNL     1      87.430  93.862 147.478  1.00  0.00     0.069 A 
HETATM   30  C21 UNL     1      88.036  92.597 147.498  1.00  0.00     0.037 A 
HETATM   31  C22 UNL     1      89.375  92.433 147.761  1.00  0.00     0.012 A 
HETATM   32  C23 UNL     1      90.191  93.532 148.019  1.00  0.00    -0.028 A 
HETATM   33  C28 UNL     1      89.607  94.776 148.003  1.00  0.00     0.012 A 
HETATM   34  C29 UNL     1      88.258  94.917 147.736  1.00  0.00     0.037 A 
BRANCH  32  35
HETATM   35  C24 UNL     1      91.634  93.433 148.315  1.00  0.00     0.180 C 
HETATM   36  C25 UNL     1      91.823  93.147 149.765  1.00  0.00     0.268 C 
HETATM   37  N5  UNL     1      93.245  93.167 150.052  1.00  0.00    -0.070 N 
HETATM   38  C26 UNL     1      93.902  92.207 149.211  1.00  0.00     0.258 C 
ATOM     39  H52 UNL     1      93.647  94.100 149.965  1.00  0.00     0.277 HD
ATOM     40  H51 UNL     1      93.445  93.018 151.042  1.00  0.00     0.277 HD
HETATM   41  C27 UNL     1      92.961  91.572 148.207  1.00  0.00     0.196 C 
HETATM   42  O2  UNL     1      92.283  92.539 147.466  1.00  0.00    -0.378 OA
ENDBRANCH  32  35
ENDBRANCH  28  29
ENDBRANCH  25  28
ENDBRANCH  11  22
ENDBRANCH   1  11
TORSDOF 14
ENDMDL
MODEL 5
REMARK VINA RESULT: -9.384119045      1.920      3.236
REMARK  14 active torsions:
REMARK  status: ('A' for Active; 'I' for Inactive)
REMARK    1  A    between atoms: C2_2  and  C3_3 
REMARK    2  A    between atoms: C3_3  and  C4_4 
REMARK    3  A    between atoms: C4_4  and  C5_5 
REMARK    4  A    between atoms: C5_5  and  C6_6 
REMARK    5  A    between atoms: C6_6  and  C7_7 
REMARK    6  A    between atoms: C7_7  and  C8_8 
REMARK    7  A    between atoms: C8_8  and  C9_9 
REMARK    8  A    between atoms: C9_9  and  C10_10 
REMARK    9  A    between atoms: C10_10  and  C11_11 
REMARK   10  A    between atoms: C11_11  and  C12_12 
REMARK   11  A    between atoms: C11_11  and  N4_22 
REMARK   12  A    between atoms: C19_25  and  O1_26 
REMARK   13  A    between atoms: O1_26  and  C20_27 
REMARK   14  A    between atoms: C23_30  and  C24_31 
ROOT
HETATM    1  C12 UNL     1      79.730  90.840 149.929  1.00  0.00     0.049 A 
HETATM    2  C13 UNL     1      79.327  91.493 151.076  1.00  0.00     0.045 A 
HETATM    3  C14 UNL     1      78.086  92.074 151.112  1.00  0.00     0.092 A 
HETATM    4  N1  UNL     1      77.273  92.000 150.023  1.00  0.00    -0.344 N 
ATOM      5  H1  UNL     1      76.351  92.435 150.058  1.00  0.00     0.167 HD
HETATM    6  C15 UNL     1      77.661  91.366 148.907  1.00  0.00     0.188 A 
HETATM    7  C16 UNL     1      76.823  91.265 147.728  1.00  0.00     0.137 C 
HETATM    8  N2  UNL     1      76.172  91.184 146.777  1.00  0.00    -0.188 NA
HETATM    9  N3  UNL     1      78.874  90.813 148.908  1.00  0.00    -0.335 N 
ATOM     10  H3  UNL     1      79.171  90.332 148.059  1.00  0.00     0.168 HD
ENDROOT
BRANCH   1  11
HETATM   11  C11 UNL     1      81.042  90.167 149.849  1.00  0.00     0.295 C 
BRANCH  11  12
HETATM   12  C10 UNL     1      81.212  88.924 150.616  1.00  0.00     0.011 C 
BRANCH  12  13
HETATM   13  C9  UNL     1      80.303  87.791 150.575  1.00  0.00    -0.028 C 
BRANCH  13  14
HETATM   14  C8  UNL     1      80.080  86.983 149.369  1.00  0.00     0.027 C 
BRANCH  14  15
HETATM   15  C7  UNL     1      81.047  85.830 149.171  1.00  0.00     0.004 C 
BRANCH  15  16
HETATM   16  C6  UNL     1      80.758  84.730 150.192  1.00  0.00     0.000 C 
BRANCH  16  17
HETATM   17  C5  UNL     1      81.978  83.897 150.415  1.00  0.00     0.000 C 
BRANCH  17  18
HETATM   18  C4  UNL     1      83.255  84.663 150.310  1.00  0.00     0.000 C 
BRANCH  18  19
HETATM   19  C3  UNL     1      84.057  84.643 151.577  1.00  0.00    -0.000 C 
BRANCH  19  20
HETATM   20  C2  UNL     1      84.712  85.978 151.828  1.00  0.00    -0.005 C 
HETATM   21  C1  UNL     1      84.113  87.067 150.959  1.00  0.00     0.005 C 
ENDBRANCH  19  20
ENDBRANCH  18  19
ENDBRANCH  17  18
ENDBRANCH  16  17
ENDBRANCH  15  16
ENDBRANCH  14  15
ENDBRANCH  13  14
ENDBRANCH  12  13
ENDBRANCH  11  12
BRANCH  11  22
HETATM   22  N4  UNL     1      82.131  91.097 150.073  1.00  0.00     0.102 N 
HETATM   23  C17 UNL     1      83.436  90.608 149.853  1.00  0.00     0.276 C 
HETATM   24  C18 UNL     1      83.842  90.456 148.404  1.00  0.00     0.062 C 
HETATM   25  C19 UNL     1      83.623  91.752 147.653  1.00  0.00     0.132 C 
HETATM   26  C30 UNL     1      83.095  92.825 148.565  1.00  0.00     0.062 C 
HETATM   27  C31 UNL     1      81.919  92.353 149.384  1.00  0.00     0.276 C 
BRANCH  25  28
HETATM   28  O1  UNL     1      84.676  92.221 146.917  1.00  0.00    -0.346 OA
BRANCH  28  29
HETATM   29  C20 UNL     1      85.918  92.645 147.154  1.00  0.00     0.069 A 
HETATM   30  C21 UNL     1      86.896  91.678 147.432  1.00  0.00     0.037 A 
HETATM   31  C22 UNL     1      88.204  92.015 147.687  1.00  0.00     0.012 A 
HETATM   32  C23 UNL     1      88.612  93.347 147.677  1.00  0.00    -0.028 A 
HETATM   33  C28 UNL     1      87.662  94.302 147.406  1.00  0.00     0.012 A 
HETATM   34  C29 UNL     1      86.352  93.940 147.153  1.00  0.00     0.037 A 
BRANCH  32  35
HETATM   35  C24 UNL     1      89.997  93.784 147.946  1.00  0.00     0.180 C 
HETATM   36  C25 UNL     1      90.216  93.850 149.418  1.00  0.00     0.268 C 
HETATM   37  N5  UNL     1      91.542  94.389 149.658  1.00  0.00    -0.070 N 
HETATM   38  C26 UNL     1      92.507  93.560 148.995  1.00  0.00     0.258 C 
ATOM     39  H52 UNL     1      91.618  95.369 149.387  1.00  0.00     0.277 HD
ATOM     40  H51 UNL     1      91.743  94.500 150.652  1.00  0.00     0.277 HD
HETATM   41  C27 UNL     1      91.863  92.477 148.153  1.00  0.00     0.196 C 
HETATM   42  O2  UNL     1      90.933  93.012 147.262  1.00  0.00    -0.378 OA
ENDBRANCH  32  35
ENDBRANCH  28  29
ENDBRANCH  25  28
ENDBRANCH  11  22
ENDBRANCH   1  11
TORSDOF 14
ENDMDL
