MODEL 1
REMARK VINA RESULT: -10.306477424      0.000      0.000
REMARK  14 active torsions:
REMARK  status: ('A' for Active; 'I' for Inactive)
REMARK    1  A    between atoms: C2_2  and  O1_3 
REMARK    2  A    between atoms: O1_3  and  C3_4 
REMARK    3  A    between atoms: C3_4  and  C4_5 
REMARK    4  A    between atoms: C4_5  and  C5_6 
REMARK    5  A    between atoms: C5_6  and  N1_7 
REMARK    6  A    between atoms: C6_14  and  S1_15 
REMARK    7  A    between atoms: S1_15  and  C7_16 
REMARK    8  A    between atoms: C7_16  and  C8_17 
REMARK    9  A    between atoms: C8_17  and  C9_18 
REMARK   10  A    between atoms: C9_18  and  C10_19 
REMARK   11  A    between atoms: C10_19  and  C11_20 
REMARK   12  A    between atoms: C19_28  and  C20_29 
REMARK   13  A    between atoms: C20_29  and  O2_30 
REMARK   14  A    between atoms: C20_29  and  C21_32 
ROOT
HETATM    1  C11 UNL     1      88.707  93.530 148.362  1.00  0.00    -0.039 C 
HETATM    2  C12 UNL     1      87.648  93.846 149.370  1.00  0.00     0.015 C 
HETATM    3  C13 UNL     1      89.073  94.867 147.715  1.00  0.00     0.014 C 
HETATM    4  C14 UNL     1      90.521  95.144 148.014  1.00  0.00    -0.013 C 
HETATM    5  C15 UNL     1      90.779  95.176 149.512  1.00  0.00     0.010 C 
HETATM    6  C16 UNL     1      90.349  93.880 150.164  1.00  0.00    -0.009 C 
HETATM    7  C17 UNL     1      91.458  93.259 150.989  1.00  0.00     0.005 C 
HETATM    8  C18 UNL     1      92.044  92.040 150.259  1.00  0.00     0.008 C 
HETATM    9  C19 UNL     1      92.365  92.506 148.881  1.00  0.00     0.023 C 
HETATM   10  C27 UNL     1      91.073  92.795 148.096  1.00  0.00    -0.002 C 
HETATM   11  C28 UNL     1      91.343  94.083 147.330  1.00  0.00     0.010 C 
HETATM   12  C29 UNL     1      89.920  92.943 149.065  1.00  0.00     0.002 C 
ENDROOT
BRANCH   1  13
HETATM   13  C10 UNL     1      88.212  92.629 147.300  1.00  0.00     0.010 C 
BRANCH  13  14
HETATM   14  C9  UNL     1      86.806  92.189 147.251  1.00  0.00     0.002 C 
BRANCH  14  15
HETATM   15  C8  UNL     1      86.444  90.802 147.524  1.00  0.00     0.010 C 
BRANCH  15  16
HETATM   16  C7  UNL     1      84.967  90.570 147.526  1.00  0.00     0.082 C 
BRANCH  16  17
HETATM   17  S1  UNL     1      83.873  91.815 148.081  1.00  0.00    -0.091 SA
BRANCH  17  18
HETATM   18  C6  UNL     1      82.188  91.440 148.349  1.00  0.00     0.178 A 
HETATM   19  N1  UNL     1      81.775  90.554 149.322  1.00  0.00    -0.254 N 
HETATM   20  N2  UNL     1      80.458  90.492 149.349  1.00  0.00    -0.224 N 
HETATM   21  N3  UNL     1      79.994  91.310 148.425  1.00  0.00    -0.226 N 
ATOM     22  H2  UNL     1      79.898  89.914 149.975  1.00  0.00     0.210 HD
HETATM   23  N4  UNL     1      81.025  91.873 147.831  1.00  0.00    -0.263 N 
ATOM     24  H3  UNL     1      79.011  91.477 148.208  1.00  0.00     0.210 HD
ATOM     25  H4  UNL     1      80.951  92.552 147.074  1.00  0.00     0.190 HD
BRANCH  19  26
HETATM   26  C5  UNL     1      82.603  89.773 150.218  1.00  0.00     0.155 C 
BRANCH  26  27
HETATM   27  C4  UNL     1      82.856  88.428 149.579  1.00  0.00     0.048 C 
BRANCH  27  28
HETATM   28  C3  UNL     1      83.479  87.446 150.512  1.00  0.00     0.169 C 
BRANCH  28  29
HETATM   29  O1  UNL     1      83.153  86.133 150.304  1.00  0.00    -0.391 OA
BRANCH  29  30
HETATM   30  C2  UNL     1      83.676  85.340 151.308  1.00  0.00     0.163 C 
HETATM   31  C1  UNL     1      84.937  86.015 151.807  1.00  0.00     0.033 C 
ENDBRANCH  29  30
ENDBRANCH  28  29
ENDBRANCH  27  28
ENDBRANCH  26  27
ENDBRANCH  19  26
ENDBRANCH  17  18
ENDBRANCH  16  17
ENDBRANCH  15  16
ENDBRANCH  14  15
ENDBRANCH  13  14
ENDBRANCH   1  13
BRANCH   9  32
HETATM   32  C20 UNL     1      93.195  91.583 148.057  1.00  0.00     0.155 C 
BRANCH  32  33
HETATM   33  O2  UNL     1      92.396  90.534 147.592  1.00  0.00    -0.391 OA
ATOM     34  H2  UNL     1      92.911  89.735 147.568  1.00  0.00     0.210 HD
ENDBRANCH  32  33
BRANCH  32  35
HETATM   35  C21 UNL     1      94.411  91.089 148.697  1.00  0.00    -0.029 A 
HETATM   36  C22 UNL     1      94.815  89.776 148.675  1.00  0.00     0.010 A 
HETATM   37  C23 UNL     1      95.974  89.354 149.289  1.00  0.00     0.001 A 
HETATM   38  C24 UNL     1      96.771  90.258 149.954  1.00  0.00     0.000 A 
HETATM   39  C25 UNL     1      96.390  91.598 149.994  1.00  0.00     0.001 A 
HETATM   40  C26 UNL     1      95.230  92.000 149.376  1.00  0.00     0.010 A 
ENDBRANCH  32  35
ENDBRANCH   9  32
TORSDOF 14
ENDMDL
MODEL 2
REMARK VINA RESULT: -10.123445393      4.496     10.095
REMARK  14 active torsions:
REMARK  status: ('A' for Active; 'I' for Inactive)
REMARK    1  A    between atoms: C2_2  and  O1_3 
REMARK    2  A    between atoms: O1_3  and  C3_4 
REMARK    3  A    between atoms: C3_4  and  C4_5 
REMARK    4  A    between atoms: C4_5  and  C5_6 
REMARK    5  A    between atoms: C5_6  and  N1_7 
REMARK    6  A    between atoms: C6_14  and  S1_15 
REMARK    7  A    between atoms: S1_15  and  C7_16 
REMARK    8  A    between atoms: C7_16  and  C8_17 
REMARK    9  A    between atoms: C8_17  and  C9_18 
REMARK   10  A    between atoms: C9_18  and  C10_19 
REMARK   11  A    between atoms: C10_19  and  C11_20 
REMARK   12  A    between atoms: C19_28  and  C20_29 
REMARK   13  A    between atoms: C20_29  and  O2_30 
REMARK   14  A    between atoms: C20_29  and  C21_32 
ROOT
HETATM    1  C11 UNL     1      88.011  93.227 148.673  1.00  0.00    -0.039 C 
HETATM    2  C12 UNL     1      89.026  93.140 147.576  1.00  0.00     0.015 C 
HETATM    3  C13 UNL     1      87.316  94.577 148.486  1.00  0.00     0.014 C 
HETATM    4  C14 UNL     1      85.862  94.313 148.205  1.00  0.00    -0.013 C 
HETATM    5  C15 UNL     1      85.687  93.436 146.976  1.00  0.00     0.010 C 
HETATM    6  C16 UNL     1      86.435  92.130 147.132  1.00  0.00    -0.009 C 
HETATM    7  C17 UNL     1      85.544  90.927 146.894  1.00  0.00     0.005 C 
HETATM    8  C18 UNL     1      85.209  90.243 148.228  1.00  0.00     0.008 C 
HETATM    9  C19 UNL     1      84.715  91.322 149.128  1.00  0.00     0.023 C 
HETATM   10  C27 UNL     1      85.863  92.277 149.503  1.00  0.00    -0.002 C 
HETATM   11  C28 UNL     1      85.266  93.676 149.433  1.00  0.00     0.010 C 
HETATM   12  C29 UNL     1      87.004  92.098 148.526  1.00  0.00     0.002 C 
ENDROOT
BRANCH   1  13
HETATM   13  C10 UNL     1      88.638  93.218 150.011  1.00  0.00     0.010 C 
BRANCH  13  14
HETATM   14  C9  UNL     1      90.057  92.863 150.200  1.00  0.00     0.002 C 
BRANCH  14  15
HETATM   15  C8  UNL     1      91.024  93.859 150.652  1.00  0.00     0.010 C 
BRANCH  15  16
HETATM   16  C7  UNL     1      92.238  93.935 149.782  1.00  0.00     0.082 C 
BRANCH  16  17
HETATM   17  S1  UNL     1      93.166  92.498 149.424  1.00  0.00    -0.091 SA
BRANCH  17  18
HETATM   18  C6  UNL     1      92.832  91.583 147.974  1.00  0.00     0.178 A 
HETATM   19  N1  UNL     1      93.405  90.352 147.730  1.00  0.00    -0.254 N 
HETATM   20  N2  UNL     1      92.947  89.854 146.598  1.00  0.00    -0.224 N 
HETATM   21  N3  UNL     1      92.092  90.721 146.090  1.00  0.00    -0.226 N 
ATOM     22  H2  UNL     1      93.208  88.958 146.187  1.00  0.00     0.210 HD
HETATM   23  N4  UNL     1      92.025  91.748 146.911  1.00  0.00    -0.263 N 
ATOM     24  H3  UNL     1      91.574  90.614 145.218  1.00  0.00     0.210 HD
ATOM     25  H4  UNL     1      91.435  92.566 146.760  1.00  0.00     0.190 HD
BRANCH  19  26
HETATM   26  C5  UNL     1      94.370  89.647 148.548  1.00  0.00     0.155 C 
BRANCH  26  27
HETATM   27  C4  UNL     1      95.675  89.577 147.790  1.00  0.00     0.048 C 
BRANCH  27  28
HETATM   28  C3  UNL     1      96.537  90.774 147.999  1.00  0.00     0.169 C 
BRANCH  28  29
HETATM   29  O1  UNL     1      96.358  91.441 149.182  1.00  0.00    -0.391 OA
BRANCH  29  30
HETATM   30  C2  UNL     1      97.576  91.701 149.779  1.00  0.00     0.163 C 
HETATM   31  C1  UNL     1      98.504  92.229 148.705  1.00  0.00     0.033 C 
ENDBRANCH  29  30
ENDBRANCH  28  29
ENDBRANCH  27  28
ENDBRANCH  26  27
ENDBRANCH  19  26
ENDBRANCH  17  18
ENDBRANCH  16  17
ENDBRANCH  15  16
ENDBRANCH  14  15
ENDBRANCH  13  14
ENDBRANCH   1  13
BRANCH   9  32
HETATM   32  C20 UNL     1      84.071  90.873 150.394  1.00  0.00     0.155 C 
BRANCH  32  33
HETATM   33  O2  UNL     1      85.031  90.835 151.412  1.00  0.00    -0.391 OA
ATOM     34  H2  UNL     1      85.033  91.666 151.871  1.00  0.00     0.210 HD
ENDBRANCH  32  33
BRANCH  32  35
HETATM   35  C21 UNL     1      83.327  89.620 150.312  1.00  0.00    -0.029 A 
HETATM   36  C22 UNL     1      83.885  88.378 150.493  1.00  0.00     0.010 A 
HETATM   37  C23 UNL     1      83.143  87.220 150.411  1.00  0.00     0.001 A 
HETATM   38  C24 UNL     1      81.795  87.282 150.139  1.00  0.00     0.000 A 
HETATM   39  C25 UNL     1      81.198  88.527 149.949  1.00  0.00     0.001 A 
HETATM   40  C26 UNL     1      81.955  89.671 150.035  1.00  0.00     0.010 A 
ENDBRANCH  32  35
ENDBRANCH   9  32
TORSDOF 14
ENDMDL
MODEL 3
REMARK VINA RESULT: -10.067037379      1.024      1.548
REMARK  14 active torsions:
REMARK  status: ('A' for Active; 'I' for Inactive)
REMARK    1  A    between atoms: C2_2  and  O1_3 
REMARK    2  A    between atoms: O1_3  and  C3_4 
REMARK    3  A    between atoms: C3_4  and  C4_5 
REMARK    4  A    between atoms: C4_5  and  C5_6 
REMARK    5  A    between atoms: C5_6  and  N1_7 
REMARK    6  A    between atoms: C6_14  and  S1_15 
REMARK    7  A    between atoms: S1_15  and  C7_16 
REMARK    8  A    between atoms: C7_16  and  C8_17 
REMARK    9  A    between atoms: C8_17  and  C9_18 
REMARK   10  A    between atoms: C9_18  and  C10_19 
REMARK   11  A    between atoms: C10_19  and  C11_20 
REMARK   12  A    between atoms: C19_28  and  C20_29 
REMARK   13  A    between atoms: C20_29  and  O2_30 
REMARK   14  A    between atoms: C20_29  and  C21_32 
ROOT
HETATM    1  C11 UNL     1      88.562  93.438 148.331  1.00  0.00    -0.039 C 
HETATM    2  C12 UNL     1      87.501  93.771 149.333  1.00  0.00     0.015 C 
HETATM    3  C13 UNL     1      88.875  94.751 147.610  1.00  0.00     0.014 C 
HETATM    4  C14 UNL     1      90.315  95.094 147.878  1.00  0.00    -0.013 C 
HETATM    5  C15 UNL     1      90.585  95.215 149.369  1.00  0.00     0.010 C 
HETATM    6  C16 UNL     1      90.207  93.941 150.093  1.00  0.00    -0.009 C 
HETATM    7  C17 UNL     1      91.345  93.405 150.938  1.00  0.00     0.005 C 
HETATM    8  C18 UNL     1      91.967  92.170 150.268  1.00  0.00     0.008 C 
HETATM    9  C19 UNL     1      92.259  92.572 148.864  1.00  0.00     0.023 C 
HETATM   10  C27 UNL     1      90.950  92.774 148.079  1.00  0.00    -0.002 C 
HETATM   11  C28 UNL     1      91.167  94.027 147.243  1.00  0.00     0.010 C 
HETATM   12  C29 UNL     1      89.802  92.932 149.051  1.00  0.00     0.002 C 
ENDROOT
BRANCH   1  13
HETATM   13  C10 UNL     1      88.090  92.465 147.325  1.00  0.00     0.010 C 
BRANCH  13  14
HETATM   14  C9  UNL     1      86.927  91.593 147.577  1.00  0.00     0.002 C 
BRANCH  14  15
HETATM   15  C8  UNL     1      85.709  91.720 146.783  1.00  0.00     0.010 C 
BRANCH  15  16
HETATM   16  C7  UNL     1      84.465  91.470 147.574  1.00  0.00     0.082 C 
BRANCH  16  17
HETATM   17  S1  UNL     1      84.269  89.984 148.474  1.00  0.00    -0.091 SA
BRANCH  17  18
HETATM   18  C6  UNL     1      82.818  89.715 149.409  1.00  0.00     0.178 A 
HETATM   19  N1  UNL     1      82.288  88.457 149.603  1.00  0.00    -0.254 N 
HETATM   20  N2  UNL     1      81.228  88.526 150.385  1.00  0.00    -0.224 N 
HETATM   21  N3  UNL     1      81.046  89.791 150.710  1.00  0.00    -0.226 N 
ATOM     22  H2  UNL     1      80.651  87.740 150.684  1.00  0.00     0.210 HD
HETATM   23  N4  UNL     1      81.994  90.497 150.129  1.00  0.00    -0.263 N 
ATOM     24  H3  UNL     1      80.304  90.158 151.306  1.00  0.00     0.210 HD
ATOM     25  H4  UNL     1      82.090  91.508 150.213  1.00  0.00     0.190 HD
BRANCH  19  26
HETATM   26  C5  UNL     1      82.768  87.201 149.064  1.00  0.00     0.155 C 
BRANCH  26  27
HETATM   27  C4  UNL     1      81.710  86.148 149.298  1.00  0.00     0.048 C 
BRANCH  27  28
HETATM   28  C3  UNL     1      82.148  85.080 150.242  1.00  0.00     0.169 C 
BRANCH  28  29
HETATM   29  O1  UNL     1      83.489  84.807 150.255  1.00  0.00    -0.391 OA
BRANCH  29  30
HETATM   30  C2  UNL     1      83.943  84.683 151.554  1.00  0.00     0.163 C 
HETATM   31  C1  UNL     1      84.810  85.889 151.848  1.00  0.00     0.033 C 
ENDBRANCH  29  30
ENDBRANCH  28  29
ENDBRANCH  27  28
ENDBRANCH  26  27
ENDBRANCH  19  26
ENDBRANCH  17  18
ENDBRANCH  16  17
ENDBRANCH  15  16
ENDBRANCH  14  15
ENDBRANCH  13  14
ENDBRANCH   1  13
BRANCH   9  32
HETATM   32  C20 UNL     1      93.113  91.636 148.080  1.00  0.00     0.155 C 
BRANCH  32  33
HETATM   33  O2  UNL     1      92.346  90.539 147.676  1.00  0.00    -0.391 OA
ATOM     34  H2  UNL     1      92.078  90.045 148.442  1.00  0.00     0.210 HD
ENDBRANCH  32  33
BRANCH  32  35
HETATM   35  C21 UNL     1      94.349  91.215 148.735  1.00  0.00    -0.029 A 
HETATM   36  C22 UNL     1      95.148  92.046 149.482  1.00  0.00     0.010 A 
HETATM   37  C23 UNL     1      96.304  91.604 150.087  1.00  0.00     0.001 A 
HETATM   38  C24 UNL     1      96.695  90.291 149.953  1.00  0.00     0.000 A 
HETATM   39  C25 UNL     1      95.906  89.422 149.200  1.00  0.00     0.001 A 
HETATM   40  C26 UNL     1      94.757  89.881 148.605  1.00  0.00     0.010 A 
ENDBRANCH  32  35
ENDBRANCH   9  32
TORSDOF 14
ENDMDL
MODEL 4
REMARK VINA RESULT: -10.063232139      4.424      9.850
REMARK  14 active torsions:
REMARK  status: ('A' for Active; 'I' for Inactive)
REMARK    1  A    between atoms: C2_2  and  O1_3 
REMARK    2  A    between atoms: O1_3  and  C3_4 
REMARK    3  A    between atoms: C3_4  and  C4_5 
REMARK    4  A    between atoms: C4_5  and  C5_6 
REMARK    5  A    between atoms: C5_6  and  N1_7 
REMARK    6  A    between atoms: C6_14  and  S1_15 
REMARK    7  A    between atoms: S1_15  and  C7_16 
REMARK    8  A    between atoms: C7_16  and  C8_17 
REMARK    9  A    between atoms: C8_17  and  C9_18 
REMARK   10  A    between atoms: C9_18  and  C10_19 
REMARK   11  A    between atoms: C10_19  and  C11_20 
REMARK   12  A    between atoms: C19_28  and  C20_29 
REMARK   13  A    between atoms: C20_29  and  O2_30 
REMARK   14  A    between atoms: C20_29  and  C21_32 
ROOT
HETATM    1  C11 UNL     1      88.037  93.165 148.672  1.00  0.00    -0.039 C 
HETATM    2  C12 UNL     1      89.019  93.101 147.543  1.00  0.00     0.015 C 
HETATM    3  C13 UNL     1      87.367  94.536 148.558  1.00  0.00     0.014 C 
HETATM    4  C14 UNL     1      85.900  94.314 148.310  1.00  0.00    -0.013 C 
HETATM    5  C15 UNL     1      85.672  93.490 147.052  1.00  0.00     0.010 C 
HETATM    6  C16 UNL     1      86.395  92.164 147.134  1.00  0.00    -0.009 C 
HETATM    7  C17 UNL     1      85.472  90.991 146.874  1.00  0.00     0.005 C 
HETATM    8  C18 UNL     1      85.160  90.260 148.189  1.00  0.00     0.008 C 
HETATM    9  C19 UNL     1      84.715  91.311 149.145  1.00  0.00     0.023 C 
HETATM   10  C27 UNL     1      85.893  92.227 149.524  1.00  0.00    -0.002 C 
HETATM   11  C28 UNL     1      85.325  93.640 149.528  1.00  0.00     0.010 C 
HETATM   12  C29 UNL     1      87.002  92.064 148.509  1.00  0.00     0.002 C 
ENDROOT
BRANCH   1  13
HETATM   13  C10 UNL     1      88.702  93.088 149.989  1.00  0.00     0.010 C 
BRANCH  13  14
HETATM   14  C9  UNL     1      90.019  93.705 150.230  1.00  0.00     0.002 C 
BRANCH  14  15
HETATM   15  C8  UNL     1      90.996  93.067 151.107  1.00  0.00     0.010 C 
BRANCH  15  16
HETATM   16  C7  UNL     1      92.333  92.885 150.461  1.00  0.00     0.082 C 
BRANCH  16  17
HETATM   17  S1  UNL     1      92.531  93.141 148.743  1.00  0.00    -0.091 SA
BRANCH  17  18
HETATM   18  C6  UNL     1      92.500  91.780 147.649  1.00  0.00     0.178 A 
HETATM   19  N1  UNL     1      93.119  90.584 147.941  1.00  0.00    -0.254 N 
HETATM   20  N2  UNL     1      92.900  89.711 146.977  1.00  0.00    -0.224 N 
HETATM   21  N3  UNL     1      92.156  90.298 146.061  1.00  0.00    -0.226 N 
ATOM     22  H2  UNL     1      93.245  88.752 146.946  1.00  0.00     0.210 HD
HETATM   23  N4  UNL     1      91.919  91.529 146.462  1.00  0.00    -0.263 N 
ATOM     24  H3  UNL     1      91.822  89.874 145.194  1.00  0.00     0.210 HD
ATOM     25  H4  UNL     1      91.364  92.207 145.940  1.00  0.00     0.190 HD
BRANCH  19  26
HETATM   26  C5  UNL     1      93.909  90.258 149.112  1.00  0.00     0.155 C 
BRANCH  26  27
HETATM   27  C4  UNL     1      95.353  90.594 148.820  1.00  0.00     0.048 C 
BRANCH  27  28
HETATM   28  C3  UNL     1      96.054  89.534 148.041  1.00  0.00     0.169 C 
BRANCH  28  29
HETATM   29  O1  UNL     1      96.046  89.688 146.681  1.00  0.00    -0.391 OA
BRANCH  29  30
HETATM   30  C2  UNL     1      96.268  88.475 146.057  1.00  0.00     0.163 C 
HETATM   31  C1  UNL     1      95.588  88.531 144.705  1.00  0.00     0.033 C 
ENDBRANCH  29  30
ENDBRANCH  28  29
ENDBRANCH  27  28
ENDBRANCH  26  27
ENDBRANCH  19  26
ENDBRANCH  17  18
ENDBRANCH  16  17
ENDBRANCH  15  16
ENDBRANCH  14  15
ENDBRANCH  13  14
ENDBRANCH   1  13
BRANCH   9  32
HETATM   32  C20 UNL     1      84.098  90.825 150.411  1.00  0.00     0.155 C 
BRANCH  32  33
HETATM   33  O2  UNL     1      85.084  90.723 151.397  1.00  0.00    -0.391 OA
ATOM     34  H2  UNL     1      84.670  90.612 152.244  1.00  0.00     0.210 HD
ENDBRANCH  32  33
BRANCH  32  35
HETATM   35  C21 UNL     1      83.322  89.593 150.299  1.00  0.00    -0.029 A 
HETATM   36  C22 UNL     1      83.858  88.332 150.399  1.00  0.00     0.010 A 
HETATM   37  C23 UNL     1      83.087  87.196 150.293  1.00  0.00     0.001 A 
HETATM   38  C24 UNL     1      81.732  87.298 150.078  1.00  0.00     0.000 A 
HETATM   39  C25 UNL     1      81.156  88.564 149.972  1.00  0.00     0.001 A 
HETATM   40  C26 UNL     1      81.941  89.686 150.080  1.00  0.00     0.010 A 
ENDBRANCH  32  35
ENDBRANCH   9  32
TORSDOF 14
ENDMDL
MODEL 5
REMARK VINA RESULT: -9.920918572      1.048      1.626
REMARK  14 active torsions:
REMARK  status: ('A' for Active; 'I' for Inactive)
REMARK    1  A    between atoms: C2_2  and  O1_3 
REMARK    2  A    between atoms: O1_3  and  C3_4 
REMARK    3  A    between atoms: C3_4  and  C4_5 
REMARK    4  A    between atoms: C4_5  and  C5_6 
REMARK    5  A    between atoms: C5_6  and  N1_7 
REMARK    6  A    between atoms: C6_14  and  S1_15 
REMARK    7  A    between atoms: S1_15  and  C7_16 
REMARK    8  A    between atoms: C7_16  and  C8_17 
REMARK    9  A    between atoms: C8_17  and  C9_18 
REMARK   10  A    between atoms: C9_18  and  C10_19 
REMARK   11  A    between atoms: C10_19  and  C11_20 
REMARK   12  A    between atoms: C19_28  and  C20_29 
REMARK   13  A    between atoms: C20_29  and  O2_30 
REMARK   14  A    between atoms: C20_29  and  C21_32 
ROOT
HETATM    1  C11 UNL     1      88.562  93.465 148.320  1.00  0.00    -0.039 C 
HETATM    2  C12 UNL     1      87.486  93.771 149.315  1.00  0.00     0.015 C 
HETATM    3  C13 UNL     1      88.891  94.798 147.646  1.00  0.00     0.014 C 
HETATM    4  C14 UNL     1      90.327  95.126 147.947  1.00  0.00    -0.013 C 
HETATM    5  C15 UNL     1      90.574  95.199 149.446  1.00  0.00     0.010 C 
HETATM    6  C16 UNL     1      90.180  93.905 150.124  1.00  0.00    -0.009 C 
HETATM    7  C17 UNL     1      91.301  93.337 150.970  1.00  0.00     0.005 C 
HETATM    8  C18 UNL     1      91.930  92.121 150.271  1.00  0.00     0.008 C 
HETATM    9  C19 UNL     1      92.245  92.565 148.885  1.00  0.00     0.023 C 
HETATM   10  C27 UNL     1      90.950  92.798 148.086  1.00  0.00    -0.002 C 
HETATM   11  C28 UNL     1      91.185  94.075 147.293  1.00  0.00     0.010 C 
HETATM   12  C29 UNL     1      89.787  92.931 149.044  1.00  0.00     0.002 C 
ENDROOT
BRANCH   1  13
HETATM   13  C10 UNL     1      88.101  92.525 147.277  1.00  0.00     0.010 C 
BRANCH  13  14
HETATM   14  C9  UNL     1      87.074  91.504 147.552  1.00  0.00     0.002 C 
BRANCH  14  15
HETATM   15  C8  UNL     1      85.742  91.604 146.964  1.00  0.00     0.010 C 
BRANCH  15  16
HETATM   16  C7  UNL     1      84.741  90.710 147.624  1.00  0.00     0.082 C 
BRANCH  16  17
HETATM   17  S1  UNL     1      84.443  90.828 149.343  1.00  0.00    -0.091 SA
BRANCH  17  18
HETATM   18  C6  UNL     1      82.891  90.359 149.994  1.00  0.00     0.178 A 
HETATM   19  N1  UNL     1      82.494  89.041 150.078  1.00  0.00    -0.254 N 
HETATM   20  N2  UNL     1      81.310  88.959 150.652  1.00  0.00    -0.224 N 
HETATM   21  N3  UNL     1      80.917  90.183 150.947  1.00  0.00    -0.226 N 
ATOM     22  H2  UNL     1      80.790  88.101 150.836  1.00  0.00     0.210 HD
HETATM   23  N4  UNL     1      81.859  91.014 150.554  1.00  0.00    -0.263 N 
ATOM     24  H3  UNL     1      80.039  90.440 151.399  1.00  0.00     0.210 HD
ATOM     25  H4  UNL     1      81.813  92.027 150.662  1.00  0.00     0.190 HD
BRANCH  19  26
HETATM   26  C5  UNL     1      83.216  87.868 149.628  1.00  0.00     0.155 C 
BRANCH  26  27
HETATM   27  C4  UNL     1      83.796  87.173 150.838  1.00  0.00     0.048 C 
BRANCH  27  28
HETATM   28  C3  UNL     1      83.134  85.872 151.138  1.00  0.00     0.169 C 
BRANCH  28  29
HETATM   29  O1  UNL     1      81.814  85.942 151.493  1.00  0.00    -0.391 OA
BRANCH  29  30
HETATM   30  C2  UNL     1      81.070  85.029 150.769  1.00  0.00     0.163 C 
HETATM   31  C1  UNL     1      81.955  83.828 150.511  1.00  0.00     0.033 C 
ENDBRANCH  29  30
ENDBRANCH  28  29
ENDBRANCH  27  28
ENDBRANCH  26  27
ENDBRANCH  19  26
ENDBRANCH  17  18
ENDBRANCH  16  17
ENDBRANCH  15  16
ENDBRANCH  14  15
ENDBRANCH  13  14
ENDBRANCH   1  13
BRANCH   9  32
HETATM   32  C20 UNL     1      93.109  91.651 148.086  1.00  0.00     0.155 C 
BRANCH  32  33
HETATM   33  O2  UNL     1      92.347  90.563 147.647  1.00  0.00    -0.391 OA
ATOM     34  H2  UNL     1      92.921  89.919 147.249  1.00  0.00     0.210 HD
ENDBRANCH  32  33
BRANCH  32  35
HETATM   35  C21 UNL     1      94.338  91.215 148.741  1.00  0.00    -0.029 A 
HETATM   36  C22 UNL     1      95.156  92.040 149.475  1.00  0.00     0.010 A 
HETATM   37  C23 UNL     1      96.306  91.584 150.081  1.00  0.00     0.001 A 
HETATM   38  C24 UNL     1      96.672  90.263 149.963  1.00  0.00     0.000 A 
HETATM   39  C25 UNL     1      95.864  89.399 149.225  1.00  0.00     0.001 A 
HETATM   40  C26 UNL     1      94.721  89.872 148.628  1.00  0.00     0.010 A 
ENDBRANCH  32  35
ENDBRANCH   9  32
TORSDOF 14
ENDMDL
