MODEL 1
REMARK VINA RESULT: -10.073235641      0.000      0.000
REMARK  14 active torsions:
REMARK  status: ('A' for Active; 'I' for Inactive)
REMARK    1  A    between atoms: C2_2  and  C3_3 
REMARK    2  A    between atoms: C3_3  and  C4_4 
REMARK    3  A    between atoms: C4_4  and  C5_5 
REMARK    4  A    between atoms: C5_5  and  C6_6 
REMARK    5  A    between atoms: C6_6  and  C7_7 
REMARK    6  A    between atoms: C7_7  and  C8_8 
REMARK    7  A    between atoms: C8_8  and  N1_10 
REMARK    8  A    between atoms: N1_10  and  C10_12 
REMARK    9  A    between atoms: C13_15  and  C14_16 
REMARK   10  A    between atoms: C14_16  and  C15_17 
REMARK   11  A    between atoms: C15_17  and  N2_18 
REMARK   12  A    between atoms: C21_24  and  O1_25 
REMARK   13  A    between atoms: C23_28  and  N3_29 
REMARK   14  A    between atoms: C24_34  and  C25_35 
ROOT
HETATM    1  N2  UNL     1      86.774  92.037 148.059  1.00  0.00     0.088 N 
HETATM    2  C16 UNL     1      85.786  91.918 147.047  1.00  0.00     0.273 C 
HETATM    3  C17 UNL     1      84.628  91.130 147.703  1.00  0.00     0.044 C 
HETATM    4  C18 UNL     1      83.939  92.060 148.632  1.00  0.00     0.013 C 
HETATM    5  C19 UNL     1      84.864  93.242 149.003  1.00  0.00     0.044 C 
HETATM    6  C20 UNL     1      86.207  92.621 149.267  1.00  0.00     0.273 C 
HETATM    7  C21 UNL     1      82.585  92.561 148.217  1.00  0.00     0.131 C 
HETATM    8  C22 UNL     1      82.197  92.564 149.698  1.00  0.00     0.062 C 
HETATM    9  C23 UNL     1      83.338  91.548 149.888  1.00  0.00     0.142 C 
ENDROOT
BRANCH   1  10
HETATM   10  C15 UNL     1      88.023  92.621 147.712  1.00  0.00     0.272 C 
BRANCH  10  11
HETATM   11  C14 UNL     1      88.655  93.402 148.818  1.00  0.00     0.034 C 
BRANCH  11  12
HETATM   12  C13 UNL     1      90.107  93.742 148.527  1.00  0.00    -0.013 C 
HETATM   13  C12 UNL     1      90.814  92.717 147.695  1.00  0.00     0.007 C 
HETATM   14  C11 UNL     1      92.342  93.003 147.926  1.00  0.00     0.025 C 
HETATM   15  C10 UNL     1      92.618  92.300 149.222  1.00  0.00     0.077 C 
HETATM   16  C30 UNL     1      91.735  92.954 150.321  1.00  0.00     0.025 C 
HETATM   17  C29 UNL     1      90.856  94.023 149.818  1.00  0.00     0.007 C 
BRANCH  15  18
HETATM   18  N1  UNL     1      93.913  92.296 149.659  1.00  0.00    -0.413 N 
ATOM     19  H1  UNL     1      94.082  92.912 150.455  1.00  0.00     0.153 HD
BRANCH  18  20
HETATM   20  C8  UNL     1      95.024  91.624 149.235  1.00  0.00     0.072 C 
HETATM   21  C9  UNL     1      96.238  91.517 150.091  1.00  0.00     0.031 C 
BRANCH  20  22
HETATM   22  C7  UNL     1      94.693  90.199 148.732  1.00  0.00     0.024 C 
BRANCH  22  23
HETATM   23  C6  UNL     1      95.103  90.039 147.313  1.00  0.00     0.002 C 
BRANCH  23  24
HETATM   24  C5  UNL     1      94.015  89.683 146.395  1.00  0.00     0.000 C 
BRANCH  24  25
HETATM   25  C4  UNL     1      92.642  89.461 146.852  1.00  0.00     0.000 C 
BRANCH  25  26
HETATM   26  C3  UNL     1      91.722  88.587 146.099  1.00  0.00    -0.000 C 
BRANCH  26  27
HETATM   27  C2  UNL     1      92.462  87.278 145.687  1.00  0.00    -0.005 C 
HETATM   28  C1  UNL     1      91.384  86.238 145.365  1.00  0.00     0.005 C 
ENDBRANCH  26  27
ENDBRANCH  25  26
ENDBRANCH  24  25
ENDBRANCH  23  24
ENDBRANCH  22  23
ENDBRANCH  20  22
ENDBRANCH  18  20
ENDBRANCH  15  18
ENDBRANCH  11  12
ENDBRANCH  10  11
ENDBRANCH   1  10
BRANCH   7  29
HETATM   29  O1  UNL     1      81.853  91.722 147.414  1.00  0.00    -0.395 OA
ATOM     30  H1  UNL     1      80.933  91.631 147.635  1.00  0.00     0.210 HD
ENDBRANCH   7  29
BRANCH   9  31
HETATM   31  N3  UNL     1      82.777  90.226 149.927  1.00  0.00    -0.212 N 
HETATM   32  N4  UNL     1      81.602  89.844 149.521  1.00  0.00    -0.224 N 
HETATM   33  N5  UNL     1      81.448  88.527 149.708  1.00  0.00    -0.271 N 
ATOM     34  H4  UNL     1      80.897  90.461 149.117  1.00  0.00     0.210 HD
HETATM   35  C24 UNL     1      82.571  88.070 150.253  1.00  0.00     0.120 A 
ATOM     36  H5  UNL     1      80.621  87.975 149.476  1.00  0.00     0.190 HD
HETATM   37  N6  UNL     1      83.387  89.117 150.387  1.00  0.00    -0.269 N 
ATOM     38  H6  UNL     1      84.329  89.084 150.778  1.00  0.00     0.190 HD
BRANCH  35  39
HETATM   39  C25 UNL     1      82.855  86.639 150.638  1.00  0.00     0.010 C 
HETATM   40  C26 UNL     1      82.667  85.720 149.479  1.00  0.00     0.023 C 
HETATM   41  C27 UNL     1      81.913  86.335 151.789  1.00  0.00     0.023 C 
HETATM   42  C28 UNL     1      84.272  86.625 151.192  1.00  0.00     0.023 C 
ENDBRANCH  35  39
ENDBRANCH   9  31
TORSDOF 14
ENDMDL
MODEL 2
REMARK VINA RESULT: -9.809866709      0.969      1.511
REMARK  14 active torsions:
REMARK  status: ('A' for Active; 'I' for Inactive)
REMARK    1  A    between atoms: C2_2  and  C3_3 
REMARK    2  A    between atoms: C3_3  and  C4_4 
REMARK    3  A    between atoms: C4_4  and  C5_5 
REMARK    4  A    between atoms: C5_5  and  C6_6 
REMARK    5  A    between atoms: C6_6  and  C7_7 
REMARK    6  A    between atoms: C7_7  and  C8_8 
REMARK    7  A    between atoms: C8_8  and  N1_10 
REMARK    8  A    between atoms: N1_10  and  C10_12 
REMARK    9  A    between atoms: C13_15  and  C14_16 
REMARK   10  A    between atoms: C14_16  and  C15_17 
REMARK   11  A    between atoms: C15_17  and  N2_18 
REMARK   12  A    between atoms: C21_24  and  O1_25 
REMARK   13  A    between atoms: C23_28  and  N3_29 
REMARK   14  A    between atoms: C24_34  and  C25_35 
ROOT
HETATM    1  N2  UNL     1      86.620  93.658 148.279  1.00  0.00     0.088 N 
HETATM    2  C16 UNL     1      85.752  93.377 147.191  1.00  0.00     0.273 C 
HETATM    3  C17 UNL     1      84.931  92.145 147.637  1.00  0.00     0.044 C 
HETATM    4  C18 UNL     1      83.945  92.619 148.641  1.00  0.00     0.013 C 
HETATM    5  C19 UNL     1      84.393  93.968 149.248  1.00  0.00     0.044 C 
HETATM    6  C20 UNL     1      85.864  93.808 149.515  1.00  0.00     0.273 C 
HETATM    7  C21 UNL     1      82.509  92.689 148.206  1.00  0.00     0.131 C 
HETATM    8  C22 UNL     1      82.118  92.316 149.639  1.00  0.00     0.062 C 
HETATM    9  C23 UNL     1      83.539  91.734 149.759  1.00  0.00     0.142 C 
ENDROOT
BRANCH   1  10
HETATM   10  C15 UNL     1      87.593  94.683 148.114  1.00  0.00     0.272 C 
BRANCH  10  11
HETATM   11  C14 UNL     1      88.847  94.225 147.444  1.00  0.00     0.034 C 
BRANCH  11  12
HETATM   12  C13 UNL     1      89.595  93.188 148.266  1.00  0.00    -0.013 C 
HETATM   13  C12 UNL     1      89.849  93.608 149.682  1.00  0.00     0.007 C 
HETATM   14  C11 UNL     1      91.002  92.662 150.175  1.00  0.00     0.025 C 
HETATM   15  C10 UNL     1      92.232  93.333 149.640  1.00  0.00     0.077 C 
HETATM   16  C30 UNL     1      92.130  93.360 148.090  1.00  0.00     0.025 C 
HETATM   17  C29 UNL     1      90.880  92.782 147.567  1.00  0.00     0.007 C 
BRANCH  15  18
HETATM   18  N1  UNL     1      93.436  92.781 149.981  1.00  0.00    -0.413 N 
ATOM     19  H1  UNL     1      93.751  93.025 150.920  1.00  0.00     0.153 HD
BRANCH  18  20
HETATM   20  C8  UNL     1      94.296  91.963 149.304  1.00  0.00     0.072 C 
HETATM   21  C9  UNL     1      95.688  91.739 149.783  1.00  0.00     0.031 C 
BRANCH  20  22
HETATM   22  C7  UNL     1      93.682  90.573 149.017  1.00  0.00     0.024 C 
BRANCH  22  23
HETATM   23  C6  UNL     1      94.028  90.125 147.643  1.00  0.00     0.002 C 
BRANCH  23  24
HETATM   24  C5  UNL     1      92.876  89.897 146.762  1.00  0.00     0.000 C 
BRANCH  24  25
HETATM   25  C4  UNL     1      92.639  88.616 146.093  1.00  0.00     0.000 C 
BRANCH  25  26
HETATM   26  C3  UNL     1      91.303  87.989 146.105  1.00  0.00    -0.000 C 
BRANCH  26  27
HETATM   27  C2  UNL     1      91.223  86.908 144.984  1.00  0.00    -0.005 C 
HETATM   28  C1  UNL     1      91.747  85.601 145.586  1.00  0.00     0.005 C 
ENDBRANCH  26  27
ENDBRANCH  25  26
ENDBRANCH  24  25
ENDBRANCH  23  24
ENDBRANCH  22  23
ENDBRANCH  20  22
ENDBRANCH  18  20
ENDBRANCH  15  18
ENDBRANCH  11  12
ENDBRANCH  10  11
ENDBRANCH   1  10
BRANCH   7  29
HETATM   29  O1  UNL     1      82.129  91.794 147.236  1.00  0.00    -0.395 OA
ATOM     30  H1  UNL     1      81.331  92.004 146.765  1.00  0.00     0.210 HD
ENDBRANCH   7  29
BRANCH   9  31
HETATM   31  N3  UNL     1      83.473  90.312 149.563  1.00  0.00    -0.212 N 
HETATM   32  N4  UNL     1      83.784  89.638 148.495  1.00  0.00    -0.224 N 
HETATM   33  N5  UNL     1      83.605  88.327 148.702  1.00  0.00    -0.271 N 
ATOM     34  H4  UNL     1      84.118  90.049 147.624  1.00  0.00     0.210 HD
HETATM   35  C24 UNL     1      83.164  88.179 149.948  1.00  0.00     0.120 A 
ATOM     36  H5  UNL     1      83.776  87.579 148.029  1.00  0.00     0.190 HD
HETATM   37  N6  UNL     1      83.083  89.402 150.475  1.00  0.00    -0.269 N 
ATOM     38  H6  UNL     1      82.774  89.615 151.423  1.00  0.00     0.190 HD
BRANCH  35  39
HETATM   39  C25 UNL     1      82.827  86.872 150.623  1.00  0.00     0.010 C 
HETATM   40  C26 UNL     1      81.693  87.032 151.577  1.00  0.00     0.023 C 
HETATM   41  C27 UNL     1      84.110  86.426 151.302  1.00  0.00     0.023 C 
HETATM   42  C28 UNL     1      82.537  85.882 149.505  1.00  0.00     0.023 C 
ENDBRANCH  35  39
ENDBRANCH   9  31
TORSDOF 14
ENDMDL
MODEL 3
REMARK VINA RESULT: -9.668937025      1.942      3.138
REMARK  14 active torsions:
REMARK  status: ('A' for Active; 'I' for Inactive)
REMARK    1  A    between atoms: C2_2  and  C3_3 
REMARK    2  A    between atoms: C3_3  and  C4_4 
REMARK    3  A    between atoms: C4_4  and  C5_5 
REMARK    4  A    between atoms: C5_5  and  C6_6 
REMARK    5  A    between atoms: C6_6  and  C7_7 
REMARK    6  A    between atoms: C7_7  and  C8_8 
REMARK    7  A    between atoms: C8_8  and  N1_10 
REMARK    8  A    between atoms: N1_10  and  C10_12 
REMARK    9  A    between atoms: C13_15  and  C14_16 
REMARK   10  A    between atoms: C14_16  and  C15_17 
REMARK   11  A    between atoms: C15_17  and  N2_18 
REMARK   12  A    between atoms: C21_24  and  O1_25 
REMARK   13  A    between atoms: C23_28  and  N3_29 
REMARK   14  A    between atoms: C24_34  and  C25_35 
ROOT
HETATM    1  N2  UNL     1      85.761  91.355 147.966  1.00  0.00     0.088 N 
HETATM    2  C16 UNL     1      84.526  91.444 147.270  1.00  0.00     0.273 C 
HETATM    3  C17 UNL     1      83.549  90.547 148.065  1.00  0.00     0.044 C 
HETATM    4  C18 UNL     1      83.200  91.277 149.309  1.00  0.00     0.013 C 
HETATM    5  C19 UNL     1      84.260  92.358 149.620  1.00  0.00     0.044 C 
HETATM    6  C20 UNL     1      85.585  91.691 149.372  1.00  0.00     0.273 C 
HETATM    7  C21 UNL     1      81.817  91.857 149.394  1.00  0.00     0.131 C 
HETATM    8  C22 UNL     1      81.852  91.567 150.898  1.00  0.00     0.062 C 
HETATM    9  C23 UNL     1      82.938  90.529 150.562  1.00  0.00     0.142 C 
ENDROOT
BRANCH   1  10
HETATM   10  C15 UNL     1      86.899  91.991 147.398  1.00  0.00     0.272 C 
BRANCH  10  11
HETATM   11  C14 UNL     1      86.787  93.479 147.324  1.00  0.00     0.034 C 
BRANCH  11  12
HETATM   12  C13 UNL     1      87.914  94.179 148.066  1.00  0.00    -0.013 C 
HETATM   13  C12 UNL     1      88.728  95.095 147.203  1.00  0.00     0.007 C 
HETATM   14  C11 UNL     1      90.063  95.310 148.004  1.00  0.00     0.025 C 
HETATM   15  C10 UNL     1      90.861  94.091 147.651  1.00  0.00     0.077 C 
HETATM   16  C30 UNL     1      90.082  92.844 148.153  1.00  0.00     0.025 C 
HETATM   17  C29 UNL     1      88.789  93.166 148.782  1.00  0.00     0.007 C 
BRANCH  15  18
HETATM   18  N1  UNL     1      92.137  94.024 148.139  1.00  0.00    -0.413 N 
ATOM     19  H1  UNL     1      92.857  94.034 147.417  1.00  0.00     0.153 HD
BRANCH  18  20
HETATM   20  C8  UNL     1      92.631  93.948 149.410  1.00  0.00     0.072 C 
HETATM   21  C9  UNL     1      91.849  94.445 150.576  1.00  0.00     0.031 C 
BRANCH  20  22
HETATM   22  C7  UNL     1      93.123  92.525 149.765  1.00  0.00     0.024 C 
BRANCH  22  23
HETATM   23  C6  UNL     1      93.517  91.789 148.535  1.00  0.00     0.002 C 
BRANCH  23  24
HETATM   24  C5  UNL     1      94.097  90.462 148.773  1.00  0.00     0.000 C 
BRANCH  24  25
HETATM   25  C4  UNL     1      95.533  90.199 148.652  1.00  0.00     0.000 C 
BRANCH  25  26
HETATM   26  C3  UNL     1      96.417  90.246 149.832  1.00  0.00    -0.000 C 
BRANCH  26  27
HETATM   27  C2  UNL     1      97.039  91.670 149.964  1.00  0.00    -0.005 C 
HETATM   28  C1  UNL     1      97.773  91.959 148.651  1.00  0.00     0.005 C 
ENDBRANCH  26  27
ENDBRANCH  25  26
ENDBRANCH  24  25
ENDBRANCH  23  24
ENDBRANCH  22  23
ENDBRANCH  20  22
ENDBRANCH  18  20
ENDBRANCH  15  18
ENDBRANCH  11  12
ENDBRANCH  10  11
ENDBRANCH   1  10
BRANCH   7  29
HETATM   29  O1  UNL     1      80.842  91.197 148.687  1.00  0.00    -0.395 OA
ATOM     30  H1  UNL     1      80.082  91.714 148.444  1.00  0.00     0.210 HD
ENDBRANCH   7  29
BRANCH   9  31
HETATM   31  N3  UNL     1      82.331  89.228 150.508  1.00  0.00    -0.212 N 
HETATM   32  N4  UNL     1      81.076  88.939 150.329  1.00  0.00    -0.224 N 
HETATM   33  N5  UNL     1      80.898  87.611 150.321  1.00  0.00    -0.271 N 
ATOM     34  H4  UNL     1      80.331  89.626 150.210  1.00  0.00     0.210 HD
HETATM   35  C24 UNL     1      82.090  87.051 150.503  1.00  0.00     0.120 A 
ATOM     36  H5  UNL     1      80.012  87.120 150.199  1.00  0.00     0.190 HD
HETATM   37  N6  UNL     1      82.970  88.048 150.618  1.00  0.00    -0.269 N 
ATOM     38  H6  UNL     1      83.973  87.934 150.767  1.00  0.00     0.190 HD
BRANCH  35  39
HETATM   39  C25 UNL     1      82.378  85.571 150.563  1.00  0.00     0.010 C 
HETATM   40  C26 UNL     1      81.174  84.803 150.993  1.00  0.00     0.023 C 
HETATM   41  C27 UNL     1      83.544  85.425 151.524  1.00  0.00     0.023 C 
HETATM   42  C28 UNL     1      82.877  85.182 149.180  1.00  0.00     0.023 C 
ENDBRANCH  35  39
ENDBRANCH   9  31
TORSDOF 14
ENDMDL
MODEL 4
REMARK VINA RESULT: -9.590906210      2.882     10.122
REMARK  14 active torsions:
REMARK  status: ('A' for Active; 'I' for Inactive)
REMARK    1  A    between atoms: C2_2  and  C3_3 
REMARK    2  A    between atoms: C3_3  and  C4_4 
REMARK    3  A    between atoms: C4_4  and  C5_5 
REMARK    4  A    between atoms: C5_5  and  C6_6 
REMARK    5  A    between atoms: C6_6  and  C7_7 
REMARK    6  A    between atoms: C7_7  and  C8_8 
REMARK    7  A    between atoms: C8_8  and  N1_10 
REMARK    8  A    between atoms: N1_10  and  C10_12 
REMARK    9  A    between atoms: C13_15  and  C14_16 
REMARK   10  A    between atoms: C14_16  and  C15_17 
REMARK   11  A    between atoms: C15_17  and  N2_18 
REMARK   12  A    between atoms: C21_24  and  O1_25 
REMARK   13  A    between atoms: C23_28  and  N3_29 
REMARK   14  A    between atoms: C24_34  and  C25_35 
ROOT
HETATM    1  N2  UNL     1      88.540  93.892 147.726  1.00  0.00     0.088 N 
HETATM    2  C16 UNL     1      88.486  93.282 149.008  1.00  0.00     0.273 C 
HETATM    3  C17 UNL     1      89.908  92.724 149.249  1.00  0.00     0.044 C 
HETATM    4  C18 UNL     1      90.786  93.883 149.549  1.00  0.00     0.013 C 
HETATM    5  C19 UNL     1      90.152  95.194 149.030  1.00  0.00     0.044 C 
HETATM    6  C20 UNL     1      89.626  94.860 147.662  1.00  0.00     0.273 C 
HETATM    7  C21 UNL     1      91.241  94.045 150.972  1.00  0.00     0.131 C 
HETATM    8  C22 UNL     1      92.554  94.611 150.425  1.00  0.00     0.062 C 
HETATM    9  C23 UNL     1      92.206  93.870 149.121  1.00  0.00     0.142 C 
ENDROOT
BRANCH   1  10
HETATM   10  C15 UNL     1      87.332  94.398 147.173  1.00  0.00     0.272 C 
BRANCH  10  11
HETATM   11  C14 UNL     1      86.140  94.218 148.055  1.00  0.00     0.034 C 
BRANCH  11  12
HETATM   12  C13 UNL     1      85.170  93.183 147.509  1.00  0.00    -0.013 C 
HETATM   13  C12 UNL     1      83.956  92.981 148.364  1.00  0.00     0.007 C 
HETATM   14  C11 UNL     1      83.375  91.595 147.906  1.00  0.00     0.025 C 
HETATM   15  C10 UNL     1      84.213  90.615 148.673  1.00  0.00     0.077 C 
HETATM   16  C30 UNL     1      85.691  90.796 148.230  1.00  0.00     0.025 C 
HETATM   17  C29 UNL     1      85.888  91.871 147.243  1.00  0.00     0.007 C 
BRANCH  15  18
HETATM   18  N1  UNL     1      83.887  89.293 148.548  1.00  0.00    -0.413 N 
ATOM     19  H1  UNL     1      84.232  88.861 147.691  1.00  0.00     0.153 HD
BRANCH  18  20
HETATM   20  C8  UNL     1      83.187  88.439 149.353  1.00  0.00     0.072 C 
HETATM   21  C9  UNL     1      82.005  88.904 150.131  1.00  0.00     0.031 C 
BRANCH  20  22
HETATM   22  C7  UNL     1      82.768  87.146 148.615  1.00  0.00     0.024 C 
BRANCH  22  23
HETATM   23  C6  UNL     1      81.496  86.617 149.172  1.00  0.00     0.002 C 
BRANCH  23  24
HETATM   24  C5  UNL     1      81.593  85.274 149.757  1.00  0.00     0.000 C 
BRANCH  24  25
HETATM   25  C4  UNL     1      82.871  84.578 149.919  1.00  0.00     0.000 C 
BRANCH  25  26
HETATM   26  C3  UNL     1      83.461  84.375 151.256  1.00  0.00    -0.000 C 
BRANCH  26  27
HETATM   27  C2  UNL     1      83.635  85.752 151.966  1.00  0.00    -0.005 C 
HETATM   28  C1  UNL     1      85.112  86.136 151.839  1.00  0.00     0.005 C 
ENDBRANCH  26  27
ENDBRANCH  25  26
ENDBRANCH  24  25
ENDBRANCH  23  24
ENDBRANCH  22  23
ENDBRANCH  20  22
ENDBRANCH  18  20
ENDBRANCH  15  18
ENDBRANCH  11  12
ENDBRANCH  10  11
ENDBRANCH   1  10
BRANCH   7  29
HETATM   29  O1  UNL     1      91.353  92.889 151.704  1.00  0.00    -0.395 OA
ATOM     30  H1  UNL     1      91.036  92.930 152.599  1.00  0.00     0.210 HD
ENDBRANCH   7  29
BRANCH   9  31
HETATM   31  N3  UNL     1      92.934  92.631 149.087  1.00  0.00    -0.212 N 
HETATM   32  N4  UNL     1      92.460  91.430 148.939  1.00  0.00    -0.224 N 
HETATM   33  N5  UNL     1      93.454  90.532 148.942  1.00  0.00    -0.271 N 
ATOM     34  H4  UNL     1      91.472  91.203 148.835  1.00  0.00     0.210 HD
HETATM   35  C24 UNL     1      94.592  91.201 149.099  1.00  0.00     0.120 A 
ATOM     36  H5  UNL     1      93.357  89.521 148.842  1.00  0.00     0.190 HD
HETATM   37  N6  UNL     1      94.270  92.493 149.188  1.00  0.00    -0.269 N 
ATOM     38  H6  UNL     1      94.932  93.258 149.314  1.00  0.00     0.190 HD
BRANCH  35  39
HETATM   39  C25 UNL     1      95.976  90.602 149.158  1.00  0.00     0.010 C 
HETATM   40  C26 UNL     1      95.921  89.142 149.456  1.00  0.00     0.023 C 
HETATM   41  C27 UNL     1      96.713  91.393 150.224  1.00  0.00     0.023 C 
HETATM   42  C28 UNL     1      96.631  90.919 147.822  1.00  0.00     0.023 C 
ENDBRANCH  35  39
ENDBRANCH   9  31
TORSDOF 14
ENDMDL
MODEL 5
REMARK VINA RESULT: -9.498782648      2.534     10.480
REMARK  14 active torsions:
REMARK  status: ('A' for Active; 'I' for Inactive)
REMARK    1  A    between atoms: C2_2  and  C3_3 
REMARK    2  A    between atoms: C3_3  and  C4_4 
REMARK    3  A    between atoms: C4_4  and  C5_5 
REMARK    4  A    between atoms: C5_5  and  C6_6 
REMARK    5  A    between atoms: C6_6  and  C7_7 
REMARK    6  A    between atoms: C7_7  and  C8_8 
REMARK    7  A    between atoms: C8_8  and  N1_10 
REMARK    8  A    between atoms: N1_10  and  C10_12 
REMARK    9  A    between atoms: C13_15  and  C14_16 
REMARK   10  A    between atoms: C14_16  and  C15_17 
REMARK   11  A    between atoms: C15_17  and  N2_18 
REMARK   12  A    between atoms: C21_24  and  O1_25 
REMARK   13  A    between atoms: C23_28  and  N3_29 
REMARK   14  A    between atoms: C24_34  and  C25_35 
ROOT
HETATM    1  N2  UNL     1      87.549  92.080 148.897  1.00  0.00     0.088 N 
HETATM    2  C16 UNL     1      88.060  93.011 149.839  1.00  0.00     0.273 C 
HETATM    3  C17 UNL     1      89.598  92.915 149.707  1.00  0.00     0.044 C 
HETATM    4  C18 UNL     1      89.971  93.594 148.441  1.00  0.00     0.013 C 
HETATM    5  C19 UNL     1      88.752  93.686 147.495  1.00  0.00     0.044 C 
HETATM    6  C20 UNL     1      88.094  92.336 147.571  1.00  0.00     0.273 C 
HETATM    7  C21 UNL     1      90.649  94.929 148.557  1.00  0.00     0.131 C 
HETATM    8  C22 UNL     1      91.442  94.570 147.298  1.00  0.00     0.062 C 
HETATM    9  C23 UNL     1      91.123  93.104 147.646  1.00  0.00     0.142 C 
ENDROOT
BRANCH   1  10
HETATM   10  C15 UNL     1      86.144  91.856 148.869  1.00  0.00     0.272 C 
BRANCH  10  11
HETATM   11  C14 UNL     1      85.720  90.792 147.910  1.00  0.00     0.034 C 
BRANCH  11  12
HETATM   12  C13 UNL     1      84.217  90.565 147.929  1.00  0.00    -0.013 C 
HETATM   13  C12 UNL     1      83.445  91.676 148.574  1.00  0.00     0.007 C 
HETATM   14  C11 UNL     1      82.049  91.041 148.916  1.00  0.00     0.025 C 
HETATM   15  C10 UNL     1      82.317  90.330 150.209  1.00  0.00     0.077 C 
HETATM   16  C30 UNL     1      83.396  89.243 149.946  1.00  0.00     0.025 C 
HETATM   17  C29 UNL     1      83.891  89.222 148.559  1.00  0.00     0.007 C 
BRANCH  15  18
HETATM   18  N1  UNL     1      81.248  89.734 150.819  1.00  0.00    -0.413 N 
ATOM     19  H1  UNL     1      80.594  90.393 151.242  1.00  0.00     0.153 HD
BRANCH  18  20
HETATM   20  C8  UNL     1      80.889  88.425 150.971  1.00  0.00     0.072 C 
HETATM   21  C9  UNL     1      80.119  87.966 152.160  1.00  0.00     0.031 C 
BRANCH  20  22
HETATM   22  C7  UNL     1      80.175  87.862 149.720  1.00  0.00     0.024 C 
BRANCH  22  23
HETATM   23  C6  UNL     1      80.504  86.425 149.534  1.00  0.00     0.002 C 
BRANCH  23  24
HETATM   24  C5  UNL     1      81.807  86.168 148.909  1.00  0.00     0.000 C 
BRANCH  24  25
HETATM   25  C4  UNL     1      82.789  85.248 149.488  1.00  0.00     0.000 C 
BRANCH  25  26
HETATM   26  C3  UNL     1      82.755  84.904 150.922  1.00  0.00    -0.000 C 
BRANCH  26  27
HETATM   27  C2  UNL     1      83.409  86.051 151.752  1.00  0.00    -0.005 C 
HETATM   28  C1  UNL     1      84.917  85.786 151.766  1.00  0.00     0.005 C 
ENDBRANCH  26  27
ENDBRANCH  25  26
ENDBRANCH  24  25
ENDBRANCH  23  24
ENDBRANCH  22  23
ENDBRANCH  20  22
ENDBRANCH  18  20
ENDBRANCH  15  18
ENDBRANCH  11  12
ENDBRANCH  10  11
ENDBRANCH   1  10
BRANCH   7  29
HETATM   29  O1  UNL     1      91.397  95.129 149.692  1.00  0.00    -0.395 OA
ATOM     30  H1  UNL     1      91.954  95.899 149.693  1.00  0.00     0.210 HD
ENDBRANCH   7  29
BRANCH   9  31
HETATM   31  N3  UNL     1      92.261  92.530 148.309  1.00  0.00    -0.212 N 
HETATM   32  N4  UNL     1      92.564  92.590 149.572  1.00  0.00    -0.224 N 
HETATM   33  N5  UNL     1      93.696  91.915 149.814  1.00  0.00    -0.271 N 
ATOM     34  H4  UNL     1      92.017  93.081 150.280  1.00  0.00     0.210 HD
HETATM   35  C24 UNL     1      94.114  91.416 148.655  1.00  0.00     0.120 A 
ATOM     36  H5  UNL     1      94.152  91.805 150.720  1.00  0.00     0.190 HD
HETATM   37  N6  UNL     1      93.230  91.796 147.731  1.00  0.00    -0.269 N 
ATOM     38  H6  UNL     1      93.280  91.566 146.738  1.00  0.00     0.190 HD
BRANCH  35  39
HETATM   39  C25 UNL     1      95.352  90.579 148.442  1.00  0.00     0.010 C 
HETATM   40  C26 UNL     1      96.590  91.365 148.713  1.00  0.00     0.023 C 
HETATM   41  C27 UNL     1      95.267  90.092 147.007  1.00  0.00     0.023 C 
HETATM   42  C28 UNL     1      95.200  89.365 149.346  1.00  0.00     0.023 C 
ENDBRANCH  35  39
ENDBRANCH   9  31
TORSDOF 14
ENDMDL
