MODEL 1
REMARK VINA RESULT: -5.722341525      0.000      0.000
REMARK  7 active torsions:
REMARK  status: ('A' for Active; 'I' for Inactive)
REMARK    1  A    between atoms: N2_3  and  C2_5 
REMARK    2  A    between atoms: C2_5  and  C3_6 
REMARK    3  A    between atoms: C3_6  and  N3_7 
REMARK    4  A    between atoms: N3_7  and  C4_10 
REMARK    5  A    between atoms: C4_10  and  C5_11 
REMARK    6  A    between atoms: C5_11  and  N4_12 
REMARK    7  A    between atoms: C9_19  and  N5_20 
ROOT
HETATM    1  C5  UNL     1     -42.693  11.985  10.772  1.00  0.00     0.175 C 
HETATM    2  C6  UNL     1     -43.329  12.404   9.472  1.00  0.00     0.043 C 
HETATM    3  C7  UNL     1     -43.619  13.869   9.600  1.00  0.00     0.005 C 
HETATM    4  C8  UNL     1     -42.512  14.376  10.461  1.00  0.00     0.035 C 
HETATM    5  C9  UNL     1     -41.964  13.230  11.258  1.00  0.00     0.220 C 
ENDROOT
BRANCH   1   6
HETATM    6  C4  UNL     1     -41.702  10.885  10.461  1.00  0.00     0.273 C 
BRANCH   6   7
HETATM    7  N3  UNL     1     -40.977  10.436  11.602  1.00  0.00    -0.071 N 
ATOM      8  H32 UNL     1     -41.483   9.716  12.117  1.00  0.00     0.277 HD
ATOM      9  H31 UNL     1     -40.940  11.145  12.335  1.00  0.00     0.277 HD
BRANCH   7  10
HETATM   10  C3  UNL     1     -39.662   9.997  11.206  1.00  0.00     0.251 C 
BRANCH  10  11
HETATM   11  C2  UNL     1     -39.537   9.693   9.737  1.00  0.00     0.147 C 
BRANCH  11  12
HETATM   12  N2  UNL     1     -38.124   9.542   9.365  1.00  0.00    -0.386 N 
HETATM   13  C1  UNL     1     -37.704  10.099   8.264  1.00  0.00     0.185 C 
HETATM   14  N1  UNL     1     -36.348   9.956   7.909  1.00  0.00    -0.097 NA
ATOM     15  H2  UNL     1     -37.485   9.012   9.957  1.00  0.00     0.159 HD
ENDBRANCH  11  12
ENDBRANCH  10  11
ENDBRANCH   7  10
ENDBRANCH   6   7
ENDBRANCH   1   6
BRANCH   1  16
HETATM   16  N4  UNL     1     -43.725  11.587  11.691  1.00  0.00    -0.067 N 
ATOM     17  H43 UNL     1     -44.325  10.877  11.273  1.00  0.00     0.275 HD
ATOM     18  H42 UNL     1     -43.333  11.046  12.461  1.00  0.00     0.275 HD
ATOM     19  H41 UNL     1     -44.280  12.367  12.044  1.00  0.00     0.275 HD
ENDBRANCH   1  16
BRANCH   5  20
HETATM   20  N5  UNL     1     -42.315  13.463  12.668  1.00  0.00    -0.073 N 
ATOM     21  H53 UNL     1     -43.321  13.557  12.809  1.00  0.00     0.274 HD
ATOM     22  H52 UNL     1     -42.168  12.636  13.249  1.00  0.00     0.274 HD
ATOM     23  H51 UNL     1     -41.796  14.273  13.005  1.00  0.00     0.274 HD
ENDBRANCH   5  20
TORSDOF 7
ENDMDL
MODEL 2
REMARK VINA RESULT: -5.673738523      2.107      2.729
REMARK  7 active torsions:
REMARK  status: ('A' for Active; 'I' for Inactive)
REMARK    1  A    between atoms: N2_3  and  C2_5 
REMARK    2  A    between atoms: C2_5  and  C3_6 
REMARK    3  A    between atoms: C3_6  and  N3_7 
REMARK    4  A    between atoms: N3_7  and  C4_10 
REMARK    5  A    between atoms: C4_10  and  C5_11 
REMARK    6  A    between atoms: C5_11  and  N4_12 
REMARK    7  A    between atoms: C9_19  and  N5_20 
ROOT
HETATM    1  C5  UNL     1     -41.986  13.744  10.818  1.00  0.00     0.175 C 
HETATM    2  C6  UNL     1     -41.569  14.999  11.539  1.00  0.00     0.043 C 
HETATM    3  C7  UNL     1     -42.154  14.907  12.916  1.00  0.00     0.005 C 
HETATM    4  C8  UNL     1     -42.131  13.445  13.213  1.00  0.00     0.035 C 
HETATM    5  C9  UNL     1     -42.099  12.695  11.914  1.00  0.00     0.220 C 
ENDROOT
BRANCH   1   6
HETATM    6  C4  UNL     1     -40.876  13.381   9.856  1.00  0.00     0.273 C 
BRANCH   6   7
HETATM    7  N3  UNL     1     -39.729  14.216   9.974  1.00  0.00    -0.071 N 
ATOM      8  H32 UNL     1     -39.702  14.707  10.868  1.00  0.00     0.277 HD
ATOM      9  H31 UNL     1     -39.782  15.029   9.360  1.00  0.00     0.277 HD
BRANCH   7  10
HETATM   10  C3  UNL     1     -38.534  13.443   9.745  1.00  0.00     0.251 C 
BRANCH  10  11
HETATM   11  C2  UNL     1     -38.765  11.955   9.722  1.00  0.00     0.147 C 
BRANCH  11  12
HETATM   12  N2  UNL     1     -37.526  11.252   9.364  1.00  0.00    -0.386 N 
HETATM   13  C1  UNL     1     -37.395  10.794   8.151  1.00  0.00     0.185 C 
HETATM   14  N1  UNL     1     -36.205  10.121   7.808  1.00  0.00    -0.097 NA
ATOM     15  H2  UNL     1     -36.784  11.124  10.052  1.00  0.00     0.159 HD
ENDBRANCH  11  12
ENDBRANCH  10  11
ENDBRANCH   7  10
ENDBRANCH   6   7
ENDBRANCH   1   6
BRANCH   1  16
HETATM   16  N4  UNL     1     -43.252  13.973  10.175  1.00  0.00    -0.067 N 
ATOM     17  H43 UNL     1     -43.693  14.818  10.537  1.00  0.00     0.275 HD
ATOM     18  H42 UNL     1     -43.118  14.254   9.204  1.00  0.00     0.275 HD
ATOM     19  H41 UNL     1     -43.889  13.178  10.236  1.00  0.00     0.275 HD
ENDBRANCH   1  16
BRANCH   5  20
HETATM   20  N5  UNL     1     -43.389  12.001  11.772  1.00  0.00    -0.073 N 
ATOM     21  H53 UNL     1     -43.711  11.969  10.805  1.00  0.00     0.274 HD
ATOM     22  H52 UNL     1     -43.311  10.996  11.929  1.00  0.00     0.274 HD
ATOM     23  H51 UNL     1     -44.068  12.441  12.395  1.00  0.00     0.274 HD
ENDBRANCH   5  20
TORSDOF 7
ENDMDL
MODEL 3
REMARK VINA RESULT: -5.665597713      1.380      1.473
REMARK  7 active torsions:
REMARK  status: ('A' for Active; 'I' for Inactive)
REMARK    1  A    between atoms: N2_3  and  C2_5 
REMARK    2  A    between atoms: C2_5  and  C3_6 
REMARK    3  A    between atoms: C3_6  and  N3_7 
REMARK    4  A    between atoms: N3_7  and  C4_10 
REMARK    5  A    between atoms: C4_10  and  C5_11 
REMARK    6  A    between atoms: C5_11  and  N4_12 
REMARK    7  A    between atoms: C9_19  and  N5_20 
ROOT
HETATM    1  C5  UNL     1     -42.755  12.013  11.099  1.00  0.00     0.175 C 
HETATM    2  C6  UNL     1     -43.289  12.361   9.734  1.00  0.00     0.043 C 
HETATM    3  C7  UNL     1     -43.473  13.848   9.722  1.00  0.00     0.005 C 
HETATM    4  C8  UNL     1     -42.377  14.348  10.601  1.00  0.00     0.035 C 
HETATM    5  C9  UNL     1     -41.960  13.239  11.521  1.00  0.00     0.220 C 
ENDROOT
BRANCH   1   6
HETATM    6  C4  UNL     1     -41.836  10.821  10.938  1.00  0.00     0.273 C 
BRANCH   6   7
HETATM    7  N3  UNL     1     -41.459  10.575   9.588  1.00  0.00    -0.071 N 
ATOM      8  H32 UNL     1     -41.556  11.407   9.005  1.00  0.00     0.277 HD
ATOM      9  H31 UNL     1     -42.130   9.977   9.105  1.00  0.00     0.277 HD
BRANCH   7  10
HETATM   10  C3  UNL     1     -40.122  10.036   9.542  1.00  0.00     0.251 C 
BRANCH  10  11
HETATM   11  C2  UNL     1     -39.462   9.927  10.891  1.00  0.00     0.147 C 
BRANCH  11  12
HETATM   12  N2  UNL     1     -38.175  10.633  10.888  1.00  0.00    -0.386 N 
HETATM   13  C1  UNL     1     -38.050  11.703  10.153  1.00  0.00     0.185 C 
HETATM   14  N1  UNL     1     -36.815  12.382  10.153  1.00  0.00    -0.097 NA
ATOM     15  H2  UNL     1     -37.394  10.294  11.450  1.00  0.00     0.159 HD
ENDBRANCH  11  12
ENDBRANCH  10  11
ENDBRANCH   7  10
ENDBRANCH   6   7
ENDBRANCH   1   6
BRANCH   1  16
HETATM   16  N4  UNL     1     -43.861  11.771  11.985  1.00  0.00    -0.067 N 
ATOM     17  H43 UNL     1     -44.629  12.411  11.787  1.00  0.00     0.275 HD
ATOM     18  H42 UNL     1     -44.316  10.886  11.762  1.00  0.00     0.275 HD
ATOM     19  H41 UNL     1     -43.607  11.806  12.973  1.00  0.00     0.275 HD
ENDBRANCH   1  16
BRANCH   5  20
HETATM   20  N5  UNL     1     -42.366  13.619  12.884  1.00  0.00    -0.073 N 
ATOM     21  H53 UNL     1     -43.346  13.409  13.072  1.00  0.00     0.274 HD
ATOM     22  H52 UNL     1     -41.954  13.016  13.596  1.00  0.00     0.274 HD
ATOM     23  H51 UNL     1     -42.142  14.603  13.030  1.00  0.00     0.274 HD
ENDBRANCH   5  20
TORSDOF 7
ENDMDL
MODEL 4
REMARK VINA RESULT: -5.657687317      1.365      1.838
REMARK  7 active torsions:
REMARK  status: ('A' for Active; 'I' for Inactive)
REMARK    1  A    between atoms: N2_3  and  C2_5 
REMARK    2  A    between atoms: C2_5  and  C3_6 
REMARK    3  A    between atoms: C3_6  and  N3_7 
REMARK    4  A    between atoms: N3_7  and  C4_10 
REMARK    5  A    between atoms: C4_10  and  C5_11 
REMARK    6  A    between atoms: C5_11  and  N4_12 
REMARK    7  A    between atoms: C9_19  and  N5_20 
ROOT
HETATM    1  C5  UNL     1     -42.493  12.049  11.372  1.00  0.00     0.175 C 
HETATM    2  C6  UNL     1     -41.711  13.335  11.300  1.00  0.00     0.043 C 
HETATM    3  C7  UNL     1     -42.071  14.114  12.529  1.00  0.00     0.005 C 
HETATM    4  C8  UNL     1     -42.306  13.062  13.559  1.00  0.00     0.035 C 
HETATM    5  C9  UNL     1     -42.644  11.778  12.861  1.00  0.00     0.220 C 
ENDROOT
BRANCH   1   6
HETATM    6  C4  UNL     1     -41.655  10.969  10.724  1.00  0.00     0.273 C 
BRANCH   6   7
HETATM    7  N3  UNL     1     -40.732  10.356  11.618  1.00  0.00    -0.071 N 
ATOM      8  H32 UNL     1     -41.143   9.562  12.109  1.00  0.00     0.277 HD
ATOM      9  H31 UNL     1     -40.534  10.945  12.428  1.00  0.00     0.277 HD
BRANCH   7  10
HETATM   10  C3  UNL     1     -39.531   9.991  10.909  1.00  0.00     0.251 C 
BRANCH  10  11
HETATM   11  C2  UNL     1     -39.056  11.036   9.935  1.00  0.00     0.147 C 
BRANCH  11  12
HETATM   12  N2  UNL     1     -37.704  10.715   9.460  1.00  0.00    -0.386 N 
HETATM   13  C1  UNL     1     -37.547  10.348   8.219  1.00  0.00     0.185 C 
HETATM   14  N1  UNL     1     -36.248  10.042   7.764  1.00  0.00    -0.097 NA
ATOM     15  H2  UNL     1     -36.903  10.777  10.089  1.00  0.00     0.159 HD
ENDBRANCH  11  12
ENDBRANCH  10  11
ENDBRANCH   7  10
ENDBRANCH   6   7
ENDBRANCH   1   6
BRANCH   1  16
HETATM   16  N4  UNL     1     -43.770  12.243  10.740  1.00  0.00    -0.067 N 
ATOM     17  H43 UNL     1     -43.747  13.052  10.120  1.00  0.00     0.275 HD
ATOM     18  H42 UNL     1     -43.949  11.509  10.054  1.00  0.00     0.275 HD
ATOM     19  H41 UNL     1     -44.545  12.316  11.400  1.00  0.00     0.275 HD
ENDBRANCH   1  16
BRANCH   5  20
HETATM   20  N5  UNL     1     -44.056  11.477  13.146  1.00  0.00    -0.073 N 
ATOM     21  H53 UNL     1     -44.579  11.229  12.307  1.00  0.00     0.274 HD
ATOM     22  H52 UNL     1     -44.175  10.599  13.651  1.00  0.00     0.274 HD
ATOM     23  H51 UNL     1     -44.466  12.270  13.641  1.00  0.00     0.274 HD
ENDBRANCH   5  20
TORSDOF 7
ENDMDL
MODEL 5
REMARK VINA RESULT: -5.634599614      1.552      2.496
REMARK  7 active torsions:
REMARK  status: ('A' for Active; 'I' for Inactive)
REMARK    1  A    between atoms: N2_3  and  C2_5 
REMARK    2  A    between atoms: C2_5  and  C3_6 
REMARK    3  A    between atoms: C3_6  and  N3_7 
REMARK    4  A    between atoms: N3_7  and  C4_10 
REMARK    5  A    between atoms: C4_10  and  C5_11 
REMARK    6  A    between atoms: C5_11  and  N4_12 
REMARK    7  A    between atoms: C9_19  and  N5_20 
ROOT
HETATM    1  C5  UNL     1     -42.428  12.083  11.838  1.00  0.00     0.175 C 
HETATM    2  C6  UNL     1     -42.215  12.214  13.323  1.00  0.00     0.043 C 
HETATM    3  C7  UNL     1     -43.532  11.902  13.966  1.00  0.00     0.005 C 
HETATM    4  C8  UNL     1     -44.136  10.884  13.058  1.00  0.00     0.035 C 
HETATM    5  C9  UNL     1     -43.513  11.025  11.701  1.00  0.00     0.220 C 
ENDROOT
BRANCH   1   6
HETATM    6  C4  UNL     1     -41.132  11.586  11.233  1.00  0.00     0.273 C 
BRANCH   6   7
HETATM    7  N3  UNL     1     -40.764  10.284  11.677  1.00  0.00    -0.071 N 
ATOM      8  H32 UNL     1     -41.462   9.583  11.431  1.00  0.00     0.277 HD
ATOM      9  H31 UNL     1     -40.816  10.196  12.692  1.00  0.00     0.277 HD
BRANCH   7  10
HETATM   10  C3  UNL     1     -39.456   9.946  11.171  1.00  0.00     0.251 C 
BRANCH  10  11
HETATM   11  C2  UNL     1     -39.446   9.559   9.717  1.00  0.00     0.147 C 
BRANCH  11  12
HETATM   12  N2  UNL     1     -38.067   9.368   9.248  1.00  0.00    -0.386 N 
HETATM   13  C1  UNL     1     -37.619  10.135   8.294  1.00  0.00     0.185 C 
HETATM   14  N1  UNL     1     -36.295   9.952   7.847  1.00  0.00    -0.097 NA
ATOM     15  H2  UNL     1     -37.473   8.650   9.661  1.00  0.00     0.159 HD
ENDBRANCH  11  12
ENDBRANCH  10  11
ENDBRANCH   7  10
ENDBRANCH   6   7
ENDBRANCH   1   6
BRANCH   1  16
HETATM   16  N4  UNL     1     -42.858  13.351  11.313  1.00  0.00    -0.067 N 
ATOM     17  H43 UNL     1     -42.057  13.949  11.113  1.00  0.00     0.275 HD
ATOM     18  H42 UNL     1     -43.229  13.243  10.369  1.00  0.00     0.275 HD
ATOM     19  H41 UNL     1     -43.529  13.833  11.912  1.00  0.00     0.275 HD
ENDBRANCH   1  16
BRANCH   5  20
HETATM   20  N5  UNL     1     -44.552  11.530  10.788  1.00  0.00    -0.073 N 
ATOM     21  H53 UNL     1     -45.234  12.121  11.261  1.00  0.00     0.274 HD
ATOM     22  H52 UNL     1     -44.192  12.227  10.134  1.00  0.00     0.274 HD
ATOM     23  H51 UNL     1     -44.984  10.737  10.313  1.00  0.00     0.274 HD
ENDBRANCH   5  20
TORSDOF 7
ENDMDL
