MODEL 1
REMARK VINA RESULT: -5.348764180      0.000      0.000
REMARK  6 active torsions:
REMARK  status: ('A' for Active; 'I' for Inactive)
REMARK    1  A    between atoms: N1_2  and  C2_5 
REMARK    2  A    between atoms: C2_5  and  C3_6 
REMARK    3  A    between atoms: C4_7  and  N2_8 
REMARK    4  A    between atoms: C7_17  and  C8_18 
REMARK    5  A    between atoms: C8_18  and  C9_19 
REMARK    6  A    between atoms: C9_19  and  N4_20 
ROOT
HETATM    1  C3  UNL     1     -41.560  12.175  11.383  1.00  0.00     0.072 C 
HETATM    2  C4  UNL     1     -40.609  11.131  10.850  1.00  0.00     0.192 C 
HETATM    3  C5  UNL     1     -40.965  10.712   9.441  1.00  0.00     0.060 C 
HETATM    4  C6  UNL     1     -40.645  11.926   8.559  1.00  0.00     0.235 C 
HETATM    5  N3  UNL     1     -40.913  13.142   9.306  1.00  0.00    -0.070 N 
ATOM      6  H31 UNL     1     -41.040  13.945   8.690  1.00  0.00     0.277 HD
ATOM      7  H32 UNL     1     -40.088  13.465   9.810  1.00  0.00     0.277 HD
HETATM    8  C7  UNL     1     -42.062  12.955  10.200  1.00  0.00     0.195 C 
ENDROOT
BRANCH   8   9
HETATM    9  C8  UNL     1     -42.688  14.261  10.549  1.00  0.00     0.060 C 
BRANCH   9  10
HETATM   10  C9  UNL     1     -41.819  15.192  11.327  1.00  0.00     0.231 C 
BRANCH  10  11
HETATM   11  N4  UNL     1     -42.419  15.440  12.648  1.00  0.00    -0.079 N 
ATOM     12  H43 UNL     1     -43.438  15.441  12.614  1.00  0.00     0.274 HD
ATOM     13  H42 UNL     1     -42.294  14.649  13.282  1.00  0.00     0.274 HD
ATOM     14  H41 UNL     1     -42.046  16.306  13.037  1.00  0.00     0.274 HD
ENDBRANCH  10  11
ENDBRANCH   9  10
ENDBRANCH   8   9
BRANCH   1  15
HETATM   15  C2  UNL     1     -42.643  11.639  12.255  1.00  0.00     0.240 C 
BRANCH  15  16
HETATM   16  N1  UNL     1     -42.670  12.115  13.597  1.00  0.00    -0.079 N 
HETATM   17  C1  UNL     1     -43.935  11.640  14.183  1.00  0.00     0.267 C 
ATOM     18  H12 UNL     1     -42.545  13.125  13.671  1.00  0.00     0.276 HD
ATOM     19  H11 UNL     1     -41.849  11.846  14.138  1.00  0.00     0.276 HD
ENDBRANCH  15  16
ENDBRANCH   1  15
BRANCH   2  20
HETATM   20  N2  UNL     1     -40.520   9.961  11.681  1.00  0.00    -0.074 N 
ATOM     21  H23 UNL     1     -39.928  10.139  12.493  1.00  0.00     0.274 HD
ATOM     22  H22 UNL     1     -41.407   9.784  12.153  1.00  0.00     0.274 HD
ATOM     23  H21 UNL     1     -40.206   9.130  11.180  1.00  0.00     0.274 HD
ENDBRANCH   2  20
TORSDOF 6
ENDMDL
MODEL 2
REMARK VINA RESULT: -5.241328581      1.220      1.266
REMARK  6 active torsions:
REMARK  status: ('A' for Active; 'I' for Inactive)
REMARK    1  A    between atoms: N1_2  and  C2_5 
REMARK    2  A    between atoms: C2_5  and  C3_6 
REMARK    3  A    between atoms: C4_7  and  N2_8 
REMARK    4  A    between atoms: C7_17  and  C8_18 
REMARK    5  A    between atoms: C8_18  and  C9_19 
REMARK    6  A    between atoms: C9_19  and  N4_20 
ROOT
HETATM    1  C3  UNL     1     -41.287  11.923  11.135  1.00  0.00     0.072 C 
HETATM    2  C4  UNL     1     -39.956  11.342  10.723  1.00  0.00     0.192 C 
HETATM    3  C5  UNL     1     -39.628  11.652   9.280  1.00  0.00     0.060 C 
HETATM    4  C6  UNL     1     -39.353  13.162   9.237  1.00  0.00     0.235 C 
HETATM    5  N3  UNL     1     -40.208  13.829  10.201  1.00  0.00    -0.070 N 
ATOM      6  H31 UNL     1     -40.314  14.822   9.991  1.00  0.00     0.277 HD
ATOM      7  H32 UNL     1     -39.757  13.913  11.112  1.00  0.00     0.277 HD
HETATM    8  C7  UNL     1     -41.506  13.151  10.297  1.00  0.00     0.195 C 
ENDROOT
BRANCH   8   9
HETATM    9  C8  UNL     1     -42.555  14.071  10.821  1.00  0.00     0.060 C 
BRANCH   9  10
HETATM   10  C9  UNL     1     -42.041  15.248  11.581  1.00  0.00     0.231 C 
BRANCH  10  11
HETATM   11  N4  UNL     1     -42.409  15.118  13.000  1.00  0.00    -0.079 N 
ATOM     12  H43 UNL     1     -41.666  15.439  13.621  1.00  0.00     0.274 HD
ATOM     13  H42 UNL     1     -43.128  15.788  13.274  1.00  0.00     0.274 HD
ATOM     14  H41 UNL     1     -42.685  14.156  13.197  1.00  0.00     0.274 HD
ENDBRANCH  10  11
ENDBRANCH   9  10
ENDBRANCH   8   9
BRANCH   1  15
HETATM   15  C2  UNL     1     -42.422  10.958  11.098  1.00  0.00     0.240 C 
BRANCH  15  16
HETATM   16  N1  UNL     1     -42.874  10.463  12.355  1.00  0.00    -0.079 N 
HETATM   17  C1  UNL     1     -44.317  10.751  12.423  1.00  0.00     0.267 C 
ATOM     18  H12 UNL     1     -42.350  10.834  13.147  1.00  0.00     0.276 HD
ATOM     19  H11 UNL     1     -42.652   9.479  12.506  1.00  0.00     0.276 HD
ENDBRANCH  15  16
ENDBRANCH   1  15
BRANCH   2  20
HETATM   20  N2  UNL     1     -39.861   9.923  10.934  1.00  0.00    -0.074 N 
ATOM     21  H23 UNL     1     -40.722   9.561  11.345  1.00  0.00     0.274 HD
ATOM     22  H22 UNL     1     -39.875   9.424  10.044  1.00  0.00     0.274 HD
ATOM     23  H21 UNL     1     -39.051   9.648  11.490  1.00  0.00     0.274 HD
ENDBRANCH   2  20
TORSDOF 6
ENDMDL
MODEL 3
REMARK VINA RESULT: -5.159354217      1.329      3.679
REMARK  6 active torsions:
REMARK  status: ('A' for Active; 'I' for Inactive)
REMARK    1  A    between atoms: N1_2  and  C2_5 
REMARK    2  A    between atoms: C2_5  and  C3_6 
REMARK    3  A    between atoms: C4_7  and  N2_8 
REMARK    4  A    between atoms: C7_17  and  C8_18 
REMARK    5  A    between atoms: C8_18  and  C9_19 
REMARK    6  A    between atoms: C9_19  and  N4_20 
ROOT
HETATM    1  C3  UNL     1     -41.150  12.095  10.915  1.00  0.00     0.072 C 
HETATM    2  C4  UNL     1     -41.098  12.857   9.613  1.00  0.00     0.192 C 
HETATM    3  C5  UNL     1     -42.480  13.205   9.108  1.00  0.00     0.060 C 
HETATM    4  C6  UNL     1     -43.020  14.260  10.084  1.00  0.00     0.235 C 
HETATM    5  N3  UNL     1     -42.517  13.978  11.416  1.00  0.00    -0.070 N 
ATOM      6  H31 UNL     1     -43.086  14.422  12.137  1.00  0.00     0.277 HD
ATOM      7  H32 UNL     1     -41.637  14.461  11.598  1.00  0.00     0.277 HD
HETATM    8  C7  UNL     1     -42.399  12.531  11.628  1.00  0.00     0.195 C 
ENDROOT
BRANCH   8   9
HETATM    9  C8  UNL     1     -42.424  12.198  13.080  1.00  0.00     0.060 C 
BRANCH   9  10
HETATM   10  C9  UNL     1     -43.650  11.484  13.544  1.00  0.00     0.231 C 
BRANCH  10  11
HETATM   11  N4  UNL     1     -43.812  10.234  12.784  1.00  0.00    -0.079 N 
ATOM     12  H43 UNL     1     -44.206  10.396  11.857  1.00  0.00     0.274 HD
ATOM     13  H42 UNL     1     -42.916   9.840  12.496  1.00  0.00     0.274 HD
ATOM     14  H41 UNL     1     -44.366   9.572  13.327  1.00  0.00     0.274 HD
ENDBRANCH  10  11
ENDBRANCH   9  10
ENDBRANCH   8   9
BRANCH   1  15
HETATM   15  C2  UNL     1     -41.023  10.617  10.772  1.00  0.00     0.240 C 
BRANCH  15  16
HETATM   16  N1  UNL     1     -40.056   9.981  11.603  1.00  0.00    -0.079 N 
HETATM   17  C1  UNL     1     -38.937   9.598  10.725  1.00  0.00     0.267 C 
ATOM     18  H12 UNL     1     -40.435   9.200  12.138  1.00  0.00     0.276 HD
ATOM     19  H11 UNL     1     -39.768  10.551  12.398  1.00  0.00     0.276 HD
ENDBRANCH  15  16
ENDBRANCH   1  15
BRANCH   2  20
HETATM   20  N2  UNL     1     -40.376  12.170   8.576  1.00  0.00    -0.074 N 
ATOM     21  H23 UNL     1     -41.013  11.839   7.852  1.00  0.00     0.274 HD
ATOM     22  H22 UNL     1     -39.821  12.826   8.026  1.00  0.00     0.274 HD
ATOM     23  H21 UNL     1     -39.794  11.408   8.923  1.00  0.00     0.274 HD
ENDBRANCH   2  20
TORSDOF 6
ENDMDL
MODEL 4
REMARK VINA RESULT: -5.095569033      1.722      3.729
REMARK  6 active torsions:
REMARK  status: ('A' for Active; 'I' for Inactive)
REMARK    1  A    between atoms: N1_2  and  C2_5 
REMARK    2  A    between atoms: C2_5  and  C3_6 
REMARK    3  A    between atoms: C4_7  and  N2_8 
REMARK    4  A    between atoms: C7_17  and  C8_18 
REMARK    5  A    between atoms: C8_18  and  C9_19 
REMARK    6  A    between atoms: C9_19  and  N4_20 
ROOT
HETATM    1  C3  UNL     1     -41.987  12.440  10.382  1.00  0.00     0.072 C 
HETATM    2  C4  UNL     1     -41.920  13.915  10.067  1.00  0.00     0.192 C 
HETATM    3  C5  UNL     1     -40.626  14.534  10.546  1.00  0.00     0.060 C 
HETATM    4  C6  UNL     1     -39.533  13.955   9.638  1.00  0.00     0.235 C 
HETATM    5  N3  UNL     1     -39.882  12.592   9.282  1.00  0.00    -0.070 N 
ATOM      6  H31 UNL     1     -39.067  12.061   8.973  1.00  0.00     0.277 HD
ATOM      7  H32 UNL     1     -40.425  12.553   8.420  1.00  0.00     0.277 HD
HETATM    8  C7  UNL     1     -40.574  11.930  10.394  1.00  0.00     0.195 C 
ENDROOT
BRANCH   8   9
HETATM    9  C8  UNL     1     -40.457  10.448  10.293  1.00  0.00     0.060 C 
BRANCH   9  10
HETATM   10  C9  UNL     1     -39.571   9.813  11.312  1.00  0.00     0.231 C 
BRANCH  10  11
HETATM   11  N4  UNL     1     -38.173  10.200  11.062  1.00  0.00    -0.079 N 
ATOM     12  H43 UNL     1     -38.004  10.420  10.081  1.00  0.00     0.274 HD
ATOM     13  H42 UNL     1     -37.951  11.114  11.458  1.00  0.00     0.274 HD
ATOM     14  H41 UNL     1     -37.549   9.470  11.406  1.00  0.00     0.274 HD
ENDBRANCH  10  11
ENDBRANCH   9  10
ENDBRANCH   8   9
BRANCH   1  15
HETATM   15  C2  UNL     1     -42.760  12.104  11.612  1.00  0.00     0.240 C 
BRANCH  15  16
HETATM   16  N1  UNL     1     -44.046  11.524  11.414  1.00  0.00    -0.079 N 
HETATM   17  C1  UNL     1     -44.322  10.703  12.605  1.00  0.00     0.267 C 
ATOM     18  H12 UNL     1     -44.125  11.006  10.539  1.00  0.00     0.276 HD
ATOM     19  H11 UNL     1     -44.774  12.212  11.220  1.00  0.00     0.276 HD
ENDBRANCH  15  16
ENDBRANCH   1  15
BRANCH   2  20
HETATM   20  N2  UNL     1     -43.026  14.665  10.598  1.00  0.00    -0.074 N 
ATOM     21  H23 UNL     1     -43.713  14.042  11.025  1.00  0.00     0.274 HD
ATOM     22  H22 UNL     1     -42.742  15.194  11.423  1.00  0.00     0.274 HD
ATOM     23  H21 UNL     1     -43.469  15.276   9.912  1.00  0.00     0.274 HD
ENDBRANCH   2  20
TORSDOF 6
ENDMDL
MODEL 5
REMARK VINA RESULT: -5.087681995      1.596      3.278
REMARK  6 active torsions:
REMARK  status: ('A' for Active; 'I' for Inactive)
REMARK    1  A    between atoms: N1_2  and  C2_5 
REMARK    2  A    between atoms: C2_5  and  C3_6 
REMARK    3  A    between atoms: C4_7  and  N2_8 
REMARK    4  A    between atoms: C7_17  and  C8_18 
REMARK    5  A    between atoms: C8_18  and  C9_19 
REMARK    6  A    between atoms: C9_19  and  N4_20 
ROOT
HETATM    1  C3  UNL     1     -41.761  12.421   9.540  1.00  0.00     0.072 C 
HETATM    2  C4  UNL     1     -41.790  10.928   9.765  1.00  0.00     0.192 C 
HETATM    3  C5  UNL     1     -41.596  10.575  11.222  1.00  0.00     0.060 C 
HETATM    4  C6  UNL     1     -42.877  11.038  11.931  1.00  0.00     0.235 C 
HETATM    5  N3  UNL     1     -43.373  12.238  11.282  1.00  0.00    -0.070 N 
ATOM      6  H31 UNL     1     -44.001  12.765  11.889  1.00  0.00     0.277 HD
ATOM      7  H32 UNL     1     -44.031  12.019  10.534  1.00  0.00     0.277 HD
HETATM    8  C7  UNL     1     -42.258  13.064  10.803  1.00  0.00     0.195 C 
ENDROOT
BRANCH   8   9
HETATM    9  C8  UNL     1     -42.674  14.486  10.644  1.00  0.00     0.060 C 
BRANCH   9  10
HETATM   10  C9  UNL     1     -42.036  15.441  11.598  1.00  0.00     0.231 C 
BRANCH  10  11
HETATM   11  N4  UNL     1     -42.457  15.124  12.972  1.00  0.00    -0.079 N 
ATOM     12  H43 UNL     1     -41.690  14.756  13.534  1.00  0.00     0.274 HD
ATOM     13  H42 UNL     1     -42.650  15.963  13.518  1.00  0.00     0.274 HD
ATOM     14  H41 UNL     1     -43.255  14.489  12.948  1.00  0.00     0.274 HD
ENDBRANCH  10  11
ENDBRANCH   9  10
ENDBRANCH   8   9
BRANCH   1  15
HETATM   15  C2  UNL     1     -40.450  12.950   9.070  1.00  0.00     0.240 C 
BRANCH  15  16
HETATM   16  N1  UNL     1     -39.473  13.208  10.075  1.00  0.00    -0.079 N 
HETATM   17  C1  UNL     1     -38.895  14.527   9.766  1.00  0.00     0.267 C 
ATOM     18  H12 UNL     1     -38.775  12.470  10.159  1.00  0.00     0.276 HD
ATOM     19  H11 UNL     1     -39.843  13.142  11.023  1.00  0.00     0.276 HD
ENDBRANCH  15  16
ENDBRANCH   1  15
BRANCH   2  20
HETATM   20  N2  UNL     1     -40.827  10.211   8.974  1.00  0.00    -0.074 N 
ATOM     21  H23 UNL     1     -40.853  10.523   8.003  1.00  0.00     0.274 HD
ATOM     22  H22 UNL     1     -39.878  10.493   9.217  1.00  0.00     0.274 HD
ATOM     23  H21 UNL     1     -40.929   9.197   9.031  1.00  0.00     0.274 HD
ENDBRANCH   2  20
TORSDOF 6
ENDMDL
