MODEL 1
REMARK VINA RESULT: -5.333325258      0.000      0.000
REMARK  7 active torsions:
REMARK  status: ('A' for Active; 'I' for Inactive)
REMARK    1  A    between atoms: C2_2  and  C3_3 
REMARK    2  A    between atoms: C3_3  and  N1_4 
REMARK    3  A    between atoms: N1_4  and  C4_6 
REMARK    4  A    between atoms: C5_11  and  N4_12 
REMARK    5  A    between atoms: N4_12  and  C6_14 
REMARK    6  A    between atoms: C6_14  and  C7_15 
REMARK    7  A    between atoms: C7_15  and  N5_16 
ROOT
HETATM    1  C4  UNL     1     -40.631  14.264  10.393  1.00  0.00     0.707 A 
HETATM    2  N2  UNL     1     -41.444  15.082  11.070  1.00  0.00    -0.117 N 
ATOM      3  H2  UNL     1     -41.239  16.047  11.333  1.00  0.00     0.206 HD
HETATM    4  N3  UNL     1     -42.557  14.427  11.340  1.00  0.00    -0.117 N 
ATOM      5  H3  UNL     1     -43.356  14.806  11.848  1.00  0.00     0.206 HD
HETATM    6  C5  UNL     1     -42.475  13.186  10.842  1.00  0.00     0.707 A 
HETATM    7  N6  UNL     1     -41.273  13.096  10.257  1.00  0.00    -0.020 N 
ATOM      8  H6  UNL     1     -40.906  12.270   9.784  1.00  0.00     0.203 HD
ENDROOT
BRANCH   6   9
HETATM    9  N4  UNL     1     -43.410  12.277  10.937  1.00  0.00    -0.223 N 
ATOM     10  H4  UNL     1     -44.327  12.407  10.509  1.00  0.00     0.177 HD
BRANCH   9  11
HETATM   11  C6  UNL     1     -43.082  11.077  11.677  1.00  0.00     0.165 C 
BRANCH  11  12
HETATM   12  C7  UNL     1     -44.052  10.850  12.822  1.00  0.00     0.249 C 
BRANCH  12  13
HETATM   13  N5  UNL     1     -43.607  11.583  13.980  1.00  0.00    -0.078 N 
ATOM     14  H53 UNL     1     -42.720  11.231  14.341  1.00  0.00     0.274 HD
ATOM     15  H52 UNL     1     -43.303  12.528  13.744  1.00  0.00     0.274 HD
ATOM     16  H51 UNL     1     -44.341  11.579  14.687  1.00  0.00     0.274 HD
ENDBRANCH  12  13
ENDBRANCH  11  12
ENDBRANCH   9  11
ENDBRANCH   6   9
BRANCH   1  17
HETATM   17  N1  UNL     1     -39.459  14.557   9.962  1.00  0.00    -0.224 N 
ATOM     18  H1  UNL     1     -39.055  15.459  10.213  1.00  0.00     0.177 HD
BRANCH  17  19
HETATM   19  C3  UNL     1     -38.701  13.670   9.148  1.00  0.00     0.138 C 
BRANCH  19  20
HETATM   20  C2  UNL     1     -37.533  13.030   9.851  1.00  0.00     0.016 C 
HETATM   21  C1  UNL     1     -37.892  11.666  10.408  1.00  0.00     0.006 C 
ENDBRANCH  19  20
ENDBRANCH  17  19
ENDBRANCH   1  17
TORSDOF 7
ENDMDL
MODEL 2
REMARK VINA RESULT: -5.236352934      1.376      1.947
REMARK  7 active torsions:
REMARK  status: ('A' for Active; 'I' for Inactive)
REMARK    1  A    between atoms: C2_2  and  C3_3 
REMARK    2  A    between atoms: C3_3  and  N1_4 
REMARK    3  A    between atoms: N1_4  and  C4_6 
REMARK    4  A    between atoms: C5_11  and  N4_12 
REMARK    5  A    between atoms: N4_12  and  C6_14 
REMARK    6  A    between atoms: C6_14  and  C7_15 
REMARK    7  A    between atoms: C7_15  and  N5_16 
ROOT
HETATM    1  C4  UNL     1     -41.601  14.203  11.395  1.00  0.00     0.707 A 
HETATM    2  N2  UNL     1     -42.082  15.040  12.321  1.00  0.00    -0.117 N 
ATOM      3  H2  UNL     1     -42.110  16.058  12.251  1.00  0.00     0.206 HD
HETATM    4  N3  UNL     1     -42.515  14.323  13.341  1.00  0.00    -0.117 N 
ATOM      5  H3  UNL     1     -42.933  14.699  14.191  1.00  0.00     0.206 HD
HETATM    6  C5  UNL     1     -42.319  13.023  13.086  1.00  0.00     0.707 A 
HETATM    7  N6  UNL     1     -41.750  12.960  11.875  1.00  0.00    -0.020 N 
ATOM      8  H6  UNL     1     -41.474  12.103  11.394  1.00  0.00     0.203 HD
ENDROOT
BRANCH   6   9
HETATM    9  N4  UNL     1     -42.637  12.044  13.893  1.00  0.00    -0.223 N 
ATOM     10  H4  UNL     1     -41.963  11.655  14.552  1.00  0.00     0.177 HD
BRANCH   9  11
HETATM   11  C6  UNL     1     -43.991  11.539  13.807  1.00  0.00     0.165 C 
BRANCH  11  12
HETATM   12  C7  UNL     1     -44.141  10.549  12.667  1.00  0.00     0.249 C 
BRANCH  12  13
HETATM   13  N5  UNL     1     -44.849  11.174  11.579  1.00  0.00    -0.078 N 
ATOM     14  H53 UNL     1     -45.693  11.652  11.893  1.00  0.00     0.274 HD
ATOM     15  H52 UNL     1     -44.351  11.984  11.210  1.00  0.00     0.274 HD
ATOM     16  H51 UNL     1     -45.044  10.480  10.858  1.00  0.00     0.274 HD
ENDBRANCH  12  13
ENDBRANCH  11  12
ENDBRANCH   9  11
ENDBRANCH   6   9
BRANCH   1  17
HETATM   17  N1  UNL     1     -41.095  14.541  10.267  1.00  0.00    -0.224 N 
ATOM     18  H1  UNL     1     -41.722  14.813   9.510  1.00  0.00     0.177 HD
BRANCH  17  19
HETATM   19  C3  UNL     1     -39.692  14.551  10.031  1.00  0.00     0.138 C 
BRANCH  19  20
HETATM   20  C2  UNL     1     -39.140  13.244   9.522  1.00  0.00     0.016 C 
HETATM   21  C1  UNL     1     -37.639  13.157   9.714  1.00  0.00     0.006 C 
ENDBRANCH  19  20
ENDBRANCH  17  19
ENDBRANCH   1  17
TORSDOF 7
ENDMDL
MODEL 3
REMARK VINA RESULT: -5.103342080      1.935      3.237
REMARK  7 active torsions:
REMARK  status: ('A' for Active; 'I' for Inactive)
REMARK    1  A    between atoms: C2_2  and  C3_3 
REMARK    2  A    between atoms: C3_3  and  N1_4 
REMARK    3  A    between atoms: N1_4  and  C4_6 
REMARK    4  A    between atoms: C5_11  and  N4_12 
REMARK    5  A    between atoms: N4_12  and  C6_14 
REMARK    6  A    between atoms: C6_14  and  C7_15 
REMARK    7  A    between atoms: C7_15  and  N5_16 
ROOT
HETATM    1  C4  UNL     1     -40.535  10.720  10.447  1.00  0.00     0.707 A 
HETATM    2  N2  UNL     1     -40.908  10.345  11.676  1.00  0.00    -0.117 N 
ATOM      3  H2  UNL     1     -40.528   9.558  12.202  1.00  0.00     0.206 HD
HETATM    4  N3  UNL     1     -41.853  11.169  12.089  1.00  0.00    -0.117 N 
ATOM      5  H3  UNL     1     -42.323  11.120  12.993  1.00  0.00     0.206 HD
HETATM    6  C5  UNL     1     -42.098  12.079  11.138  1.00  0.00     0.707 A 
HETATM    7  N6  UNL     1     -41.274  11.791  10.122  1.00  0.00    -0.020 N 
ATOM      8  H6  UNL     1     -41.218  12.303   9.242  1.00  0.00     0.203 HD
ENDROOT
BRANCH   6   9
HETATM    9  N4  UNL     1     -42.979  13.041  11.230  1.00  0.00    -0.223 N 
ATOM     10  H4  UNL     1     -43.866  12.908  11.716  1.00  0.00     0.177 HD
BRANCH   9  11
HETATM   11  C6  UNL     1     -42.636  14.303  10.609  1.00  0.00     0.165 C 
BRANCH  11  12
HETATM   12  C7  UNL     1     -41.851  15.191  11.556  1.00  0.00     0.249 C 
BRANCH  12  13
HETATM   13  N5  UNL     1     -42.463  15.161  12.859  1.00  0.00    -0.078 N 
ATOM     14  H53 UNL     1     -43.476  15.052  12.807  1.00  0.00     0.274 HD
ATOM     15  H52 UNL     1     -42.250  14.302  13.366  1.00  0.00     0.274 HD
ATOM     16  H51 UNL     1     -42.191  15.995  13.380  1.00  0.00     0.274 HD
ENDBRANCH  12  13
ENDBRANCH  11  12
ENDBRANCH   9  11
ENDBRANCH   6   9
BRANCH   1  17
HETATM   17  N1  UNL     1     -39.638  10.153   9.728  1.00  0.00    -0.224 N 
ATOM     18  H1  UNL     1     -39.790   9.192   9.422  1.00  0.00     0.177 HD
BRANCH  17  19
HETATM   19  C3  UNL     1     -38.439  10.813   9.339  1.00  0.00     0.138 C 
BRANCH  19  20
HETATM   20  C2  UNL     1     -37.817  11.656  10.423  1.00  0.00     0.016 C 
HETATM   21  C1  UNL     1     -36.947  12.756   9.848  1.00  0.00     0.006 C 
ENDBRANCH  19  20
ENDBRANCH  17  19
ENDBRANCH   1  17
TORSDOF 7
ENDMDL
MODEL 4
REMARK VINA RESULT: -5.092553875      1.816      2.033
REMARK  7 active torsions:
REMARK  status: ('A' for Active; 'I' for Inactive)
REMARK    1  A    between atoms: C2_2  and  C3_3 
REMARK    2  A    between atoms: C3_3  and  N1_4 
REMARK    3  A    between atoms: N1_4  and  C4_6 
REMARK    4  A    between atoms: C5_11  and  N4_12 
REMARK    5  A    between atoms: N4_12  and  C6_14 
REMARK    6  A    between atoms: C6_14  and  C7_15 
REMARK    7  A    between atoms: C7_15  and  N5_16 
ROOT
HETATM    1  C4  UNL     1     -41.576  12.272   8.968  1.00  0.00     0.707 A 
HETATM    2  N2  UNL     1     -42.613  12.690   8.233  1.00  0.00    -0.117 N 
ATOM      3  H2  UNL     1     -42.559  13.097   7.299  1.00  0.00     0.206 HD
HETATM    4  N3  UNL     1     -43.719  12.483   8.924  1.00  0.00    -0.117 N 
ATOM      5  H3  UNL     1     -44.662  12.707   8.609  1.00  0.00     0.206 HD
HETATM    6  C5  UNL     1     -43.409  11.933  10.106  1.00  0.00     0.707 A 
HETATM    7  N6  UNL     1     -42.075  11.807  10.123  1.00  0.00    -0.020 N 
ATOM      8  H6  UNL     1     -41.527  11.420  10.891  1.00  0.00     0.203 HD
ENDROOT
BRANCH   6   9
HETATM    9  N4  UNL     1     -44.274  11.603  11.029  1.00  0.00    -0.223 N 
ATOM     10  H4  UNL     1     -45.227  11.966  11.022  1.00  0.00     0.177 HD
BRANCH   9  11
HETATM   11  C6  UNL     1     -43.815  10.697  12.060  1.00  0.00     0.165 C 
BRANCH  11  12
HETATM   12  C7  UNL     1     -44.087  11.252  13.446  1.00  0.00     0.249 C 
BRANCH  12  13
HETATM   13  N5  UNL     1     -42.958  12.033  13.880  1.00  0.00    -0.078 N 
ATOM     14  H53 UNL     1     -42.657  11.787  14.823  1.00  0.00     0.274 HD
ATOM     15  H52 UNL     1     -42.102  11.782  13.384  1.00  0.00     0.274 HD
ATOM     16  H51 UNL     1     -43.178  13.025  13.791  1.00  0.00     0.274 HD
ENDBRANCH  12  13
ENDBRANCH  11  12
ENDBRANCH   9  11
ENDBRANCH   6   9
BRANCH   1  17
HETATM   17  N1  UNL     1     -40.343  12.316   8.621  1.00  0.00    -0.224 N 
ATOM     18  H1  UNL     1     -40.055  11.830   7.771  1.00  0.00     0.177 HD
BRANCH  17  19
HETATM   19  C3  UNL     1     -39.361  13.015   9.376  1.00  0.00     0.138 C 
BRANCH  19  20
HETATM   20  C2  UNL     1     -38.338  12.127  10.035  1.00  0.00     0.016 C 
HETATM   21  C1  UNL     1     -36.949  12.732   9.977  1.00  0.00     0.006 C 
ENDBRANCH  19  20
ENDBRANCH  17  19
ENDBRANCH   1  17
TORSDOF 7
ENDMDL
MODEL 5
REMARK VINA RESULT: -5.091502630      2.395      3.239
REMARK  7 active torsions:
REMARK  status: ('A' for Active; 'I' for Inactive)
REMARK    1  A    between atoms: C2_2  and  C3_3 
REMARK    2  A    between atoms: C3_3  and  N1_4 
REMARK    3  A    between atoms: N1_4  and  C4_6 
REMARK    4  A    between atoms: C5_11  and  N4_12 
REMARK    5  A    between atoms: N4_12  and  C6_14 
REMARK    6  A    between atoms: C6_14  and  C7_15 
REMARK    7  A    between atoms: C7_15  and  N5_16 
ROOT
HETATM    1  C4  UNL     1     -38.701  10.896  10.384  1.00  0.00     0.707 A 
HETATM    2  N2  UNL     1     -38.581   9.873  11.237  1.00  0.00    -0.117 N 
ATOM      3  H2  UNL     1     -37.732   9.335  11.410  1.00  0.00     0.206 HD
HETATM    4  N3  UNL     1     -39.751   9.681  11.818  1.00  0.00    -0.117 N 
ATOM      5  H3  UNL     1     -39.952   8.965  12.516  1.00  0.00     0.206 HD
HETATM    6  C5  UNL     1     -40.633  10.572  11.348  1.00  0.00     0.707 A 
HETATM    7  N6  UNL     1     -39.971  11.322  10.457  1.00  0.00    -0.020 N 
ATOM      8  H6  UNL     1     -40.368  12.093   9.921  1.00  0.00     0.203 HD
ENDROOT
BRANCH   6   9
HETATM    9  N4  UNL     1     -41.885  10.654  11.717  1.00  0.00    -0.223 N 
ATOM     10  H4  UNL     1     -42.460   9.821  11.846  1.00  0.00     0.177 HD
BRANCH   9  11
HETATM   11  C6  UNL     1     -42.416  11.982  11.936  1.00  0.00     0.165 C 
BRANCH  11  12
HETATM   12  C7  UNL     1     -42.478  12.319  13.414  1.00  0.00     0.249 C 
BRANCH  12  13
HETATM   13  N5  UNL     1     -43.566  11.599  14.024  1.00  0.00    -0.078 N 
ATOM     14  H53 UNL     1     -43.316  10.636  14.247  1.00  0.00     0.274 HD
ATOM     15  H52 UNL     1     -43.760  11.922  14.972  1.00  0.00     0.274 HD
ATOM     16  H51 UNL     1     -44.388  11.655  13.422  1.00  0.00     0.274 HD
ENDBRANCH  12  13
ENDBRANCH  11  12
ENDBRANCH   9  11
ENDBRANCH   6   9
BRANCH   1  17
HETATM   17  N1  UNL     1     -37.770  11.369   9.641  1.00  0.00    -0.224 N 
ATOM     18  H1  UNL     1     -37.403  10.789   8.886  1.00  0.00     0.177 HD
BRANCH  17  19
HETATM   19  C3  UNL     1     -37.228  12.671   9.830  1.00  0.00     0.138 C 
BRANCH  19  20
HETATM   20  C2  UNL     1     -37.814  13.722   8.923  1.00  0.00     0.016 C 
HETATM   21  C1  UNL     1     -38.861  14.556   9.636  1.00  0.00     0.006 C 
ENDBRANCH  19  20
ENDBRANCH  17  19
ENDBRANCH   1  17
TORSDOF 7
ENDMDL
