MODEL 1
REMARK VINA RESULT: -5.204115910      0.000      0.000
REMARK  6 active torsions:
REMARK  status: ('A' for Active; 'I' for Inactive)
REMARK    1  A    between atoms: N1_2  and  C2_4 
REMARK    2  A    between atoms: C2_4  and  C3_5 
REMARK    3  A    between atoms: C2_4  and  C4_10 
REMARK    4  A    between atoms: C3_5  and  N2_6 
REMARK    5  A    between atoms: C4_10  and  N3_11 
REMARK    6  A    between atoms: C4_10  and  C5_15 
ROOT
HETATM    1  C4  UNL     1     -42.128  11.535   9.726  1.00  0.00     0.211 C 
ENDROOT
BRANCH   1   2
HETATM    2  C2  UNL     1     -43.446  11.478  10.361  1.00  0.00     0.132 C 
BRANCH   2   3
HETATM    3  N1  UNL     1     -44.192  12.679  10.039  1.00  0.00    -0.418 N 
HETATM    4  C1  UNL     1     -43.443  13.790   9.605  1.00  0.00     0.140 C 
ATOM      5  H1  UNL     1     -45.207  12.717  10.122  1.00  0.00     0.153 HD
ENDBRANCH   2   3
BRANCH   2   6
HETATM    6  C3  UNL     1     -43.555  11.166  11.790  1.00  0.00     0.256 C 
BRANCH   6   7
HETATM    7  N2  UNL     1     -44.849  11.069  12.370  1.00  0.00    -0.077 N 
ATOM      8  H23 UNL     1     -44.777  10.565  13.255  1.00  0.00     0.274 HD
ATOM      9  H22 UNL     1     -45.137  11.992  12.692  1.00  0.00     0.274 HD
ATOM     10  H21 UNL     1     -45.602  10.661  11.818  1.00  0.00     0.274 HD
ENDBRANCH   6   7
ENDBRANCH   2   6
ENDBRANCH   1   2
BRANCH   1  11
HETATM   11  N3  UNL     1     -42.135  10.662   8.563  1.00  0.00    -0.073 N 
ATOM     12  H33 UNL     1     -41.981   9.683   8.807  1.00  0.00     0.274 HD
ATOM     13  H32 UNL     1     -43.065  10.560   8.156  1.00  0.00     0.274 HD
ATOM     14  H31 UNL     1     -41.450  11.008   7.891  1.00  0.00     0.274 HD
ENDBRANCH   1  11
BRANCH   1  15
HETATM   15  C5  UNL     1     -40.925  11.249  10.519  1.00  0.00     0.021 C 
HETATM   16  C6  UNL     1     -39.971  12.437  10.380  1.00  0.00     0.034 C 
HETATM   17  C7  UNL     1     -38.607  11.995   9.892  1.00  0.00     0.232 C 
HETATM   18  N4  UNL     1     -38.029  10.979  10.721  1.00  0.00    -0.075 N 
HETATM   19  C8  UNL     1     -38.961   9.961  11.111  1.00  0.00     0.232 C 
ATOM     20  H42 UNL     1     -37.212  10.568  10.269  1.00  0.00     0.277 HD
ATOM     21  H41 UNL     1     -37.582  11.393  11.538  1.00  0.00     0.277 HD
HETATM   22  C9  UNL     1     -40.143  10.038  10.131  1.00  0.00     0.034 C 
ENDBRANCH   1  15
TORSDOF 6
ENDMDL
MODEL 2
REMARK VINA RESULT: -5.197659741      1.908      2.956
REMARK  6 active torsions:
REMARK  status: ('A' for Active; 'I' for Inactive)
REMARK    1  A    between atoms: N1_2  and  C2_4 
REMARK    2  A    between atoms: C2_4  and  C3_5 
REMARK    3  A    between atoms: C2_4  and  C4_10 
REMARK    4  A    between atoms: C3_5  and  N2_6 
REMARK    5  A    between atoms: C4_10  and  N3_11 
REMARK    6  A    between atoms: C4_10  and  C5_15 
ROOT
HETATM    1  C4  UNL     1     -42.734  13.356  10.454  1.00  0.00     0.211 C 
ENDROOT
BRANCH   1   2
HETATM    2  C2  UNL     1     -42.835  12.147  11.273  1.00  0.00     0.132 C 
BRANCH   2   3
HETATM    3  N1  UNL     1     -44.169  11.593  11.160  1.00  0.00    -0.418 N 
HETATM    4  C1  UNL     1     -44.568  10.692  12.167  1.00  0.00     0.140 C 
ATOM      5  H1  UNL     1     -44.789  11.844  10.390  1.00  0.00     0.153 HD
ENDBRANCH   2   3
BRANCH   2   6
HETATM    6  C3  UNL     1     -42.401  12.177  12.675  1.00  0.00     0.256 C 
BRANCH   6   7
HETATM    7  N2  UNL     1     -42.477  13.406  13.385  1.00  0.00    -0.077 N 
ATOM      8  H23 UNL     1     -41.562  13.611  13.789  1.00  0.00     0.274 HD
ATOM      9  H22 UNL     1     -42.572  14.170  12.715  1.00  0.00     0.274 HD
ATOM     10  H21 UNL     1     -43.189  13.510  14.108  1.00  0.00     0.274 HD
ENDBRANCH   6   7
ENDBRANCH   2   6
ENDBRANCH   1   2
BRANCH   1  11
HETATM   11  N3  UNL     1     -43.797  13.334   9.461  1.00  0.00    -0.073 N 
ATOM     12  H33 UNL     1     -44.616  13.867   9.753  1.00  0.00     0.274 HD
ATOM     13  H32 UNL     1     -43.566  13.876   8.629  1.00  0.00     0.274 HD
ATOM     14  H31 UNL     1     -44.021  12.363   9.245  1.00  0.00     0.274 HD
ENDBRANCH   1  11
BRANCH   1  15
HETATM   15  C5  UNL     1     -41.470  13.675   9.779  1.00  0.00     0.021 C 
HETATM   16  C6  UNL     1     -40.747  12.361   9.477  1.00  0.00     0.034 C 
HETATM   17  C7  UNL     1     -39.347  12.357  10.053  1.00  0.00     0.232 C 
HETATM   18  N4  UNL     1     -38.566  13.474   9.611  1.00  0.00    -0.075 N 
HETATM   19  C8  UNL     1     -39.287  14.714   9.618  1.00  0.00     0.232 C 
ATOM     20  H42 UNL     1     -37.707  13.552  10.156  1.00  0.00     0.277 HD
ATOM     21  H41 UNL     1     -38.167  13.293   8.690  1.00  0.00     0.277 HD
HETATM   22  C9  UNL     1     -40.502  14.519  10.540  1.00  0.00     0.034 C 
ENDBRANCH   1  15
TORSDOF 6
ENDMDL
MODEL 3
REMARK VINA RESULT: -5.197482851      1.555      1.975
REMARK  6 active torsions:
REMARK  status: ('A' for Active; 'I' for Inactive)
REMARK    1  A    between atoms: N1_2  and  C2_4 
REMARK    2  A    between atoms: C2_4  and  C3_5 
REMARK    3  A    between atoms: C2_4  and  C4_10 
REMARK    4  A    between atoms: C3_5  and  N2_6 
REMARK    5  A    between atoms: C4_10  and  N3_11 
REMARK    6  A    between atoms: C4_10  and  C5_15 
ROOT
HETATM    1  C4  UNL     1     -41.831  11.407  11.528  1.00  0.00     0.211 C 
ENDROOT
BRANCH   1   2
HETATM    2  C2  UNL     1     -43.268  11.137  11.464  1.00  0.00     0.132 C 
BRANCH   2   3
HETATM    3  N1  UNL     1     -43.930  12.202  10.736  1.00  0.00    -0.418 N 
HETATM    4  C1  UNL     1     -44.358  11.902   9.428  1.00  0.00     0.140 C 
ATOM      5  H1  UNL     1     -44.078  13.122  11.151  1.00  0.00     0.153 HD
ENDBRANCH   2   3
BRANCH   2   6
HETATM    6  C3  UNL     1     -44.004  10.810  12.690  1.00  0.00     0.256 C 
BRANCH   6   7
HETATM    7  N2  UNL     1     -43.660  11.484  13.893  1.00  0.00    -0.077 N 
ATOM      8  H23 UNL     1     -43.733  10.829  14.672  1.00  0.00     0.274 HD
ATOM      9  H22 UNL     1     -42.658  11.675  13.890  1.00  0.00     0.274 HD
ATOM     10  H21 UNL     1     -44.159  12.341  14.133  1.00  0.00     0.274 HD
ENDBRANCH   6   7
ENDBRANCH   2   6
ENDBRANCH   1   2
BRANCH   1  11
HETATM   11  N3  UNL     1     -41.626  12.847  11.489  1.00  0.00    -0.073 N 
ATOM     12  H33 UNL     1     -41.674  13.223  10.542  1.00  0.00     0.274 HD
ATOM     13  H32 UNL     1     -42.412  13.364  11.885  1.00  0.00     0.274 HD
ATOM     14  H31 UNL     1     -40.743  13.064  11.951  1.00  0.00     0.274 HD
ENDBRANCH   1  11
BRANCH   1  15
HETATM   15  C5  UNL     1     -40.928  10.780  10.555  1.00  0.00     0.021 C 
HETATM   16  C6  UNL     1     -39.866   9.996  11.328  1.00  0.00     0.034 C 
HETATM   17  C7  UNL     1     -38.468  10.423  10.932  1.00  0.00     0.232 C 
HETATM   18  N4  UNL     1     -38.240  10.321   9.521  1.00  0.00    -0.075 N 
HETATM   19  C8  UNL     1     -39.335  10.803   8.729  1.00  0.00     0.232 C 
ATOM     20  H42 UNL     1     -37.372  10.790   9.261  1.00  0.00     0.277 HD
ATOM     21  H41 UNL     1     -38.001   9.365   9.262  1.00  0.00     0.277 HD
HETATM   22  C9  UNL     1     -40.186  11.701   9.643  1.00  0.00     0.034 C 
ENDBRANCH   1  15
TORSDOF 6
ENDMDL
MODEL 4
REMARK VINA RESULT: -5.139654911      2.064      2.985
REMARK  6 active torsions:
REMARK  status: ('A' for Active; 'I' for Inactive)
REMARK    1  A    between atoms: N1_2  and  C2_4 
REMARK    2  A    between atoms: C2_4  and  C3_5 
REMARK    3  A    between atoms: C2_4  and  C4_10 
REMARK    4  A    between atoms: C3_5  and  N2_6 
REMARK    5  A    between atoms: C4_10  and  N3_11 
REMARK    6  A    between atoms: C4_10  and  C5_15 
ROOT
HETATM    1  C4  UNL     1     -41.284  13.586   9.619  1.00  0.00     0.211 C 
ENDROOT
BRANCH   1   2
HETATM    2  C2  UNL     1     -41.695  13.777  11.011  1.00  0.00     0.132 C 
BRANCH   2   3
HETATM    3  N1  UNL     1     -42.750  12.839  11.339  1.00  0.00    -0.418 N 
HETATM    4  C1  UNL     1     -42.460  11.881  12.331  1.00  0.00     0.140 C 
ATOM      5  H1  UNL     1     -43.658  12.872  10.875  1.00  0.00     0.153 HD
ENDBRANCH   2   3
BRANCH   2   6
HETATM    6  C3  UNL     1     -42.023  15.122  11.497  1.00  0.00     0.256 C 
BRANCH   6   7
HETATM    7  N2  UNL     1     -42.313  15.296  12.877  1.00  0.00    -0.077 N 
ATOM      8  H23 UNL     1     -42.928  16.102  12.987  1.00  0.00     0.274 HD
ATOM      9  H22 UNL     1     -42.924  14.539  13.185  1.00  0.00     0.274 HD
ATOM     10  H21 UNL     1     -41.536  15.381  13.532  1.00  0.00     0.274 HD
ENDBRANCH   6   7
ENDBRANCH   2   6
ENDBRANCH   1   2
BRANCH   1  11
HETATM   11  N3  UNL     1     -42.236  12.696   8.971  1.00  0.00    -0.073 N 
ATOM     12  H33 UNL     1     -41.964  11.716   9.040  1.00  0.00     0.274 HD
ATOM     13  H32 UNL     1     -43.119  12.633   9.480  1.00  0.00     0.274 HD
ATOM     14  H31 UNL     1     -42.362  13.000   8.006  1.00  0.00     0.274 HD
ENDBRANCH   1  11
BRANCH   1  15
HETATM   15  C5  UNL     1     -39.926  13.116   9.318  1.00  0.00     0.021 C 
HETATM   16  C6  UNL     1     -39.859  11.621   9.635  1.00  0.00     0.034 C 
HETATM   17  C7  UNL     1     -38.735  11.312  10.602  1.00  0.00     0.232 C 
HETATM   18  N4  UNL     1     -37.464  11.786  10.139  1.00  0.00    -0.075 N 
HETATM   19  C8  UNL     1     -37.516  13.104   9.575  1.00  0.00     0.232 C 
ATOM     20  H42 UNL     1     -36.769  11.739  10.884  1.00  0.00     0.277 HD
ATOM     21  H41 UNL     1     -37.052  11.127   9.480  1.00  0.00     0.277 HD
HETATM   22  C9  UNL     1     -38.814  13.756  10.082  1.00  0.00     0.034 C 
ENDBRANCH   1  15
TORSDOF 6
ENDMDL
MODEL 5
REMARK VINA RESULT: -5.119267006      1.881      2.463
REMARK  6 active torsions:
REMARK  status: ('A' for Active; 'I' for Inactive)
REMARK    1  A    between atoms: N1_2  and  C2_4 
REMARK    2  A    between atoms: C2_4  and  C3_5 
REMARK    3  A    between atoms: C2_4  and  C4_10 
REMARK    4  A    between atoms: C3_5  and  N2_6 
REMARK    5  A    between atoms: C4_10  and  N3_11 
REMARK    6  A    between atoms: C4_10  and  C5_15 
ROOT
HETATM    1  C4  UNL     1     -40.790  12.906  10.336  1.00  0.00     0.211 C 
ENDROOT
BRANCH   1   2
HETATM    2  C2  UNL     1     -41.731  13.307  11.383  1.00  0.00     0.132 C 
BRANCH   2   3
HETATM    3  N1  UNL     1     -42.984  12.601  11.206  1.00  0.00    -0.418 N 
HETATM    4  C1  UNL     1     -43.217  11.502  12.057  1.00  0.00     0.140 C 
ATOM      5  H1  UNL     1     -43.664  12.885  10.500  1.00  0.00     0.153 HD
ENDBRANCH   2   3
BRANCH   2   6
HETATM    6  C3  UNL     1     -41.969  14.732  11.644  1.00  0.00     0.256 C 
BRANCH   6   7
HETATM    7  N2  UNL     1     -42.346  15.130  12.955  1.00  0.00    -0.077 N 
ATOM      8  H23 UNL     1     -42.146  14.368  13.603  1.00  0.00     0.274 HD
ATOM      9  H22 UNL     1     -41.696  15.844  13.284  1.00  0.00     0.274 HD
ATOM     10  H21 UNL     1     -43.300  15.455  13.111  1.00  0.00     0.274 HD
ENDBRANCH   6   7
ENDBRANCH   2   6
ENDBRANCH   1   2
BRANCH   1  11
HETATM   11  N3  UNL     1     -41.525  12.728   9.094  1.00  0.00    -0.073 N 
ATOM     12  H33 UNL     1     -42.478  12.399   9.248  1.00  0.00     0.274 HD
ATOM     13  H32 UNL     1     -41.754  13.615   8.644  1.00  0.00     0.274 HD
ATOM     14  H31 UNL     1     -40.992  12.107   8.486  1.00  0.00     0.274 HD
ENDBRANCH   1  11
BRANCH   1  15
HETATM   15  C5  UNL     1     -39.927  11.736  10.542  1.00  0.00     0.021 C 
HETATM   16  C6  UNL     1     -38.531  12.077  10.020  1.00  0.00     0.034 C 
HETATM   17  C7  UNL     1     -38.061  11.064   8.996  1.00  0.00     0.232 C 
HETATM   18  N4  UNL     1     -38.098   9.721   9.494  1.00  0.00    -0.075 N 
HETATM   19  C8  UNL     1     -39.288   9.418  10.235  1.00  0.00     0.232 C 
ATOM     20  H42 UNL     1     -37.964   9.052   8.736  1.00  0.00     0.277 HD
ATOM     21  H41 UNL     1     -37.266   9.519  10.048  1.00  0.00     0.277 HD
HETATM   22  C9  UNL     1     -40.336  10.477   9.850  1.00  0.00     0.034 C 
ENDBRANCH   1  15
TORSDOF 6
ENDMDL
