MODEL 1
REMARK VINA RESULT: -5.547958402      0.000      0.000
REMARK  9 active torsions:
REMARK  status: ('A' for Active; 'I' for Inactive)
REMARK    1  A    between atoms: N1_1  and  C1_5 
REMARK    2  A    between atoms: C1_5  and  C2_6 
REMARK    3  A    between atoms: C5_11  and  C6_12 
REMARK    4  A    between atoms: C6_12  and  C7_13 
REMARK    5  A    between atoms: C7_13  and  N3_14 
REMARK    6  A    between atoms: C7_13  and  C8_18 
REMARK    7  A    between atoms: C8_18  and  N4_19 
REMARK    8  A    between atoms: C8_18  and  C9_23 
REMARK    9  A    between atoms: C9_23  and  N5_24 
ROOT
HETATM    1  C7  UNL     1     -42.366  10.891  10.801  1.00  0.00     0.220 C 
ENDROOT
BRANCH   1   2
HETATM    2  C6  UNL     1     -42.074  11.808   9.676  1.00  0.00     0.087 C 
BRANCH   2   3
HETATM    3  C5  UNL     1     -41.040  12.847   9.925  1.00  0.00    -0.010 C 
HETATM    4  C2  UNL     1     -41.053  14.070  10.746  1.00  0.00     0.058 C 
HETATM    5  C3  UNL     1     -40.065  14.949   9.962  1.00  0.00     0.032 C 
HETATM    6  C4  UNL     1     -39.020  13.842   9.719  1.00  0.00     0.120 C 
HETATM    7  N2  UNL     1     -39.875  12.761   9.366  1.00  0.00    -0.396 N 
ATOM      8  H2  UNL     1     -39.600  12.001   8.743  1.00  0.00     0.159 HD
BRANCH   4   9
HETATM    9  C1  UNL     1     -42.353  14.774  10.874  1.00  0.00     0.240 C 
BRANCH   9  10
HETATM   10  N1  UNL     1     -42.353  15.359  12.233  1.00  0.00    -0.079 N 
ATOM     11  H13 UNL     1     -41.568  15.057  12.810  1.00  0.00     0.274 HD
ATOM     12  H12 UNL     1     -42.137  16.356  12.251  1.00  0.00     0.274 HD
ATOM     13  H11 UNL     1     -43.265  15.129  12.628  1.00  0.00     0.274 HD
ENDBRANCH   9  10
ENDBRANCH   4   9
ENDBRANCH   2   3
ENDBRANCH   1   2
BRANCH   1  14
HETATM   14  N3  UNL     1     -41.284  10.740  11.743  1.00  0.00    -0.073 N 
ATOM     15  H33 UNL     1     -40.386  10.851  11.274  1.00  0.00     0.274 HD
ATOM     16  H32 UNL     1     -41.250  11.538  12.377  1.00  0.00     0.274 HD
ATOM     17  H31 UNL     1     -41.304   9.867  12.271  1.00  0.00     0.274 HD
ENDBRANCH   1  14
BRANCH   1  18
HETATM   18  C8  UNL     1     -43.583  11.509  11.527  1.00  0.00     0.239 C 
BRANCH  18  19
HETATM   19  N4  UNL     1     -44.661  11.458  10.576  1.00  0.00    -0.071 N 
ATOM     20  H43 UNL     1     -44.706  12.270   9.961  1.00  0.00     0.274 HD
ATOM     21  H42 UNL     1     -44.530  10.760   9.844  1.00  0.00     0.274 HD
ATOM     22  H41 UNL     1     -45.506  11.316  11.131  1.00  0.00     0.274 HD
ENDBRANCH  18  19
BRANCH  18  23
HETATM   23  C9  UNL     1     -43.927  10.730  12.763  1.00  0.00     0.264 C 
BRANCH  23  24
HETATM   24  N5  UNL     1     -43.791  11.497  13.983  1.00  0.00    -0.077 N 
ATOM     25  H53 UNL     1     -42.835  11.833  14.093  1.00  0.00     0.274 HD
ATOM     26  H52 UNL     1     -44.276  12.390  13.904  1.00  0.00     0.274 HD
ATOM     27  H51 UNL     1     -44.095  10.993  14.816  1.00  0.00     0.274 HD
ENDBRANCH  23  24
ENDBRANCH  18  23
ENDBRANCH   1  18
TORSDOF 9
ENDMDL
MODEL 2
REMARK VINA RESULT: -5.414837643      1.721      3.012
REMARK  9 active torsions:
REMARK  status: ('A' for Active; 'I' for Inactive)
REMARK    1  A    between atoms: N1_1  and  C1_5 
REMARK    2  A    between atoms: C1_5  and  C2_6 
REMARK    3  A    between atoms: C5_11  and  C6_12 
REMARK    4  A    between atoms: C6_12  and  C7_13 
REMARK    5  A    between atoms: C7_13  and  N3_14 
REMARK    6  A    between atoms: C7_13  and  C8_18 
REMARK    7  A    between atoms: C8_18  and  N4_19 
REMARK    8  A    between atoms: C8_18  and  C9_23 
REMARK    9  A    between atoms: C9_23  and  N5_24 
ROOT
HETATM    1  C7  UNL     1     -42.307  12.709  11.231  1.00  0.00     0.220 C 
ENDROOT
BRANCH   1   2
HETATM    2  C6  UNL     1     -41.290  12.003  10.419  1.00  0.00     0.087 C 
BRANCH   2   3
HETATM    3  C5  UNL     1     -40.136  12.817   9.955  1.00  0.00    -0.010 C 
HETATM    4  C2  UNL     1     -38.913  12.459   9.216  1.00  0.00     0.058 C 
HETATM    5  C3  UNL     1     -37.935  13.515   9.755  1.00  0.00     0.032 C 
HETATM    6  C4  UNL     1     -38.918  14.701   9.675  1.00  0.00     0.120 C 
HETATM    7  N2  UNL     1     -40.094  14.091  10.191  1.00  0.00    -0.396 N 
ATOM      8  H2  UNL     1     -40.824  14.599  10.691  1.00  0.00     0.159 HD
BRANCH   4   9
HETATM    9  C1  UNL     1     -38.362  11.102   9.457  1.00  0.00     0.240 C 
BRANCH   9  10
HETATM   10  N1  UNL     1     -37.740  11.161  10.797  1.00  0.00    -0.079 N 
ATOM     11  H13 UNL     1     -37.520  12.108  11.106  1.00  0.00     0.274 HD
ATOM     12  H12 UNL     1     -38.380  10.933  11.558  1.00  0.00     0.274 HD
ATOM     13  H11 UNL     1     -36.926  10.548  10.746  1.00  0.00     0.274 HD
ENDBRANCH   9  10
ENDBRANCH   4   9
ENDBRANCH   2   3
ENDBRANCH   1   2
BRANCH   1  14
HETATM   14  N3  UNL     1     -43.553  12.952  10.545  1.00  0.00    -0.073 N 
ATOM     15  H33 UNL     1     -43.974  12.072  10.249  1.00  0.00     0.274 HD
ATOM     16  H32 UNL     1     -44.264  13.273  11.202  1.00  0.00     0.274 HD
ATOM     17  H31 UNL     1     -43.481  13.595   9.756  1.00  0.00     0.274 HD
ENDBRANCH   1  14
BRANCH   1  18
HETATM   18  C8  UNL     1     -42.572  11.788  12.444  1.00  0.00     0.239 C 
BRANCH  18  19
HETATM   19  N4  UNL     1     -42.740  12.674  13.565  1.00  0.00    -0.071 N 
ATOM     20  H43 UNL     1     -42.574  13.655  13.343  1.00  0.00     0.274 HD
ATOM     21  H42 UNL     1     -43.710  12.781  13.863  1.00  0.00     0.274 HD
ATOM     22  H41 UNL     1     -42.125  12.308  14.294  1.00  0.00     0.274 HD
ENDBRANCH  18  19
BRANCH  18  23
HETATM   23  C9  UNL     1     -43.805  10.959  12.234  1.00  0.00     0.264 C 
BRANCH  23  24
HETATM   24  N5  UNL     1     -44.849  11.223  13.202  1.00  0.00    -0.077 N 
ATOM     25  H53 UNL     1     -45.768  11.185  12.762  1.00  0.00     0.274 HD
ATOM     26  H52 UNL     1     -44.942  10.444  13.854  1.00  0.00     0.274 HD
ATOM     27  H51 UNL     1     -44.724  12.102  13.704  1.00  0.00     0.274 HD
ENDBRANCH  23  24
ENDBRANCH  18  23
ENDBRANCH   1  18
TORSDOF 9
ENDMDL
MODEL 3
REMARK VINA RESULT: -5.397255163      1.986      3.450
REMARK  9 active torsions:
REMARK  status: ('A' for Active; 'I' for Inactive)
REMARK    1  A    between atoms: N1_1  and  C1_5 
REMARK    2  A    between atoms: C1_5  and  C2_6 
REMARK    3  A    between atoms: C5_11  and  C6_12 
REMARK    4  A    between atoms: C6_12  and  C7_13 
REMARK    5  A    between atoms: C7_13  and  N3_14 
REMARK    6  A    between atoms: C7_13  and  C8_18 
REMARK    7  A    between atoms: C8_18  and  N4_19 
REMARK    8  A    between atoms: C8_18  and  C9_23 
REMARK    9  A    between atoms: C9_23  and  N5_24 
ROOT
HETATM    1  C7  UNL     1     -41.651  13.261  11.366  1.00  0.00     0.220 C 
ENDROOT
BRANCH   1   2
HETATM    2  C6  UNL     1     -41.209  12.448  10.211  1.00  0.00     0.087 C 
BRANCH   2   3
HETATM    3  C5  UNL     1     -39.766  12.527   9.862  1.00  0.00    -0.010 C 
HETATM    4  C2  UNL     1     -38.705  11.506   9.828  1.00  0.00     0.058 C 
HETATM    5  C3  UNL     1     -37.472  12.368  10.140  1.00  0.00     0.032 C 
HETATM    6  C4  UNL     1     -37.852  13.539   9.212  1.00  0.00     0.120 C 
HETATM    7  N2  UNL     1     -39.239  13.656   9.506  1.00  0.00    -0.396 N 
ATOM      8  H2  UNL     1     -39.759  14.531   9.445  1.00  0.00     0.159 HD
BRANCH   4   9
HETATM    9  C1  UNL     1     -38.807  10.405  10.818  1.00  0.00     0.240 C 
BRANCH   9  10
HETATM   10  N1  UNL     1     -38.415   9.180  10.087  1.00  0.00    -0.079 N 
ATOM     11  H13 UNL     1     -39.137   8.830   9.458  1.00  0.00     0.274 HD
ATOM     12  H12 UNL     1     -37.702   9.338   9.374  1.00  0.00     0.274 HD
ATOM     13  H11 UNL     1     -38.137   8.512  10.806  1.00  0.00     0.274 HD
ENDBRANCH   9  10
ENDBRANCH   4   9
ENDBRANCH   2   3
ENDBRANCH   1   2
BRANCH   1  14
HETATM   14  N3  UNL     1     -42.715  14.189  11.069  1.00  0.00    -0.073 N 
ATOM     15  H33 UNL     1     -42.332  15.091  10.787  1.00  0.00     0.274 HD
ATOM     16  H32 UNL     1     -43.188  13.923  10.205  1.00  0.00     0.274 HD
ATOM     17  H31 UNL     1     -43.392  14.309  11.822  1.00  0.00     0.274 HD
ENDBRANCH   1  14
BRANCH   1  18
HETATM   18  C8  UNL     1     -42.149  12.243  12.417  1.00  0.00     0.239 C 
BRANCH  18  19
HETATM   19  N4  UNL     1     -42.621  13.034  13.521  1.00  0.00    -0.071 N 
ATOM     20  H43 UNL     1     -42.204  13.964  13.569  1.00  0.00     0.274 HD
ATOM     21  H42 UNL     1     -43.588  13.343  13.421  1.00  0.00     0.274 HD
ATOM     22  H41 UNL     1     -42.455  12.466  14.352  1.00  0.00     0.274 HD
ENDBRANCH  18  19
BRANCH  18  23
HETATM   23  C9  UNL     1     -43.254  11.392  11.863  1.00  0.00     0.264 C 
BRANCH  23  24
HETATM   24  N5  UNL     1     -43.639  10.306  12.739  1.00  0.00    -0.077 N 
ATOM     25  H53 UNL     1     -43.222   9.428  12.431  1.00  0.00     0.274 HD
ATOM     26  H52 UNL     1     -43.187  10.398  13.648  1.00  0.00     0.274 HD
ATOM     27  H51 UNL     1     -44.649  10.208  12.845  1.00  0.00     0.274 HD
ENDBRANCH  23  24
ENDBRANCH  18  23
ENDBRANCH   1  18
TORSDOF 9
ENDMDL
MODEL 4
REMARK VINA RESULT: -5.334036258      2.182      3.895
REMARK  9 active torsions:
REMARK  status: ('A' for Active; 'I' for Inactive)
REMARK    1  A    between atoms: N1_1  and  C1_5 
REMARK    2  A    between atoms: C1_5  and  C2_6 
REMARK    3  A    between atoms: C5_11  and  C6_12 
REMARK    4  A    between atoms: C6_12  and  C7_13 
REMARK    5  A    between atoms: C7_13  and  N3_14 
REMARK    6  A    between atoms: C7_13  and  C8_18 
REMARK    7  A    between atoms: C8_18  and  N4_19 
REMARK    8  A    between atoms: C8_18  and  C9_23 
REMARK    9  A    between atoms: C9_23  and  N5_24 
ROOT
HETATM    1  C7  UNL     1     -41.814  13.636   9.554  1.00  0.00     0.220 C 
ENDROOT
BRANCH   1   2
HETATM    2  C6  UNL     1     -40.980  12.532  10.079  1.00  0.00     0.087 C 
BRANCH   2   3
HETATM    3  C5  UNL     1     -39.531  12.588   9.750  1.00  0.00    -0.010 C 
HETATM    4  C2  UNL     1     -38.474  11.562   9.784  1.00  0.00     0.058 C 
HETATM    5  C3  UNL     1     -37.242  12.432  10.076  1.00  0.00     0.032 C 
HETATM    6  C4  UNL     1     -37.600  13.558   9.085  1.00  0.00     0.120 C 
HETATM    7  N2  UNL     1     -38.991  13.695   9.350  1.00  0.00    -0.396 N 
ATOM      8  H2  UNL     1     -39.505  14.569   9.237  1.00  0.00     0.159 HD
BRANCH   4   9
HETATM    9  C1  UNL     1     -38.599  10.511  10.824  1.00  0.00     0.240 C 
BRANCH   9  10
HETATM   10  N1  UNL     1     -38.436   9.226  10.108  1.00  0.00    -0.079 N 
ATOM     11  H13 UNL     1     -38.633   9.286   9.110  1.00  0.00     0.274 HD
ATOM     12  H12 UNL     1     -37.465   8.925  10.021  1.00  0.00     0.274 HD
ATOM     13  H11 UNL     1     -39.030   8.561  10.605  1.00  0.00     0.274 HD
ENDBRANCH   9  10
ENDBRANCH   4   9
ENDBRANCH   2   3
ENDBRANCH   1   2
BRANCH   1  14
HETATM   14  N3  UNL     1     -42.689  13.258   8.470  1.00  0.00    -0.073 N 
ATOM     15  H33 UNL     1     -42.184  13.272   7.584  1.00  0.00     0.274 HD
ATOM     16  H32 UNL     1     -42.916  12.266   8.526  1.00  0.00     0.274 HD
ATOM     17  H31 UNL     1     -43.541  13.815   8.402  1.00  0.00     0.274 HD
ENDBRANCH   1  14
BRANCH   1  18
HETATM   18  C8  UNL     1     -42.671  14.106  10.752  1.00  0.00     0.239 C 
BRANCH  18  19
HETATM   19  N4  UNL     1     -42.827  12.946  11.588  1.00  0.00    -0.071 N 
ATOM     20  H43 UNL     1     -41.984  12.377  11.662  1.00  0.00     0.274 HD
ATOM     21  H42 UNL     1     -42.912  13.164  12.580  1.00  0.00     0.274 HD
ATOM     22  H41 UNL     1     -43.630  12.444  11.207  1.00  0.00     0.274 HD
ENDBRANCH  18  19
BRANCH  18  23
HETATM   23  C9  UNL     1     -41.990  15.213  11.501  1.00  0.00     0.264 C 
BRANCH  23  24
HETATM   24  N5  UNL     1     -42.344  15.262  12.904  1.00  0.00    -0.077 N 
ATOM     25  H53 UNL     1     -43.314  15.553  13.022  1.00  0.00     0.274 HD
ATOM     26  H52 UNL     1     -42.402  14.322  13.295  1.00  0.00     0.274 HD
ATOM     27  H51 UNL     1     -41.721  15.847  13.461  1.00  0.00     0.274 HD
ENDBRANCH  23  24
ENDBRANCH  18  23
ENDBRANCH   1  18
TORSDOF 9
ENDMDL
MODEL 5
REMARK VINA RESULT: -5.254318069      2.013      3.619
REMARK  9 active torsions:
REMARK  status: ('A' for Active; 'I' for Inactive)
REMARK    1  A    between atoms: N1_1  and  C1_5 
REMARK    2  A    between atoms: C1_5  and  C2_6 
REMARK    3  A    between atoms: C5_11  and  C6_12 
REMARK    4  A    between atoms: C6_12  and  C7_13 
REMARK    5  A    between atoms: C7_13  and  N3_14 
REMARK    6  A    between atoms: C7_13  and  C8_18 
REMARK    7  A    between atoms: C8_18  and  N4_19 
REMARK    8  A    between atoms: C8_18  and  C9_23 
REMARK    9  A    between atoms: C9_23  and  N5_24 
ROOT
HETATM    1  C7  UNL     1     -42.582  11.941  11.905  1.00  0.00     0.220 C 
ENDROOT
BRANCH   1   2
HETATM    2  C6  UNL     1     -41.486  11.004  11.572  1.00  0.00     0.087 C 
BRANCH   2   3
HETATM    3  C5  UNL     1     -41.084  10.940  10.142  1.00  0.00    -0.010 C 
HETATM    4  C2  UNL     1     -39.776  11.081   9.481  1.00  0.00     0.058 C 
HETATM    5  C3  UNL     1     -40.206  11.649   8.119  1.00  0.00     0.032 C 
HETATM    6  C4  UNL     1     -41.403  10.697   7.917  1.00  0.00     0.120 C 
HETATM    7  N2  UNL     1     -41.970  10.724   9.221  1.00  0.00    -0.396 N 
ATOM      8  H2  UNL     1     -42.963  10.588   9.410  1.00  0.00     0.159 HD
BRANCH   4   9
HETATM    9  C1  UNL     1     -38.803  12.002  10.119  1.00  0.00     0.240 C 
BRANCH   9  10
HETATM   10  N1  UNL     1     -37.807  11.129  10.778  1.00  0.00    -0.079 N 
ATOM     11  H13 UNL     1     -38.161  10.199  11.001  1.00  0.00     0.274 HD
ATOM     12  H12 UNL     1     -37.054  10.825  10.160  1.00  0.00     0.274 HD
ATOM     13  H11 UNL     1     -37.485  11.652  11.593  1.00  0.00     0.274 HD
ENDBRANCH   9  10
ENDBRANCH   4   9
ENDBRANCH   2   3
ENDBRANCH   1   2
BRANCH   1  14
HETATM   14  N3  UNL     1     -43.075  11.826  13.256  1.00  0.00    -0.073 N 
ATOM     15  H33 UNL     1     -43.659  12.628  13.492  1.00  0.00     0.274 HD
ATOM     16  H32 UNL     1     -43.768  11.081  13.321  1.00  0.00     0.274 HD
ATOM     17  H31 UNL     1     -42.348  11.697  13.960  1.00  0.00     0.274 HD
ENDBRANCH   1  14
BRANCH   1  18
HETATM   18  C8  UNL     1     -41.988  13.354  11.704  1.00  0.00     0.239 C 
BRANCH  18  19
HETATM   19  N4  UNL     1     -42.835  13.990  10.731  1.00  0.00    -0.071 N 
ATOM     20  H43 UNL     1     -42.829  13.532   9.819  1.00  0.00     0.274 HD
ATOM     21  H42 UNL     1     -43.832  13.874  10.916  1.00  0.00     0.274 HD
ATOM     22  H41 UNL     1     -42.533  14.964  10.704  1.00  0.00     0.274 HD
ENDBRANCH  18  19
BRANCH  18  23
HETATM   23  C9  UNL     1     -41.984  14.126  12.991  1.00  0.00     0.264 C 
BRANCH  23  24
HETATM   24  N5  UNL     1     -42.354  15.516  12.829  1.00  0.00    -0.077 N 
ATOM     25  H53 UNL     1     -42.244  15.809  11.858  1.00  0.00     0.274 HD
ATOM     26  H52 UNL     1     -43.362  15.635  12.928  1.00  0.00     0.274 HD
ATOM     27  H51 UNL     1     -41.853  16.146  13.456  1.00  0.00     0.274 HD
ENDBRANCH  23  24
ENDBRANCH  18  23
ENDBRANCH   1  18
TORSDOF 9
ENDMDL
