MODEL 1
REMARK VINA RESULT: -5.459661076      0.000      0.000
REMARK  6 active torsions:
REMARK  status: ('A' for Active; 'I' for Inactive)
REMARK    1  A    between atoms: C2_2  and  N1_3 
REMARK    2  A    between atoms: C2_2  and  C3_7 
REMARK    3  A    between atoms: C3_7  and  C4_8 
REMARK    4  A    between atoms: C3_7  and  N3_13 
REMARK    5  A    between atoms: C4_8  and  N2_9 
REMARK    6  A    between atoms: N3_13  and  C5_15 
ROOT
HETATM    1  C3  UNL     1     -42.296  11.736  11.913  1.00  0.00     0.132 C 
ENDROOT
BRANCH   1   2
HETATM    2  C2  UNL     1     -43.623  11.150  11.373  1.00  0.00     0.203 C 
HETATM    3  C1  UNL     1     -44.533  10.713  12.482  1.00  0.00     0.042 C 
BRANCH   2   4
HETATM    4  N1  UNL     1     -44.248  12.089  10.472  1.00  0.00    -0.073 N 
ATOM      5  H13 UNL     1     -45.255  11.930  10.421  1.00  0.00     0.274 HD
ATOM      6  H12 UNL     1     -44.247  13.029  10.867  1.00  0.00     0.274 HD
ATOM      7  H11 UNL     1     -43.830  12.084   9.541  1.00  0.00     0.274 HD
ENDBRANCH   2   4
ENDBRANCH   1   2
BRANCH   1   8
HETATM    8  C4  UNL     1     -42.650  12.223  13.295  1.00  0.00     0.256 C 
BRANCH   8   9
HETATM    9  N2  UNL     1     -42.383  13.654  13.428  1.00  0.00    -0.077 N 
ATOM     10  H23 UNL     1     -43.139  14.217  13.039  1.00  0.00     0.274 HD
ATOM     11  H22 UNL     1     -42.446  13.961  14.399  1.00  0.00     0.274 HD
ATOM     12  H21 UNL     1     -41.482  13.896  13.015  1.00  0.00     0.274 HD
ENDBRANCH   8   9
ENDBRANCH   1   8
BRANCH   1  13
HETATM   13  N3  UNL     1     -41.381  10.670  11.960  1.00  0.00    -0.409 N 
ATOM     14  H3  UNL     1     -41.413  10.013  12.740  1.00  0.00     0.154 HD
BRANCH  13  15
HETATM   15  C5  UNL     1     -40.424  10.497  10.947  1.00  0.00     0.080 C 
HETATM   16  C6  UNL     1     -39.253   9.602  11.258  1.00  0.00     0.044 C 
HETATM   17  C7  UNL     1     -38.708   9.186   9.882  1.00  0.00     0.115 C 
HETATM   18  N4  UNL     1     -38.125  10.368   9.320  1.00  0.00    -0.421 N 
HETATM   19  C8  UNL     1     -39.020  11.476   9.181  1.00  0.00     0.115 C 
ATOM     20  H4  UNL     1     -37.145  10.416   9.039  1.00  0.00     0.153 HD
HETATM   21  C9  UNL     1     -39.833  11.785  10.418  1.00  0.00     0.044 C 
ENDBRANCH  13  15
ENDBRANCH   1  13
TORSDOF 6
ENDMDL
MODEL 2
REMARK VINA RESULT: -5.392240191      1.857      2.498
REMARK  6 active torsions:
REMARK  status: ('A' for Active; 'I' for Inactive)
REMARK    1  A    between atoms: C2_2  and  N1_3 
REMARK    2  A    between atoms: C2_2  and  C3_7 
REMARK    3  A    between atoms: C3_7  and  C4_8 
REMARK    4  A    between atoms: C3_7  and  N3_13 
REMARK    5  A    between atoms: C4_8  and  N2_9 
REMARK    6  A    between atoms: N3_13  and  C5_15 
ROOT
HETATM    1  C3  UNL     1     -42.783  12.174  10.523  1.00  0.00     0.132 C 
ENDROOT
BRANCH   1   2
HETATM    2  C2  UNL     1     -43.173  13.596  10.051  1.00  0.00     0.203 C 
HETATM    3  C1  UNL     1     -42.385  14.655  10.761  1.00  0.00     0.042 C 
BRANCH   2   4
HETATM    4  N1  UNL     1     -43.069  13.685   8.615  1.00  0.00    -0.073 N 
ATOM      5  H13 UNL     1     -42.327  14.331   8.343  1.00  0.00     0.274 HD
ATOM      6  H12 UNL     1     -42.692  12.823   8.222  1.00  0.00     0.274 HD
ATOM      7  H11 UNL     1     -43.952  13.934   8.167  1.00  0.00     0.274 HD
ENDBRANCH   2   4
ENDBRANCH   1   2
BRANCH   1   8
HETATM    8  C4  UNL     1     -44.097  11.437  10.579  1.00  0.00     0.256 C 
BRANCH   8   9
HETATM    9  N2  UNL     1     -44.497  11.189  11.963  1.00  0.00    -0.077 N 
ATOM     10  H23 UNL     1     -44.637  12.060  12.476  1.00  0.00     0.274 HD
ATOM     11  H22 UNL     1     -45.447  10.822  12.021  1.00  0.00     0.274 HD
ATOM     12  H21 UNL     1     -43.828  10.578  12.432  1.00  0.00     0.274 HD
ENDBRANCH   8   9
ENDBRANCH   1   8
BRANCH   1  13
HETATM   13  N3  UNL     1     -41.937  11.645   9.533  1.00  0.00    -0.409 N 
ATOM     14  H3  UNL     1     -42.271  11.570   8.572  1.00  0.00     0.154 HD
BRANCH  13  15
HETATM   15  C5  UNL     1     -40.636  11.220   9.849  1.00  0.00     0.080 C 
HETATM   16  C6  UNL     1     -40.459  10.465  11.140  1.00  0.00     0.044 C 
HETATM   17  C7  UNL     1     -39.137   9.699  10.962  1.00  0.00     0.115 C 
HETATM   18  N4  UNL     1     -38.105  10.693  10.976  1.00  0.00    -0.421 N 
HETATM   19  C8  UNL     1     -38.228  11.705   9.972  1.00  0.00     0.115 C 
ATOM     20  H4  UNL     1     -37.340  10.681  11.651  1.00  0.00     0.153 HD
HETATM   21  C9  UNL     1     -39.603  12.325   9.869  1.00  0.00     0.044 C 
ENDBRANCH  13  15
ENDBRANCH   1  13
TORSDOF 6
ENDMDL
MODEL 3
REMARK VINA RESULT: -5.298455121      2.050      3.206
REMARK  6 active torsions:
REMARK  status: ('A' for Active; 'I' for Inactive)
REMARK    1  A    between atoms: C2_2  and  N1_3 
REMARK    2  A    between atoms: C2_2  and  C3_7 
REMARK    3  A    between atoms: C3_7  and  C4_8 
REMARK    4  A    between atoms: C3_7  and  N3_13 
REMARK    5  A    between atoms: C4_8  and  N2_9 
REMARK    6  A    between atoms: N3_13  and  C5_15 
ROOT
HETATM    1  C3  UNL     1     -42.351  13.137  10.677  1.00  0.00     0.132 C 
ENDROOT
BRANCH   1   2
HETATM    2  C2  UNL     1     -41.864  13.968  11.890  1.00  0.00     0.203 C 
HETATM    3  C1  UNL     1     -42.170  15.426  11.727  1.00  0.00     0.042 C 
BRANCH   2   4
HETATM    4  N1  UNL     1     -42.397  13.416  13.112  1.00  0.00    -0.073 N 
ATOM      5  H13 UNL     1     -41.829  12.633  13.438  1.00  0.00     0.274 HD
ATOM      6  H12 UNL     1     -42.259  14.057  13.893  1.00  0.00     0.274 HD
ATOM      7  H11 UNL     1     -43.378  13.146  13.031  1.00  0.00     0.274 HD
ENDBRANCH   2   4
ENDBRANCH   1   2
BRANCH   1   8
HETATM    8  C4  UNL     1     -43.297  14.066   9.959  1.00  0.00     0.256 C 
BRANCH   8   9
HETATM    9  N2  UNL     1     -43.428  13.690   8.552  1.00  0.00    -0.077 N 
ATOM     10  H23 UNL     1     -43.670  14.491   7.969  1.00  0.00     0.274 HD
ATOM     11  H22 UNL     1     -42.524  13.464   8.136  1.00  0.00     0.274 HD
ATOM     12  H21 UNL     1     -44.096  12.927   8.440  1.00  0.00     0.274 HD
ENDBRANCH   8   9
ENDBRANCH   1   8
BRANCH   1  13
HETATM   13  N3  UNL     1     -41.211  12.861   9.902  1.00  0.00    -0.409 N 
ATOM     14  H3  UNL     1     -41.119  13.278   8.976  1.00  0.00     0.154 HD
BRANCH  13  15
HETATM   15  C5  UNL     1     -40.198  12.018  10.387  1.00  0.00     0.080 C 
HETATM   16  C6  UNL     1     -38.918  11.964   9.597  1.00  0.00     0.044 C 
HETATM   17  C7  UNL     1     -37.870  11.437  10.593  1.00  0.00     0.115 C 
HETATM   18  N4  UNL     1     -38.212  10.065  10.828  1.00  0.00    -0.421 N 
HETATM   19  C8  UNL     1     -39.531   9.851  11.340  1.00  0.00     0.115 C 
ATOM     20  H4  UNL     1     -37.564   9.299  10.644  1.00  0.00     0.153 HD
HETATM   21  C9  UNL     1     -40.623  10.580  10.589  1.00  0.00     0.044 C 
ENDBRANCH  13  15
ENDBRANCH   1  13
TORSDOF 6
ENDMDL
MODEL 4
REMARK VINA RESULT: -5.238532217      2.380      3.539
REMARK  6 active torsions:
REMARK  status: ('A' for Active; 'I' for Inactive)
REMARK    1  A    between atoms: C2_2  and  N1_3 
REMARK    2  A    between atoms: C2_2  and  C3_7 
REMARK    3  A    between atoms: C3_7  and  C4_8 
REMARK    4  A    between atoms: C3_7  and  N3_13 
REMARK    5  A    between atoms: C4_8  and  N2_9 
REMARK    6  A    between atoms: N3_13  and  C5_15 
ROOT
HETATM    1  C3  UNL     1     -41.884  13.436  10.536  1.00  0.00     0.132 C 
ENDROOT
BRANCH   1   2
HETATM    2  C2  UNL     1     -41.757  14.061  11.947  1.00  0.00     0.203 C 
HETATM    3  C1  UNL     1     -42.167  15.503  11.956  1.00  0.00     0.042 C 
BRANCH   2   4
HETATM    4  N1  UNL     1     -42.484  13.265  12.906  1.00  0.00    -0.073 N 
ATOM      5  H13 UNL     1     -43.147  13.839  13.428  1.00  0.00     0.274 HD
ATOM      6  H12 UNL     1     -43.139  12.638  12.439  1.00  0.00     0.274 HD
ATOM      7  H11 UNL     1     -41.872  12.748  13.538  1.00  0.00     0.274 HD
ENDBRANCH   2   4
ENDBRANCH   1   2
BRANCH   1   8
HETATM    8  C4  UNL     1     -43.131  14.066   9.970  1.00  0.00     0.256 C 
BRANCH   8   9
HETATM    9  N2  UNL     1     -43.386  13.590   8.611  1.00  0.00    -0.077 N 
ATOM     10  H23 UNL     1     -42.703  12.888   8.324  1.00  0.00     0.274 HD
ATOM     11  H22 UNL     1     -44.227  13.015   8.565  1.00  0.00     0.274 HD
ATOM     12  H21 UNL     1     -43.425  14.369   7.954  1.00  0.00     0.274 HD
ENDBRANCH   8   9
ENDBRANCH   1   8
BRANCH   1  13
HETATM   13  N3  UNL     1     -40.738  13.830   9.823  1.00  0.00    -0.409 N 
ATOM     14  H3  UNL     1     -40.801  14.598   9.154  1.00  0.00     0.154 HD
BRANCH  13  15
HETATM   15  C5  UNL     1     -39.508  13.181  10.020  1.00  0.00     0.080 C 
HETATM   16  C6  UNL     1     -38.441  13.409   8.982  1.00  0.00     0.044 C 
HETATM   17  C7  UNL     1     -37.126  13.055   9.696  1.00  0.00     0.115 C 
HETATM   18  N4  UNL     1     -37.155  11.634   9.885  1.00  0.00    -0.421 N 
HETATM   19  C8  UNL     1     -38.271  11.148  10.637  1.00  0.00     0.115 C 
ATOM     20  H4  UNL     1     -36.434  11.016   9.511  1.00  0.00     0.153 HD
HETATM   21  C9  UNL     1     -39.612  11.681  10.187  1.00  0.00     0.044 C 
ENDBRANCH  13  15
ENDBRANCH   1  13
TORSDOF 6
ENDMDL
MODEL 5
REMARK VINA RESULT: -5.227118649      1.665      1.884
REMARK  6 active torsions:
REMARK  status: ('A' for Active; 'I' for Inactive)
REMARK    1  A    between atoms: C2_2  and  N1_3 
REMARK    2  A    between atoms: C2_2  and  C3_7 
REMARK    3  A    between atoms: C3_7  and  C4_8 
REMARK    4  A    between atoms: C3_7  and  N3_13 
REMARK    5  A    between atoms: C4_8  and  N2_9 
REMARK    6  A    between atoms: N3_13  and  C5_15 
ROOT
HETATM    1  C3  UNL     1     -41.664  13.264  11.195  1.00  0.00     0.132 C 
ENDROOT
BRANCH   1   2
HETATM    2  C2  UNL     1     -42.989  13.385  10.404  1.00  0.00     0.203 C 
HETATM    3  C1  UNL     1     -42.748  13.577   8.937  1.00  0.00     0.042 C 
BRANCH   2   4
HETATM    4  N1  UNL     1     -43.839  12.254  10.690  1.00  0.00    -0.073 N 
ATOM      5  H13 UNL     1     -44.178  11.826   9.828  1.00  0.00     0.274 HD
ATOM      6  H12 UNL     1     -43.297  11.475  11.061  1.00  0.00     0.274 HD
ATOM      7  H11 UNL     1     -44.615  12.487  11.311  1.00  0.00     0.274 HD
ENDBRANCH   2   4
ENDBRANCH   1   2
BRANCH   1   8
HETATM    8  C4  UNL     1     -41.962  13.942  12.508  1.00  0.00     0.256 C 
BRANCH   8   9
HETATM    9  N2  UNL     1     -42.392  15.323  12.295  1.00  0.00    -0.077 N 
ATOM     10  H23 UNL     1     -42.688  15.482  11.332  1.00  0.00     0.274 HD
ATOM     11  H22 UNL     1     -43.278  15.518  12.763  1.00  0.00     0.274 HD
ATOM     12  H21 UNL     1     -41.664  15.980  12.579  1.00  0.00     0.274 HD
ENDBRANCH   8   9
ENDBRANCH   1   8
BRANCH   1  13
HETATM   13  N3  UNL     1     -41.427  11.889  11.366  1.00  0.00    -0.409 N 
ATOM     14  H3  UNL     1     -41.995  11.360  12.027  1.00  0.00     0.154 HD
BRANCH  13  15
HETATM   15  C5  UNL     1     -40.420  11.236  10.638  1.00  0.00     0.080 C 
HETATM   16  C6  UNL     1     -39.756  10.056  11.298  1.00  0.00     0.044 C 
HETATM   17  C7  UNL     1     -39.139   9.260  10.135  1.00  0.00     0.115 C 
HETATM   18  N4  UNL     1     -38.056  10.061   9.645  1.00  0.00    -0.421 N 
HETATM   19  C8  UNL     1     -38.427  11.371   9.203  1.00  0.00     0.115 C 
ATOM     20  H4  UNL     1     -37.094   9.724   9.613  1.00  0.00     0.153 HD
HETATM   21  C9  UNL     1     -39.298  12.138  10.173  1.00  0.00     0.044 C 
ENDBRANCH  13  15
ENDBRANCH   1  13
TORSDOF 6
ENDMDL
