MODEL 1
REMARK VINA RESULT: -7.230512602      0.000      0.000
REMARK  5 active torsions:
REMARK  status: ('A' for Active; 'I' for Inactive)
REMARK    1  A    between atoms: C2_2  and  C3_3 
REMARK    2  A    between atoms: C5_5  and  C6_6 
REMARK       I    between atoms: C6_6  and  N1_8 
REMARK    3  A    between atoms: N1_8  and  C7_10 
REMARK    4  A    between atoms: C10_15  and  C11_16 
REMARK       I    between atoms: C11_16  and  N2_18 
REMARK    5  A    between atoms: N2_18  and  C12_20 
ROOT
HETATM    1  C7  UNL     1      -8.223 -12.494  17.017  1.00  0.00     0.093 A 
HETATM    2  S1  UNL     1      -7.732 -13.242  15.559  1.00  0.00    -0.064 SA
HETATM    3  C8  UNL     1      -7.258 -14.747  16.174  1.00  0.00     0.055 A 
HETATM    4  S2  UNL     1      -6.590 -16.194  15.306  1.00  0.00    -0.044 SA
HETATM    5  C9  UNL     1      -7.496 -14.631  17.516  1.00  0.00     0.046 A 
HETATM    6  C10 UNL     1      -8.002 -13.453  17.960  1.00  0.00     0.067 A 
ENDROOT
BRANCH   6   7
HETATM    7  C11 UNL     1      -8.301 -13.213  19.406  1.00  0.00     0.255 C 
HETATM    8  O2  UNL     1      -9.135 -13.903  20.024  1.00  0.00    -0.268 OA
HETATM    9  N2  UNL     1      -7.658 -12.197  20.146  1.00  0.00    -0.348 N 
ATOM     10  H2  UNL     1      -6.974 -11.630  19.645  1.00  0.00     0.163 HD
BRANCH   9  11
HETATM   11  C12 UNL     1      -7.868 -11.881  21.528  1.00  0.00     0.034 C 
HETATM   12  C13 UNL     1      -6.924 -10.729  21.935  1.00  0.00     0.035 C 
HETATM   13  C14 UNL     1      -7.141 -10.409  23.374  1.00  0.00    -0.012 C 
HETATM   14  C15 UNL     1      -8.541  -9.848  23.514  1.00  0.00     0.009 C 
HETATM   15  C19 UNL     1      -6.952 -11.563  24.305  1.00  0.00     0.009 C 
HETATM   16  C16 UNL     1      -9.496 -10.941  23.155  1.00  0.00    -0.012 C 
HETATM   17  C17 UNL     1      -9.322 -12.177  23.998  1.00  0.00     0.009 C 
HETATM   18  C21 UNL     1      -9.272 -11.359  21.710  1.00  0.00     0.035 C 
HETATM   19  C18 UNL     1      -7.901 -12.658  23.872  1.00  0.00    -0.012 C 
HETATM   20  C20 UNL     1      -7.528 -13.016  22.448  1.00  0.00     0.035 C 
ENDBRANCH   9  11
ENDBRANCH   6   7
BRANCH   1  21
HETATM   21  N1  UNL     1      -8.741 -11.152  17.118  1.00  0.00    -0.315 N 
HETATM   22  C6  UNL     1      -7.878 -10.112  17.576  1.00  0.00     0.274 C 
HETATM   23  O1  UNL     1      -6.701 -10.395  17.876  1.00  0.00    -0.266 OA
ATOM     24  H1  UNL     1      -9.709 -10.949  16.867  1.00  0.00     0.170 HD
BRANCH  22  25
HETATM   25  C5  UNL     1      -8.335  -8.741  17.702  1.00  0.00     0.120 A 
HETATM   26  C4  UNL     1      -9.115  -8.260  18.759  1.00  0.00     0.063 A 
HETATM   27  C3  UNL     1      -9.314  -6.930  18.479  1.00  0.00     0.028 A 
HETATM   28  N4  UNL     1      -8.695  -6.655  17.345  1.00  0.00    -0.302 N 
HETATM   29  N3  UNL     1      -8.111  -7.720  16.872  1.00  0.00    -0.291 N 
ATOM     30  H4  UNL     1      -8.677  -5.737  16.901  1.00  0.00     0.186 HD
HETATM   31  C22 UNL     1      -7.345  -7.778  15.650  1.00  0.00     0.178 C 
BRANCH  27  32
HETATM   32  C2  UNL     1     -10.090  -5.968  19.312  1.00  0.00     0.054 C 
HETATM   33  C1  UNL     1     -10.900  -6.762  20.288  1.00  0.00     0.011 C 
ENDBRANCH  27  32
ENDBRANCH  22  25
ENDBRANCH   1  21
TORSDOF 5
ENDMDL
MODEL 2
REMARK VINA RESULT: -7.046879566      2.648      5.623
REMARK  5 active torsions:
REMARK  status: ('A' for Active; 'I' for Inactive)
REMARK    1  A    between atoms: C2_2  and  C3_3 
REMARK    2  A    between atoms: C5_5  and  C6_6 
REMARK       I    between atoms: C6_6  and  N1_8 
REMARK    3  A    between atoms: N1_8  and  C7_10 
REMARK    4  A    between atoms: C10_15  and  C11_16 
REMARK       I    between atoms: C11_16  and  N2_18 
REMARK    5  A    between atoms: N2_18  and  C12_20 
ROOT
HETATM    1  C7  UNL     1      -7.986  -9.035  17.465  1.00  0.00     0.093 A 
HETATM    2  S1  UNL     1      -8.377  -7.579  16.658  1.00  0.00    -0.064 SA
HETATM    3  C8  UNL     1      -8.698  -6.603  18.005  1.00  0.00     0.055 A 
HETATM    4  S2  UNL     1      -9.200  -4.860  18.078  1.00  0.00    -0.044 SA
HETATM    5  C9  UNL     1      -8.491  -7.443  19.064  1.00  0.00     0.046 A 
HETATM    6  C10 UNL     1      -8.118  -8.717  18.784  1.00  0.00     0.067 A 
ENDROOT
BRANCH   6   7
HETATM    7  C11 UNL     1      -7.864  -9.724  19.861  1.00  0.00     0.255 C 
HETATM    8  O2  UNL     1      -7.041 -10.649  19.712  1.00  0.00    -0.268 OA
HETATM    9  N2  UNL     1      -8.538  -9.682  21.101  1.00  0.00    -0.348 N 
ATOM     10  H2  UNL     1      -9.212  -8.927  21.229  1.00  0.00     0.163 HD
BRANCH   9  11
HETATM   11  C12 UNL     1      -8.374 -10.590  22.198  1.00  0.00     0.034 C 
HETATM   12  C13 UNL     1      -9.135 -11.898  21.894  1.00  0.00     0.035 C 
HETATM   13  C14 UNL     1      -8.966 -12.836  23.039  1.00  0.00    -0.012 C 
HETATM   14  C15 UNL     1      -7.504 -13.228  23.100  1.00  0.00     0.009 C 
HETATM   15  C19 UNL     1      -9.411 -12.294  24.359  1.00  0.00     0.009 C 
HETATM   16  C16 UNL     1      -6.726 -11.993  23.421  1.00  0.00    -0.012 C 
HETATM   17  C17 UNL     1      -7.164 -11.336  24.704  1.00  0.00     0.009 C 
HETATM   18  C21 UNL     1      -6.917 -10.968  22.314  1.00  0.00     0.035 C 
HETATM   19  C18 UNL     1      -8.633 -11.022  24.615  1.00  0.00    -0.012 C 
HETATM   20  C20 UNL     1      -8.962 -10.077  23.478  1.00  0.00     0.035 C 
ENDBRANCH   9  11
ENDBRANCH   6   7
BRANCH   1  21
HETATM   21  N1  UNL     1      -7.613 -10.264  16.808  1.00  0.00    -0.315 N 
HETATM   22  C6  UNL     1      -8.619 -11.244  16.555  1.00  0.00     0.274 C 
HETATM   23  O1  UNL     1      -9.792 -11.009  16.909  1.00  0.00    -0.266 OA
ATOM     24  H1  UNL     1      -6.646 -10.431  16.529  1.00  0.00     0.170 HD
BRANCH  22  25
HETATM   25  C5  UNL     1      -8.313 -12.501  15.898  1.00  0.00     0.120 A 
HETATM   26  C4  UNL     1      -8.893 -13.729  16.230  1.00  0.00     0.063 A 
HETATM   27  C3  UNL     1      -8.323 -14.637  15.371  1.00  0.00     0.028 A 
HETATM   28  N4  UNL     1      -7.474 -13.987  14.596  1.00  0.00    -0.302 N 
HETATM   29  N3  UNL     1      -7.456 -12.719  14.898  1.00  0.00    -0.291 N 
ATOM     30  H4  UNL     1      -6.910 -14.418  13.863  1.00  0.00     0.186 HD
HETATM   31  C22 UNL     1      -6.643 -11.719  14.250  1.00  0.00     0.178 C 
BRANCH  27  32
HETATM   32  C2  UNL     1      -8.614 -16.097  15.324  1.00  0.00     0.054 C 
HETATM   33  C1  UNL     1      -7.519 -16.805  16.059  1.00  0.00     0.011 C 
ENDBRANCH  27  32
ENDBRANCH  22  25
ENDBRANCH   1  21
TORSDOF 5
ENDMDL
MODEL 3
REMARK VINA RESULT: -7.013036226      2.644      5.511
REMARK  5 active torsions:
REMARK  status: ('A' for Active; 'I' for Inactive)
REMARK    1  A    between atoms: C2_2  and  C3_3 
REMARK    2  A    between atoms: C5_5  and  C6_6 
REMARK       I    between atoms: C6_6  and  N1_8 
REMARK    3  A    between atoms: N1_8  and  C7_10 
REMARK    4  A    between atoms: C10_15  and  C11_16 
REMARK       I    between atoms: C11_16  and  N2_18 
REMARK    5  A    between atoms: N2_18  and  C12_20 
ROOT
HETATM    1  C7  UNL     1      -7.969  -9.001  17.499  1.00  0.00     0.093 A 
HETATM    2  S1  UNL     1      -8.388  -7.537  16.720  1.00  0.00    -0.064 SA
HETATM    3  C8  UNL     1      -8.703  -6.586  18.086  1.00  0.00     0.055 A 
HETATM    4  S2  UNL     1      -9.224  -4.851  18.193  1.00  0.00    -0.044 SA
HETATM    5  C9  UNL     1      -8.471  -7.440  19.129  1.00  0.00     0.046 A 
HETATM    6  C10 UNL     1      -8.087  -8.705  18.825  1.00  0.00     0.067 A 
ENDROOT
BRANCH   6   7
HETATM    7  C11 UNL     1      -7.806  -9.724  19.883  1.00  0.00     0.255 C 
HETATM    8  O2  UNL     1      -6.964 -10.628  19.714  1.00  0.00    -0.268 OA
HETATM    9  N2  UNL     1      -8.477  -9.720  21.125  1.00  0.00    -0.348 N 
ATOM     10  H2  UNL     1      -9.167  -8.982  21.270  1.00  0.00     0.163 HD
BRANCH   9  11
HETATM   11  C12 UNL     1      -8.288 -10.644  22.205  1.00  0.00     0.034 C 
HETATM   12  C13 UNL     1      -8.948 -10.078  23.480  1.00  0.00     0.035 C 
HETATM   13  C14 UNL     1      -8.743 -11.039  24.600  1.00  0.00    -0.012 C 
HETATM   14  C15 UNL     1      -9.519 -12.298  24.273  1.00  0.00     0.009 C 
HETATM   15  C19 UNL     1      -7.314 -11.372  24.882  1.00  0.00     0.009 C 
HETATM   16  C16 UNL     1      -8.896 -12.900  23.054  1.00  0.00    -0.012 C 
HETATM   17  C17 UNL     1      -7.430 -13.198  23.227  1.00  0.00     0.009 C 
HETATM   18  C21 UNL     1      -9.014 -11.928  21.890  1.00  0.00     0.035 C 
HETATM   19  C18 UNL     1      -6.715 -11.930  23.610  1.00  0.00    -0.012 C 
HETATM   20  C20 UNL     1      -6.845 -10.845  22.560  1.00  0.00     0.035 C 
ENDBRANCH   9  11
ENDBRANCH   6   7
BRANCH   1  21
HETATM   21  N1  UNL     1      -7.591 -10.215  16.819  1.00  0.00    -0.315 N 
HETATM   22  C6  UNL     1      -8.573 -11.231  16.623  1.00  0.00     0.274 C 
HETATM   23  O1  UNL     1      -9.730 -11.040  17.047  1.00  0.00    -0.266 OA
ATOM     24  H1  UNL     1      -6.636 -10.346  16.482  1.00  0.00     0.170 HD
BRANCH  22  25
HETATM   25  C5  UNL     1      -8.259 -12.476  15.947  1.00  0.00     0.120 A 
HETATM   26  C4  UNL     1      -8.791 -13.722  16.296  1.00  0.00     0.063 A 
HETATM   27  C3  UNL     1      -8.232 -14.609  15.408  1.00  0.00     0.028 A 
HETATM   28  N4  UNL     1      -7.435 -13.932  14.602  1.00  0.00    -0.302 N 
HETATM   29  N3  UNL     1      -7.441 -12.666  14.910  1.00  0.00    -0.291 N 
ATOM     30  H4  UNL     1      -6.892 -14.343  13.843  1.00  0.00     0.186 HD
HETATM   31  C22 UNL     1      -6.684 -11.639  14.234  1.00  0.00     0.178 C 
BRANCH  27  32
HETATM   32  C2  UNL     1      -8.484 -16.077  15.365  1.00  0.00     0.054 C 
HETATM   33  C1  UNL     1      -7.434 -16.745  16.196  1.00  0.00     0.011 C 
ENDBRANCH  27  32
ENDBRANCH  22  25
ENDBRANCH   1  21
TORSDOF 5
ENDMDL
MODEL 4
REMARK VINA RESULT: -6.979119632      1.857      5.635
REMARK  5 active torsions:
REMARK  status: ('A' for Active; 'I' for Inactive)
REMARK    1  A    between atoms: C2_2  and  C3_3 
REMARK    2  A    between atoms: C5_5  and  C6_6 
REMARK       I    between atoms: C6_6  and  N1_8 
REMARK    3  A    between atoms: N1_8  and  C7_10 
REMARK    4  A    between atoms: C10_15  and  C11_16 
REMARK       I    between atoms: C11_16  and  N2_18 
REMARK    5  A    between atoms: N2_18  and  C12_20 
ROOT
HETATM    1  C7  UNL     1      -8.470 -13.481  17.641  1.00  0.00     0.093 A 
HETATM    2  S1  UNL     1      -7.754 -14.702  16.681  1.00  0.00    -0.064 SA
HETATM    3  C8  UNL     1      -7.475 -13.806  15.271  1.00  0.00     0.055 A 
HETATM    4  S2  UNL     1      -6.728 -14.325  13.700  1.00  0.00    -0.044 SA
HETATM    5  C9  UNL     1      -7.951 -12.563  15.584  1.00  0.00     0.046 A 
HETATM    6  C10 UNL     1      -8.473 -12.390  16.824  1.00  0.00     0.067 A 
ENDROOT
BRANCH   6   7
HETATM    7  C11 UNL     1      -9.023 -11.075  17.276  1.00  0.00     0.255 C 
HETATM    8  O2  UNL     1     -10.128 -10.656  16.878  1.00  0.00    -0.268 OA
HETATM    9  N2  UNL     1      -8.325 -10.239  18.174  1.00  0.00    -0.348 N 
ATOM     10  H2  UNL     1      -7.421 -10.576  18.504  1.00  0.00     0.163 HD
BRANCH   9  11
HETATM   11  C12 UNL     1      -8.756  -8.965  18.671  1.00  0.00     0.034 C 
HETATM   12  C13 UNL     1      -7.895  -8.576  19.891  1.00  0.00     0.035 C 
HETATM   13  C14 UNL     1      -8.351  -7.255  20.407  1.00  0.00    -0.012 C 
HETATM   14  C15 UNL     1      -8.039  -6.216  19.350  1.00  0.00     0.009 C 
HETATM   15  C19 UNL     1      -9.798  -7.197  20.777  1.00  0.00     0.009 C 
HETATM   16  C16 UNL     1      -8.875  -6.536  18.152  1.00  0.00    -0.012 C 
HETATM   17  C17 UNL     1     -10.350  -6.574  18.455  1.00  0.00     0.009 C 
HETATM   18  C21 UNL     1      -8.499  -7.911  17.622  1.00  0.00     0.035 C 
HETATM   19  C18 UNL     1     -10.598  -7.575  19.551  1.00  0.00    -0.012 C 
HETATM   20  C20 UNL     1     -10.170  -8.978  19.171  1.00  0.00     0.035 C 
ENDBRANCH   9  11
ENDBRANCH   6   7
BRANCH   1  21
HETATM   21  N1  UNL     1      -8.932 -13.665  18.995  1.00  0.00    -0.315 N 
HETATM   22  C6  UNL     1      -8.145 -13.154  20.069  1.00  0.00     0.274 C 
HETATM   23  O1  UNL     1      -7.079 -12.562  19.806  1.00  0.00    -0.266 OA
ATOM     24  H1  UNL     1      -9.808 -14.154  19.182  1.00  0.00     0.170 HD
BRANCH  22  25
HETATM   25  C5  UNL     1      -8.552 -13.305  21.454  1.00  0.00     0.120 A 
HETATM   26  C4  UNL     1      -8.106 -12.494  22.502  1.00  0.00     0.063 A 
HETATM   27  C3  UNL     1      -8.733 -12.983  23.623  1.00  0.00     0.028 A 
HETATM   28  N4  UNL     1      -9.488 -14.002  23.255  1.00  0.00    -0.302 N 
HETATM   29  N3  UNL     1      -9.390 -14.205  21.971  1.00  0.00    -0.291 N 
ATOM     30  H4  UNL     1     -10.068 -14.554  23.888  1.00  0.00     0.186 HD
HETATM   31  C22 UNL     1     -10.080 -15.237  21.235  1.00  0.00     0.178 C 
BRANCH  27  32
HETATM   32  C2  UNL     1      -8.586 -12.453  25.008  1.00  0.00     0.054 C 
HETATM   33  C1  UNL     1      -7.617 -11.314  24.959  1.00  0.00     0.011 C 
ENDBRANCH  27  32
ENDBRANCH  22  25
ENDBRANCH   1  21
TORSDOF 5
ENDMDL
MODEL 5
REMARK VINA RESULT: -6.971259552      1.850      5.730
REMARK  5 active torsions:
REMARK  status: ('A' for Active; 'I' for Inactive)
REMARK    1  A    between atoms: C2_2  and  C3_3 
REMARK    2  A    between atoms: C5_5  and  C6_6 
REMARK       I    between atoms: C6_6  and  N1_8 
REMARK    3  A    between atoms: N1_8  and  C7_10 
REMARK    4  A    between atoms: C10_15  and  C11_16 
REMARK       I    between atoms: C11_16  and  N2_18 
REMARK    5  A    between atoms: N2_18  and  C12_20 
ROOT
HETATM    1  C7  UNL     1      -8.429 -13.478  17.639  1.00  0.00     0.093 A 
HETATM    2  S1  UNL     1      -7.725 -14.709  16.683  1.00  0.00    -0.064 SA
HETATM    3  C8  UNL     1      -7.435 -13.820  15.270  1.00  0.00     0.055 A 
HETATM    4  S2  UNL     1      -6.692 -14.350  13.702  1.00  0.00    -0.044 SA
HETATM    5  C9  UNL     1      -7.899 -12.571  15.580  1.00  0.00     0.046 A 
HETATM    6  C10 UNL     1      -8.419 -12.389  16.819  1.00  0.00     0.067 A 
ENDROOT
BRANCH   6   7
HETATM    7  C11 UNL     1      -8.956 -11.067  17.267  1.00  0.00     0.255 C 
HETATM    8  O2  UNL     1     -10.079 -10.661  16.908  1.00  0.00    -0.268 OA
HETATM    9  N2  UNL     1      -8.224 -10.210  18.117  1.00  0.00    -0.348 N 
ATOM     10  H2  UNL     1      -7.305 -10.536  18.414  1.00  0.00     0.163 HD
BRANCH   9  11
HETATM   11  C12 UNL     1      -8.640  -8.927  18.606  1.00  0.00     0.034 C 
HETATM   12  C13 UNL     1     -10.111  -9.010  19.065  1.00  0.00     0.035 C 
HETATM   13  C14 UNL     1     -10.540  -7.674  19.566  1.00  0.00    -0.012 C 
HETATM   14  C15 UNL     1      -9.744  -7.376  20.820  1.00  0.00     0.009 C 
HETATM   15  C19 UNL     1     -10.385  -6.561  18.581  1.00  0.00     0.009 C 
HETATM   16  C16 UNL     1      -8.309  -7.259  20.419  1.00  0.00    -0.012 C 
HETATM   17  C17 UNL     1      -8.074  -6.207  19.367  1.00  0.00     0.009 C 
HETATM   18  C21 UNL     1      -7.834  -8.580  19.833  1.00  0.00     0.035 C 
HETATM   19  C18 UNL     1      -8.931  -6.514  18.168  1.00  0.00    -0.012 C 
HETATM   20  C20 UNL     1      -8.613  -7.861  17.551  1.00  0.00     0.035 C 
ENDBRANCH   9  11
ENDBRANCH   6   7
BRANCH   1  21
HETATM   21  N1  UNL     1      -8.894 -13.654  18.993  1.00  0.00    -0.315 N 
HETATM   22  C6  UNL     1      -8.092 -13.167  20.068  1.00  0.00     0.274 C 
HETATM   23  O1  UNL     1      -7.011 -12.603  19.805  1.00  0.00    -0.266 OA
ATOM     24  H1  UNL     1      -9.783 -14.119  19.180  1.00  0.00     0.170 HD
BRANCH  22  25
HETATM   25  C5  UNL     1      -8.501 -13.312  21.452  1.00  0.00     0.120 A 
HETATM   26  C4  UNL     1      -8.007 -12.538  22.508  1.00  0.00     0.063 A 
HETATM   27  C3  UNL     1      -8.656 -13.005  23.626  1.00  0.00     0.028 A 
HETATM   28  N4  UNL     1      -9.467 -13.977  23.249  1.00  0.00    -0.302 N 
HETATM   29  N3  UNL     1      -9.386 -14.170  21.964  1.00  0.00    -0.291 N 
ATOM     30  H4  UNL     1     -10.074 -14.503  23.879  1.00  0.00     0.186 HD
HETATM   31  C22 UNL     1     -10.135 -15.153  21.218  1.00  0.00     0.178 C 
BRANCH  27  32
HETATM   32  C2  UNL     1      -8.474 -12.500  25.016  1.00  0.00     0.054 C 
HETATM   33  C1  UNL     1      -7.649 -11.254  24.944  1.00  0.00     0.011 C 
ENDBRANCH  27  32
ENDBRANCH  22  25
ENDBRANCH   1  21
TORSDOF 5
ENDMDL
