MODEL 1
REMARK VINA RESULT: -8.703955636      0.000      0.000
REMARK  6 active torsions:
REMARK  status: ('A' for Active; 'I' for Inactive)
REMARK    1  A    between atoms: N1_1  and  C1_5 
REMARK    2  A    between atoms: N2_8  and  C4_9 
REMARK    3  A    between atoms: C7_12  and  C8_13 
REMARK    4  A    between atoms: C12_23  and  N6_24 
REMARK       I    between atoms: N6_24  and  C13_26 
REMARK    5  A    between atoms: C13_26  and  C14_28 
REMARK    6  A    between atoms: C17_31  and  C18_32 
ROOT
HETATM    1  C4  UNL     1      -8.145 -11.493  16.360  1.00  0.00     0.075 A 
HETATM    2  C5  UNL     1      -9.462 -11.011  16.401  1.00  0.00     0.036 A 
HETATM    3  C6  UNL     1      -9.695  -9.728  16.821  1.00  0.00     0.036 A 
HETATM    4  C7  UNL     1      -8.616  -8.942  17.192  1.00  0.00     0.078 A 
HETATM    5  N5  UNL     1      -7.371  -9.442  17.138  1.00  0.00    -0.338 N 
ATOM      6  H5  UNL     1      -6.602  -8.834  17.419  1.00  0.00     0.167 HD
HETATM    7  C12 UNL     1      -7.070 -10.682  16.742  1.00  0.00     0.135 A 
ENDROOT
BRANCH   7   8
HETATM    8  N6  UNL     1      -5.778 -11.201  16.743  1.00  0.00    -0.307 N 
HETATM    9  C13 UNL     1      -5.124 -11.716  17.855  1.00  0.00     0.257 C 
HETATM   10  O1  UNL     1      -3.944 -12.189  17.631  1.00  0.00    -0.267 OA
ATOM     11  H6  UNL     1      -5.271 -11.203  15.858  1.00  0.00     0.170 HD
BRANCH   9  12
HETATM   12  C14 UNL     1      -5.639 -11.766  19.218  1.00  0.00     0.032 A 
HETATM   13  C15 UNL     1      -5.359 -10.795  20.156  1.00  0.00     0.018 A 
HETATM   14  C16 UNL     1      -5.892 -10.816  21.430  1.00  0.00     0.013 A 
HETATM   15  C17 UNL     1      -6.742 -11.828  21.824  1.00  0.00    -0.026 A 
HETATM   16  C24 UNL     1      -7.024 -12.803  20.889  1.00  0.00     0.013 A 
HETATM   17  C25 UNL     1      -6.491 -12.782  19.616  1.00  0.00     0.018 A 
BRANCH  15  18
HETATM   18  C18 UNL     1      -7.319 -11.867  23.171  1.00  0.00    -0.026 A 
HETATM   19  C19 UNL     1      -7.036 -10.912  24.116  1.00  0.00     0.012 A 
HETATM   20  C20 UNL     1      -7.603 -10.991  25.367  1.00  0.00     0.001 A 
HETATM   21  C21 UNL     1      -8.462 -12.020  25.705  1.00  0.00     0.000 A 
HETATM   22  C22 UNL     1      -8.743 -12.975  24.755  1.00  0.00     0.001 A 
HETATM   23  C23 UNL     1      -8.175 -12.890  23.510  1.00  0.00     0.012 A 
ENDBRANCH  15  18
ENDBRANCH   9  12
ENDBRANCH   7   8
BRANCH   1  24
HETATM   24  N2  UNL     1      -7.885 -12.801  15.892  1.00  0.00    -0.378 N 
HETATM   25  C3  UNL     1      -7.231 -12.964  14.613  1.00  0.00     0.125 C 
HETATM   26  C2  UNL     1      -6.636 -14.364  14.512  1.00  0.00     0.052 C 
HETATM   27  C1  UNL     1      -7.643 -15.449  14.730  1.00  0.00     0.186 C 
HETATM   28  C27 UNL     1      -8.802 -14.960  15.564  1.00  0.00     0.052 C 
HETATM   29  C26 UNL     1      -8.228 -14.009  16.604  1.00  0.00     0.125 C 
BRANCH  27  30
HETATM   30  N1  UNL     1      -7.020 -16.538  15.493  1.00  0.00    -0.075 N 
ATOM     31  H13 UNL     1      -6.843 -16.280  16.464  1.00  0.00     0.274 HD
ATOM     32  H12 UNL     1      -7.665 -17.310  15.664  1.00  0.00     0.274 HD
ATOM     33  H11 UNL     1      -6.173 -16.841  15.012  1.00  0.00     0.274 HD
ENDBRANCH  27  30
ENDBRANCH   1  24
BRANCH   4  34
HETATM   34  C8  UNL     1      -8.940  -7.592  17.636  1.00  0.00     0.132 A 
HETATM   35  N3  UNL     1      -8.409  -6.491  17.089  1.00  0.00    -0.350 N 
HETATM   36  C9  UNL     1      -8.689  -5.240  17.477  1.00  0.00     0.091 A 
ATOM     37  H3  UNL     1      -7.745  -6.613  16.325  1.00  0.00     0.166 HD
HETATM   38  C10 UNL     1      -9.579  -5.029  18.507  1.00  0.00     0.034 A 
HETATM   39  C11 UNL     1     -10.141  -6.145  19.088  1.00  0.00     0.091 A 
HETATM   40  N4  UNL     1      -9.818  -7.373  18.652  1.00  0.00    -0.350 N 
ATOM     41  H4  UNL     1     -10.251  -8.180  19.103  1.00  0.00     0.166 HD
ENDBRANCH   4  34
TORSDOF 6
ENDMDL
MODEL 2
REMARK VINA RESULT: -7.505695581      2.391      6.056
REMARK  6 active torsions:
REMARK  status: ('A' for Active; 'I' for Inactive)
REMARK    1  A    between atoms: N1_1  and  C1_5 
REMARK    2  A    between atoms: N2_8  and  C4_9 
REMARK    3  A    between atoms: C7_12  and  C8_13 
REMARK    4  A    between atoms: C12_23  and  N6_24 
REMARK       I    between atoms: N6_24  and  C13_26 
REMARK    5  A    between atoms: C13_26  and  C14_28 
REMARK    6  A    between atoms: C17_31  and  C18_32 
ROOT
HETATM    1  C4  UNL     1      -7.629 -13.861  18.936  1.00  0.00     0.075 A 
HETATM    2  C5  UNL     1      -8.816 -14.067  19.657  1.00  0.00     0.036 A 
HETATM    3  C6  UNL     1      -8.886 -13.663  20.965  1.00  0.00     0.036 A 
HETATM    4  C7  UNL     1      -7.777 -13.059  21.535  1.00  0.00     0.078 A 
HETATM    5  N5  UNL     1      -6.661 -12.881  20.811  1.00  0.00    -0.338 N 
ATOM      6  H5  UNL     1      -5.867 -12.433  21.265  1.00  0.00     0.167 HD
HETATM    7  C12 UNL     1      -6.521 -13.251  19.534  1.00  0.00     0.135 A 
ENDROOT
BRANCH   7   8
HETATM    8  N6  UNL     1      -5.338 -13.107  18.814  1.00  0.00    -0.307 N 
HETATM    9  C13 UNL     1      -4.919 -11.938  18.191  1.00  0.00     0.257 C 
HETATM   10  O1  UNL     1      -3.767 -12.004  17.613  1.00  0.00    -0.267 OA
ATOM     11  H6  UNL     1      -4.731 -13.924  18.737  1.00  0.00     0.170 HD
BRANCH   9  12
HETATM   12  C14 UNL     1      -5.647 -10.677  18.133  1.00  0.00     0.032 A 
HETATM   13  C15 UNL     1      -6.429 -10.318  17.055  1.00  0.00     0.018 A 
HETATM   14  C16 UNL     1      -7.162  -9.147  17.025  1.00  0.00     0.013 A 
HETATM   15  C17 UNL     1      -7.140  -8.273  18.092  1.00  0.00    -0.026 A 
HETATM   16  C24 UNL     1      -6.358  -8.627  19.173  1.00  0.00     0.013 A 
HETATM   17  C25 UNL     1      -5.626  -9.797  19.202  1.00  0.00     0.018 A 
BRANCH  15  18
HETATM   18  C18 UNL     1      -7.912  -7.027  18.081  1.00  0.00    -0.026 A 
HETATM   19  C19 UNL     1      -8.266  -6.397  16.913  1.00  0.00     0.012 A 
HETATM   20  C20 UNL     1      -8.992  -5.229  16.953  1.00  0.00     0.001 A 
HETATM   21  C21 UNL     1      -9.380  -4.663  18.153  1.00  0.00     0.000 A 
HETATM   22  C22 UNL     1      -9.023  -5.297  19.321  1.00  0.00     0.001 A 
HETATM   23  C23 UNL     1      -8.300  -6.461  19.273  1.00  0.00     0.012 A 
ENDBRANCH  15  18
ENDBRANCH   9  12
ENDBRANCH   7   8
BRANCH   1  24
HETATM   24  N2  UNL     1      -7.554 -14.237  17.576  1.00  0.00    -0.378 N 
HETATM   25  C3  UNL     1      -6.894 -15.476  17.232  1.00  0.00     0.125 C 
HETATM   26  C2  UNL     1      -7.318 -15.917  15.836  1.00  0.00     0.052 C 
HETATM   27  C1  UNL     1      -7.068 -14.879  14.788  1.00  0.00     0.186 C 
HETATM   28  C27 UNL     1      -7.042 -13.494  15.386  1.00  0.00     0.052 C 
HETATM   29  C26 UNL     1      -8.097 -13.465  16.482  1.00  0.00     0.125 C 
BRANCH  27  30
HETATM   30  N1  UNL     1      -8.178 -14.890  13.826  1.00  0.00    -0.075 N 
ATOM     31  H13 UNL     1      -8.688 -15.774  13.831  1.00  0.00     0.274 HD
ATOM     32  H12 UNL     1      -8.944 -14.280  14.112  1.00  0.00     0.274 HD
ATOM     33  H11 UNL     1      -7.820 -14.654  12.901  1.00  0.00     0.274 HD
ENDBRANCH  27  30
ENDBRANCH   1  24
BRANCH   4  34
HETATM   34  C8  UNL     1      -7.922 -12.664  22.931  1.00  0.00     0.132 A 
HETATM   35  N3  UNL     1      -8.679 -13.333  23.810  1.00  0.00    -0.350 N 
HETATM   36  C9  UNL     1      -8.829 -12.992  25.097  1.00  0.00     0.091 A 
ATOM     37  H3  UNL     1      -9.176 -14.160  23.477  1.00  0.00     0.166 HD
HETATM   38  C10 UNL     1      -8.177 -11.883  25.588  1.00  0.00     0.034 A 
HETATM   39  C11 UNL     1      -7.390 -11.175  24.705  1.00  0.00     0.091 A 
HETATM   40  N4  UNL     1      -7.282 -11.570  23.426  1.00  0.00    -0.350 N 
ATOM     41  H4  UNL     1      -6.693 -11.025  22.796  1.00  0.00     0.166 HD
ENDBRANCH   4  34
TORSDOF 6
ENDMDL
MODEL 3
REMARK VINA RESULT: -7.087279226      1.410      5.756
REMARK  6 active torsions:
REMARK  status: ('A' for Active; 'I' for Inactive)
REMARK    1  A    between atoms: N1_1  and  C1_5 
REMARK    2  A    between atoms: N2_8  and  C4_9 
REMARK    3  A    between atoms: C7_12  and  C8_13 
REMARK    4  A    between atoms: C12_23  and  N6_24 
REMARK       I    between atoms: N6_24  and  C13_26 
REMARK    5  A    between atoms: C13_26  and  C14_28 
REMARK    6  A    between atoms: C17_31  and  C18_32 
ROOT
HETATM    1  C4  UNL     1      -8.452 -10.038  16.615  1.00  0.00     0.075 A 
HETATM    2  C5  UNL     1      -9.616 -10.775  16.351  1.00  0.00     0.036 A 
HETATM    3  C6  UNL     1      -9.520 -12.123  16.118  1.00  0.00     0.036 A 
HETATM    4  C7  UNL     1      -8.269 -12.717  16.153  1.00  0.00     0.078 A 
HETATM    5  N5  UNL     1      -7.180 -11.975  16.410  1.00  0.00    -0.338 N 
ATOM      6  H5  UNL     1      -6.277 -12.448  16.428  1.00  0.00     0.167 HD
HETATM    7  C12 UNL     1      -7.198 -10.659  16.643  1.00  0.00     0.135 A 
ENDROOT
BRANCH   7   8
HETATM    8  N6  UNL     1      -6.052  -9.897  16.854  1.00  0.00    -0.307 N 
HETATM    9  C13 UNL     1      -5.461  -9.667  18.090  1.00  0.00     0.257 C 
HETATM   10  O1  UNL     1      -4.377  -8.969  18.061  1.00  0.00    -0.267 OA
ATOM     11  H6  UNL     1      -5.612  -9.473  16.037  1.00  0.00     0.170 HD
BRANCH   9  12
HETATM   12  C14 UNL     1      -5.947 -10.133  19.384  1.00  0.00     0.032 A 
HETATM   13  C15 UNL     1      -6.903  -9.452  20.109  1.00  0.00     0.018 A 
HETATM   14  C16 UNL     1      -7.401  -9.923  21.308  1.00  0.00     0.013 A 
HETATM   15  C17 UNL     1      -6.954 -11.115  21.839  1.00  0.00    -0.026 A 
HETATM   16  C24 UNL     1      -5.996 -11.798  21.118  1.00  0.00     0.013 A 
HETATM   17  C25 UNL     1      -5.499 -11.327  19.920  1.00  0.00     0.018 A 
BRANCH  15  18
HETATM   18  C18 UNL     1      -7.472 -11.632  23.109  1.00  0.00    -0.026 A 
HETATM   19  C19 UNL     1      -7.295 -10.966  24.297  1.00  0.00     0.012 A 
HETATM   20  C20 UNL     1      -7.799 -11.491  25.464  1.00  0.00     0.001 A 
HETATM   21  C21 UNL     1      -8.490 -12.689  25.475  1.00  0.00     0.000 A 
HETATM   22  C22 UNL     1      -8.665 -13.353  24.283  1.00  0.00     0.001 A 
HETATM   23  C23 UNL     1      -8.159 -12.823  23.124  1.00  0.00     0.012 A 
ENDBRANCH  15  18
ENDBRANCH   9  12
ENDBRANCH   7   8
BRANCH   1  24
HETATM   24  N2  UNL     1      -8.539  -8.656  16.895  1.00  0.00    -0.378 N 
HETATM   25  C3  UNL     1      -7.842  -7.727  16.034  1.00  0.00     0.125 C 
HETATM   26  C2  UNL     1      -8.422  -6.328  16.208  1.00  0.00     0.052 C 
HETATM   27  C1  UNL     1      -8.397  -5.851  17.625  1.00  0.00     0.186 C 
HETATM   28  C27 UNL     1      -8.390  -7.010  18.592  1.00  0.00     0.052 C 
HETATM   29  C26 UNL     1      -9.282  -8.089  17.995  1.00  0.00     0.125 C 
BRANCH  27  30
HETATM   30  N1  UNL     1      -9.626  -5.094  17.900  1.00  0.00    -0.075 N 
ATOM     31  H13 UNL     1     -10.237  -5.575  18.561  1.00  0.00     0.274 HD
ATOM     32  H12 UNL     1      -9.448  -4.255  18.452  1.00  0.00     0.274 HD
ATOM     33  H11 UNL     1     -10.095  -4.887  17.019  1.00  0.00     0.274 HD
ENDBRANCH  27  30
ENDBRANCH   1  24
BRANCH   4  34
HETATM   34  C8  UNL     1      -8.243 -14.150  15.888  1.00  0.00     0.132 A 
HETATM   35  N3  UNL     1      -9.246 -14.806  15.289  1.00  0.00    -0.350 N 
HETATM   36  C9  UNL     1      -9.248 -16.120  15.034  1.00  0.00     0.091 A 
ATOM     37  H3  UNL     1     -10.065 -14.267  15.008  1.00  0.00     0.166 HD
HETATM   38  C10 UNL     1      -8.162 -16.887  15.397  1.00  0.00     0.034 A 
HETATM   39  C11 UNL     1      -7.115 -16.237  16.016  1.00  0.00     0.091 A 
HETATM   40  N4  UNL     1      -7.176 -14.915  16.243  1.00  0.00    -0.350 N 
ATOM     41  H4  UNL     1      -6.385 -14.464  16.703  1.00  0.00     0.166 HD
ENDBRANCH   4  34
TORSDOF 6
ENDMDL
MODEL 4
REMARK VINA RESULT: -6.445992307      2.475      6.937
REMARK  6 active torsions:
REMARK  status: ('A' for Active; 'I' for Inactive)
REMARK    1  A    between atoms: N1_1  and  C1_5 
REMARK    2  A    between atoms: N2_8  and  C4_9 
REMARK    3  A    between atoms: C7_12  and  C8_13 
REMARK    4  A    between atoms: C12_23  and  N6_24 
REMARK       I    between atoms: N6_24  and  C13_26 
REMARK    5  A    between atoms: C13_26  and  C14_28 
REMARK    6  A    between atoms: C17_31  and  C18_32 
ROOT
HETATM    1  C4  UNL     1      -7.809  -9.424  19.323  1.00  0.00     0.075 A 
HETATM    2  C5  UNL     1      -8.994  -9.431  20.073  1.00  0.00     0.036 A 
HETATM    3  C6  UNL     1      -8.986  -9.960  21.337  1.00  0.00     0.036 A 
HETATM    4  C7  UNL     1      -7.800 -10.471  21.838  1.00  0.00     0.078 A 
HETATM    5  N5  UNL     1      -6.687 -10.445  21.087  1.00  0.00    -0.338 N 
ATOM      6  H5  UNL     1      -5.833 -10.830  21.490  1.00  0.00     0.167 HD
HETATM    7  C12 UNL     1      -6.622  -9.949  19.847  1.00  0.00     0.135 A 
ENDROOT
BRANCH   7   8
HETATM    8  N6  UNL     1      -5.472  -9.979  19.063  1.00  0.00    -0.307 N 
HETATM    9  C13 UNL     1      -5.293 -10.771  17.936  1.00  0.00     0.257 C 
HETATM   10  O1  UNL     1      -4.167 -10.614  17.326  1.00  0.00    -0.267 OA
ATOM     11  H6  UNL     1      -4.699  -9.371  19.338  1.00  0.00     0.170 HD
BRANCH   9  12
HETATM   12  C14 UNL     1      -6.240 -11.740  17.398  1.00  0.00     0.032 A 
HETATM   13  C15 UNL     1      -6.948 -12.613  18.198  1.00  0.00     0.018 A 
HETATM   14  C16 UNL     1      -7.884 -13.492  17.691  1.00  0.00     0.013 A 
HETATM   15  C17 UNL     1      -8.155 -13.535  16.339  1.00  0.00    -0.026 A 
HETATM   16  C24 UNL     1      -7.448 -12.664  15.535  1.00  0.00     0.013 A 
HETATM   17  C25 UNL     1      -6.512 -11.785  16.042  1.00  0.00     0.018 A 
BRANCH  15  18
HETATM   18  C18 UNL     1      -9.146 -14.460  15.782  1.00  0.00    -0.026 A 
HETATM   19  C19 UNL     1      -8.816 -15.731  15.382  1.00  0.00     0.012 A 
HETATM   20  C20 UNL     1      -9.782 -16.563  14.865  1.00  0.00     0.001 A 
HETATM   21  C21 UNL     1     -11.095 -16.150  14.736  1.00  0.00     0.000 A 
HETATM   22  C22 UNL     1     -11.421 -14.875  15.138  1.00  0.00     0.001 A 
HETATM   23  C23 UNL     1     -10.453 -14.051  15.652  1.00  0.00     0.012 A 
ENDBRANCH  15  18
ENDBRANCH   9  12
ENDBRANCH   7   8
BRANCH   1  24
HETATM   24  N2  UNL     1      -7.792  -8.848  18.032  1.00  0.00    -0.378 N 
HETATM   25  C3  UNL     1      -8.546  -9.484  16.977  1.00  0.00     0.125 C 
HETATM   26  C2  UNL     1      -8.778  -8.495  15.840  1.00  0.00     0.052 C 
HETATM   27  C1  UNL     1      -7.512  -7.909  15.301  1.00  0.00     0.186 C 
HETATM   28  C27 UNL     1      -6.413  -7.936  16.335  1.00  0.00     0.052 C 
HETATM   29  C26 UNL     1      -7.065  -7.650  17.680  1.00  0.00     0.125 C 
BRANCH  27  30
HETATM   30  N1  UNL     1      -7.736  -6.494  14.977  1.00  0.00    -0.075 N 
ATOM     31  H13 UNL     1      -8.728  -6.257  14.941  1.00  0.00     0.274 HD
ATOM     32  H12 UNL     1      -7.467  -5.875  15.742  1.00  0.00     0.274 HD
ATOM     33  H11 UNL     1      -7.252  -6.270  14.108  1.00  0.00     0.274 HD
ENDBRANCH  27  30
ENDBRANCH   1  24
BRANCH   4  34
HETATM   34  C8  UNL     1      -7.868 -11.024  23.185  1.00  0.00     0.132 A 
HETATM   35  N3  UNL     1      -7.376 -10.398  24.262  1.00  0.00    -0.350 N 
HETATM   36  C9  UNL     1      -7.426 -10.883  25.510  1.00  0.00     0.091 A 
ATOM     37  H3  UNL     1      -6.932  -9.490  24.123  1.00  0.00     0.166 HD
HETATM   38  C10 UNL     1      -8.015 -12.106  25.743  1.00  0.00     0.034 A 
HETATM   39  C11 UNL     1      -8.530 -12.772  24.652  1.00  0.00     0.091 A 
HETATM   40  N4  UNL     1      -8.448 -12.230  23.425  1.00  0.00    -0.350 N 
ATOM     41  H4  UNL     1      -8.839 -12.748  22.638  1.00  0.00     0.166 HD
ENDBRANCH   4  34
TORSDOF 6
ENDMDL
MODEL 5
REMARK VINA RESULT: -6.390002966      2.705      6.464
REMARK  6 active torsions:
REMARK  status: ('A' for Active; 'I' for Inactive)
REMARK    1  A    between atoms: N1_1  and  C1_5 
REMARK    2  A    between atoms: N2_8  and  C4_9 
REMARK    3  A    between atoms: C7_12  and  C8_13 
REMARK    4  A    between atoms: C12_23  and  N6_24 
REMARK       I    between atoms: N6_24  and  C13_26 
REMARK    5  A    between atoms: C13_26  and  C14_28 
REMARK    6  A    between atoms: C17_31  and  C18_32 
ROOT
HETATM    1  C4  UNL     1      -8.442  -9.986  21.797  1.00  0.00     0.075 A 
HETATM    2  C5  UNL     1      -9.640  -9.421  21.336  1.00  0.00     0.036 A 
HETATM    3  C6  UNL     1      -9.616  -8.590  20.246  1.00  0.00     0.036 A 
HETATM    4  C7  UNL     1      -8.401  -8.336  19.630  1.00  0.00     0.078 A 
HETATM    5  N5  UNL     1      -7.277  -8.898  20.104  1.00  0.00    -0.338 N 
ATOM      6  H5  UNL     1      -6.403  -8.687  19.623  1.00  0.00     0.167 HD
HETATM    7  C12 UNL     1      -7.226  -9.714  21.161  1.00  0.00     0.135 A 
ENDROOT
BRANCH   7   8
HETATM    8  N6  UNL     1      -6.044 -10.244  21.671  1.00  0.00    -0.307 N 
HETATM    9  C13 UNL     1      -5.437 -11.413  21.229  1.00  0.00     0.257 C 
HETATM   10  O1  UNL     1      -4.320 -11.706  21.806  1.00  0.00    -0.267 OA
ATOM     11  H6  UNL     1      -5.587  -9.734  22.427  1.00  0.00     0.170 HD
BRANCH   9  12
HETATM   12  C14 UNL     1      -5.939 -12.316  20.201  1.00  0.00     0.032 A 
HETATM   13  C15 UNL     1      -7.261 -12.703  20.130  1.00  0.00     0.018 A 
HETATM   14  C16 UNL     1      -7.746 -13.515  19.124  1.00  0.00     0.013 A 
HETATM   15  C17 UNL     1      -6.911 -13.982  18.129  1.00  0.00    -0.026 A 
HETATM   16  C24 UNL     1      -5.587 -13.599  18.197  1.00  0.00     0.013 A 
HETATM   17  C25 UNL     1      -5.104 -12.788  19.203  1.00  0.00     0.018 A 
BRANCH  15  18
HETATM   18  C18 UNL     1      -7.406 -14.843  17.052  1.00  0.00    -0.026 A 
HETATM   19  C19 UNL     1      -6.870 -16.082  16.800  1.00  0.00     0.012 A 
HETATM   20  C20 UNL     1      -7.368 -16.855  15.777  1.00  0.00     0.001 A 
HETATM   21  C21 UNL     1      -8.411 -16.413  14.983  1.00  0.00     0.000 A 
HETATM   22  C22 UNL     1      -8.945 -15.171  15.238  1.00  0.00     0.001 A 
HETATM   23  C23 UNL     1      -8.443 -14.406  16.260  1.00  0.00     0.012 A 
ENDBRANCH  15  18
ENDBRANCH   9  12
ENDBRANCH   7   8
BRANCH   1  24
HETATM   24  N2  UNL     1      -8.457 -10.875  22.896  1.00  0.00    -0.378 N 
HETATM   25  C3  UNL     1      -8.954 -12.218  22.697  1.00  0.00     0.125 C 
HETATM   26  C2  UNL     1      -8.464 -13.122  23.823  1.00  0.00     0.052 C 
HETATM   27  C1  UNL     1      -8.833 -12.621  25.183  1.00  0.00     0.186 C 
HETATM   28  C27 UNL     1      -9.039 -11.126  25.179  1.00  0.00     0.052 C 
HETATM   29  C26 UNL     1      -8.006 -10.540  24.227  1.00  0.00     0.125 C 
BRANCH  27  30
HETATM   30  N1  UNL     1      -7.722 -12.879  26.109  1.00  0.00    -0.075 N 
ATOM     31  H13 UNL     1      -7.824 -13.768  26.600  1.00  0.00     0.274 HD
ATOM     32  H12 UNL     1      -6.850 -13.084  25.620  1.00  0.00     0.274 HD
ATOM     33  H11 UNL     1      -7.631 -12.091  26.749  1.00  0.00     0.274 HD
ENDBRANCH  27  30
ENDBRANCH   1  24
BRANCH   4  34
HETATM   34  C8  UNL     1      -8.450  -7.438  18.483  1.00  0.00     0.132 A 
HETATM   35  N3  UNL     1      -8.962  -6.201  18.539  1.00  0.00    -0.350 N 
HETATM   36  C9  UNL     1      -9.019  -5.356  17.501  1.00  0.00     0.091 A 
ATOM     37  H3  UNL     1      -9.335  -5.881  19.433  1.00  0.00     0.166 HD
HETATM   38  C10 UNL     1      -8.529  -5.748  16.275  1.00  0.00     0.034 A 
HETATM   39  C11 UNL     1      -7.995  -7.016  16.190  1.00  0.00     0.091 A 
HETATM   40  N4  UNL     1      -7.968  -7.816  17.268  1.00  0.00    -0.350 N 
ATOM     41  H4  UNL     1      -7.567  -8.749  17.173  1.00  0.00     0.166 HD
ENDBRANCH   4  34
TORSDOF 6
ENDMDL
