MODEL 1
REMARK VINA RESULT: -10.245267983      0.000      0.000
REMARK  6 active torsions:
REMARK  status: ('A' for Active; 'I' for Inactive)
REMARK    1  A    between atoms: C2_2  and  C3_3 
REMARK    2  A    between atoms: C6_6  and  N1_7 
REMARK       I    between atoms: N1_7  and  C7_9 
REMARK    3  A    between atoms: C7_9  and  C8_11 
REMARK    4  A    between atoms: C13_16  and  N2_17 
REMARK    5  A    between atoms: N2_17  and  C14_19 
REMARK    6  A    between atoms: C19_28  and  C20_29 
ROOT
HETATM    1  N2  UNL     1      -5.808 -13.832  18.642  1.00  0.00    -0.341 N 
ATOM      2  H2  UNL     1      -5.765 -14.376  19.503  1.00  0.00     0.167 HD
ENDROOT
BRANCH   1   3
HETATM    3  C13 UNL     1      -6.590 -14.333  17.581  1.00  0.00     0.049 A 
HETATM    4  C8  UNL     1      -7.613 -13.582  17.083  1.00  0.00     0.059 A 
HETATM    5  C9  UNL     1      -8.328 -14.118  15.998  1.00  0.00     0.019 A 
HETATM    6  C10 UNL     1      -7.971 -15.351  15.501  1.00  0.00     0.001 A 
HETATM    7  C11 UNL     1      -6.935 -16.088  16.024  1.00  0.00     0.002 A 
HETATM    8  C12 UNL     1      -6.226 -15.583  17.078  1.00  0.00     0.030 A 
BRANCH   4   9
HETATM    9  C7  UNL     1      -8.091 -12.300  17.578  1.00  0.00     0.258 C 
HETATM   10  N1  UNL     1      -7.823 -11.033  17.088  1.00  0.00    -0.322 N 
ATOM     11  H1  UNL     1      -7.211 -11.000  16.272  1.00  0.00     0.169 HD
HETATM   12  O1  UNL     1      -8.861 -12.361  18.607  1.00  0.00    -0.267 OA
BRANCH  10  13
HETATM   13  C6  UNL     1      -8.271  -9.794  17.549  1.00  0.00     0.050 A 
HETATM   14  C5  UNL     1      -7.416  -8.938  18.243  1.00  0.00     0.033 A 
HETATM   15  C4  UNL     1      -7.866  -7.736  18.718  1.00  0.00     0.031 A 
HETATM   16  C3  UNL     1      -9.171  -7.317  18.537  1.00  0.00     0.031 A 
HETATM   17  N7  UNL     1      -9.973  -8.148  17.873  1.00  0.00    -0.364 N 
HETATM   18  C26 UNL     1      -9.555  -9.364  17.381  1.00  0.00     0.117 A 
ATOM     19  H7  UNL     1     -10.942  -7.870  17.721  1.00  0.00     0.165 HD
BRANCH  16  20
HETATM   20  C2  UNL     1      -9.618  -6.033  19.055  1.00  0.00     0.019 C 
HETATM   21  C1  UNL     1      -9.194  -4.926  18.475  1.00  0.00     0.013 C 
ENDBRANCH  16  20
ENDBRANCH  10  13
ENDBRANCH   4   9
ENDBRANCH   1   3
BRANCH   1  22
HETATM   22  C14 UNL     1      -5.144 -12.729  18.590  1.00  0.00     0.119 A 
HETATM   23  N3  UNL     1      -4.342 -12.389  17.585  1.00  0.00    -0.338 N 
HETATM   24  C15 UNL     1      -3.684 -11.221  17.609  1.00  0.00     0.182 A 
ATOM     25  H3  UNL     1      -4.227 -13.020  16.792  1.00  0.00     0.168 HD
HETATM   26  N4  UNL     1      -3.786 -10.340  18.617  1.00  0.00    -0.352 N 
HETATM   27  C16 UNL     1      -4.588 -10.638  19.662  1.00  0.00     0.047 A 
ATOM     28  H4  UNL     1      -3.266  -9.463  18.595  1.00  0.00     0.166 HD
HETATM   29  C17 UNL     1      -4.731  -9.773  20.724  1.00  0.00     0.031 A 
HETATM   30  C25 UNL     1      -5.282 -11.856  19.648  1.00  0.00     0.035 A 
HETATM   31  C18 UNL     1      -5.557 -10.116  21.769  1.00  0.00     0.014 A 
HETATM   32  C19 UNL     1      -6.258 -11.312  21.789  1.00  0.00    -0.022 A 
HETATM   33  C24 UNL     1      -6.108 -12.168  20.723  1.00  0.00     0.030 A 
BRANCH  32  34
HETATM   34  C20 UNL     1      -7.141 -11.704  22.875  1.00  0.00     0.005 A 
HETATM   35  C21 UNL     1      -7.796 -12.912  22.948  1.00  0.00     0.102 A 
HETATM   36  N5  UNL     1      -8.607 -13.241  23.969  1.00  0.00    -0.361 N 
HETATM   37  C22 UNL     1      -8.791 -12.352  24.970  1.00  0.00     0.180 A 
ATOM     38  H5  UNL     1      -9.075 -14.147  23.987  1.00  0.00     0.166 HD
HETATM   39  N6  UNL     1      -8.163 -11.167  24.919  1.00  0.00    -0.361 N 
HETATM   40  C23 UNL     1      -7.346 -10.813  23.909  1.00  0.00     0.102 A 
ATOM     41  H6  UNL     1      -8.311 -10.504  25.680  1.00  0.00     0.166 HD
ENDBRANCH  32  34
ENDBRANCH   1  22
TORSDOF 6
ENDMDL
MODEL 2
REMARK VINA RESULT: -9.340727718      1.949      7.106
REMARK  6 active torsions:
REMARK  status: ('A' for Active; 'I' for Inactive)
REMARK    1  A    between atoms: C2_2  and  C3_3 
REMARK    2  A    between atoms: C6_6  and  N1_7 
REMARK       I    between atoms: N1_7  and  C7_9 
REMARK    3  A    between atoms: C7_9  and  C8_11 
REMARK    4  A    between atoms: C13_16  and  N2_17 
REMARK    5  A    between atoms: N2_17  and  C14_19 
REMARK    6  A    between atoms: C19_28  and  C20_29 
ROOT
HETATM    1  N2  UNL     1      -9.824 -10.271  21.311  1.00  0.00    -0.341 N 
ATOM      2  H2  UNL     1     -10.305 -11.043  20.848  1.00  0.00     0.167 HD
ENDROOT
BRANCH   1   3
HETATM    3  C13 UNL     1      -8.916 -10.583  22.344  1.00  0.00     0.049 A 
HETATM    4  C8  UNL     1      -8.054 -11.629  22.192  1.00  0.00     0.059 A 
HETATM    5  C9  UNL     1      -7.145 -11.862  23.239  1.00  0.00     0.019 A 
HETATM    6  C10 UNL     1      -7.168 -11.044  24.345  1.00  0.00     0.001 A 
HETATM    7  C11 UNL     1      -8.050  -9.996  24.472  1.00  0.00     0.002 A 
HETATM    8  C12 UNL     1      -8.941  -9.751  23.465  1.00  0.00     0.030 A 
BRANCH   4   9
HETATM    9  C7  UNL     1      -7.996 -12.573  21.088  1.00  0.00     0.258 C 
HETATM   10  N1  UNL     1      -7.506 -12.373  19.807  1.00  0.00    -0.322 N 
ATOM     11  H1  UNL     1      -7.139 -11.440  19.621  1.00  0.00     0.169 HD
HETATM   12  O1  UNL     1      -8.464 -13.745  21.340  1.00  0.00    -0.267 OA
BRANCH  10  13
HETATM   13  C6  UNL     1      -7.443 -13.265  18.736  1.00  0.00     0.050 A 
HETATM   14  C5  UNL     1      -6.257 -13.929  18.426  1.00  0.00     0.033 A 
HETATM   15  C4  UNL     1      -6.192 -14.782  17.358  1.00  0.00     0.031 A 
HETATM   16  C3  UNL     1      -7.282 -15.023  16.544  1.00  0.00     0.031 A 
HETATM   17  N7  UNL     1      -8.407 -14.380  16.854  1.00  0.00    -0.364 N 
HETATM   18  C26 UNL     1      -8.509 -13.515  17.921  1.00  0.00     0.117 A 
ATOM     19  H7  UNL     1      -9.231 -14.535  16.274  1.00  0.00     0.165 HD
BRANCH  16  20
HETATM   20  C2  UNL     1      -7.180 -15.935  15.415  1.00  0.00     0.019 C 
HETATM   21  C1  UNL     1      -7.984 -16.981  15.363  1.00  0.00     0.013 C 
ENDBRANCH  16  20
ENDBRANCH  10  13
ENDBRANCH   4   9
ENDBRANCH   1   3
BRANCH   1  22
HETATM   22  C14 UNL     1     -10.083  -9.073  20.916  1.00  0.00     0.119 A 
HETATM   23  N3  UNL     1     -11.127  -8.362  21.332  1.00  0.00    -0.338 N 
HETATM   24  C15 UNL     1     -11.327  -7.119  20.869  1.00  0.00     0.182 A 
ATOM     25  H3  UNL     1     -11.779  -8.763  22.005  1.00  0.00     0.168 HD
HETATM   26  N4  UNL     1     -10.512  -6.525  19.982  1.00  0.00    -0.352 N 
HETATM   27  C16 UNL     1      -9.437  -7.205  19.529  1.00  0.00     0.047 A 
ATOM     28  H4  UNL     1     -10.703  -5.577  19.656  1.00  0.00     0.166 HD
HETATM   29  C17 UNL     1      -8.568  -6.646  18.618  1.00  0.00     0.031 A 
HETATM   30  C25 UNL     1      -9.218  -8.505  20.006  1.00  0.00     0.035 A 
HETATM   31  C18 UNL     1      -7.486  -7.375  18.181  1.00  0.00     0.014 A 
HETATM   32  C19 UNL     1      -7.238  -8.663  18.631  1.00  0.00    -0.022 A 
HETATM   33  C24 UNL     1      -8.113  -9.211  19.541  1.00  0.00     0.030 A 
BRANCH  32  34
HETATM   34  C20 UNL     1      -6.103  -9.459  18.193  1.00  0.00     0.005 A 
HETATM   35  C21 UNL     1      -6.033 -10.113  16.984  1.00  0.00     0.102 A 
HETATM   36  N5  UNL     1      -4.966 -10.842  16.611  1.00  0.00    -0.361 N 
HETATM   37  C22 UNL     1      -3.916 -10.941  17.455  1.00  0.00     0.180 A 
ATOM     38  H5  UNL     1      -4.951 -11.313  15.707  1.00  0.00     0.166 HD
HETATM   39  N6  UNL     1      -3.963 -10.313  18.641  1.00  0.00    -0.361 N 
HETATM   40  C23 UNL     1      -5.018  -9.577  19.037  1.00  0.00     0.102 A 
ATOM     41  H6  UNL     1      -3.165 -10.397  19.269  1.00  0.00     0.166 HD
ENDBRANCH  32  34
ENDBRANCH   1  22
TORSDOF 6
ENDMDL
MODEL 3
REMARK VINA RESULT: -9.327719388      1.757      6.273
REMARK  6 active torsions:
REMARK  status: ('A' for Active; 'I' for Inactive)
REMARK    1  A    between atoms: C2_2  and  C3_3 
REMARK    2  A    between atoms: C6_6  and  N1_7 
REMARK       I    between atoms: N1_7  and  C7_9 
REMARK    3  A    between atoms: C7_9  and  C8_11 
REMARK    4  A    between atoms: C13_16  and  N2_17 
REMARK    5  A    between atoms: N2_17  and  C14_19 
REMARK    6  A    between atoms: C19_28  and  C20_29 
ROOT
HETATM    1  N2  UNL     1      -6.414 -10.305  22.323  1.00  0.00    -0.341 N 
ATOM      2  H2  UNL     1      -6.484  -9.300  22.482  1.00  0.00     0.167 HD
ENDROOT
BRANCH   1   3
HETATM    3  C13 UNL     1      -7.229 -11.155  23.098  1.00  0.00     0.049 A 
HETATM    4  C8  UNL     1      -7.951 -12.139  22.489  1.00  0.00     0.059 A 
HETATM    5  C9  UNL     1      -8.711 -12.979  23.321  1.00  0.00     0.019 A 
HETATM    6  C10 UNL     1      -8.693 -12.775  24.682  1.00  0.00     0.001 A 
HETATM    7  C11 UNL     1      -7.956 -11.773  25.269  1.00  0.00     0.002 A 
HETATM    8  C12 UNL     1      -7.209 -10.946  24.478  1.00  0.00     0.030 A 
BRANCH   4   9
HETATM    9  C7  UNL     1      -8.071 -12.393  21.062  1.00  0.00     0.258 C 
HETATM   10  N1  UNL     1      -7.473 -13.391  20.311  1.00  0.00    -0.322 N 
ATOM     11  H1  UNL     1      -6.871 -14.029  20.832  1.00  0.00     0.169 HD
HETATM   12  O1  UNL     1      -8.832 -11.577  20.420  1.00  0.00    -0.267 OA
BRANCH  10  13
HETATM   13  C6  UNL     1      -7.574 -13.649  18.943  1.00  0.00     0.050 A 
HETATM   14  C5  UNL     1      -6.434 -13.738  18.146  1.00  0.00     0.033 A 
HETATM   15  C4  UNL     1      -6.538 -13.963  16.800  1.00  0.00     0.031 A 
HETATM   16  C3  UNL     1      -7.761 -14.112  16.173  1.00  0.00     0.031 A 
HETATM   17  N7  UNL     1      -8.839 -14.023  16.951  1.00  0.00    -0.364 N 
HETATM   18  C26 UNL     1      -8.772 -13.797  18.307  1.00  0.00     0.117 A 
ATOM     19  H7  UNL     1      -9.759 -14.128  16.521  1.00  0.00     0.165 HD
BRANCH  16  20
HETATM   20  C2  UNL     1      -7.839 -14.350  14.741  1.00  0.00     0.019 C 
HETATM   21  C1  UNL     1      -6.969 -13.757  13.945  1.00  0.00     0.013 C 
ENDBRANCH  16  20
ENDBRANCH  10  13
ENDBRANCH   4   9
ENDBRANCH   1   3
BRANCH   1  22
HETATM   22  C14 UNL     1      -5.588 -10.720  21.426  1.00  0.00     0.119 A 
HETATM   23  N3  UNL     1      -4.670 -11.659  21.637  1.00  0.00    -0.338 N 
HETATM   24  C15 UNL     1      -3.845 -12.033  20.648  1.00  0.00     0.182 A 
ATOM     25  H3  UNL     1      -4.594 -12.097  22.555  1.00  0.00     0.168 HD
HETATM   26  N4  UNL     1      -3.886 -11.502  19.416  1.00  0.00    -0.352 N 
HETATM   27  C16 UNL     1      -4.800 -10.545  19.150  1.00  0.00     0.047 A 
ATOM     28  H4  UNL     1      -3.238 -11.817  18.693  1.00  0.00     0.166 HD
HETATM   29  C17 UNL     1      -4.888  -9.965  17.904  1.00  0.00     0.031 A 
HETATM   30  C25 UNL     1      -5.669 -10.146  20.176  1.00  0.00     0.035 A 
HETATM   31  C18 UNL     1      -5.833  -8.991  17.677  1.00  0.00     0.014 A 
HETATM   32  C19 UNL     1      -6.708  -8.572  18.667  1.00  0.00    -0.022 A 
HETATM   33  C24 UNL     1      -6.612  -9.158  19.908  1.00  0.00     0.030 A 
BRANCH  32  34
HETATM   34  C20 UNL     1      -7.720  -7.548  18.460  1.00  0.00     0.005 A 
HETATM   35  C21 UNL     1      -7.960  -6.924  17.258  1.00  0.00     0.102 A 
HETATM   36  N5  UNL     1      -8.906  -5.980  17.103  1.00  0.00    -0.361 N 
HETATM   37  C22 UNL     1      -9.654  -5.624  18.171  1.00  0.00     0.180 A 
ATOM     38  H5  UNL     1      -9.054  -5.540  16.196  1.00  0.00     0.166 HD
HETATM   39  N6  UNL     1      -9.436  -6.219  19.354  1.00  0.00    -0.361 N 
HETATM   40  C23 UNL     1      -8.497  -7.167  19.535  1.00  0.00     0.102 A 
ATOM     41  H6  UNL     1     -10.007  -5.941  20.152  1.00  0.00     0.166 HD
ENDBRANCH  32  34
ENDBRANCH   1  22
TORSDOF 6
ENDMDL
MODEL 4
REMARK VINA RESULT: -9.187603039      2.058      6.884
REMARK  6 active torsions:
REMARK  status: ('A' for Active; 'I' for Inactive)
REMARK    1  A    between atoms: C2_2  and  C3_3 
REMARK    2  A    between atoms: C6_6  and  N1_7 
REMARK       I    between atoms: N1_7  and  C7_9 
REMARK    3  A    between atoms: C7_9  and  C8_11 
REMARK    4  A    between atoms: C13_16  and  N2_17 
REMARK    5  A    between atoms: N2_17  and  C14_19 
REMARK    6  A    between atoms: C19_28  and  C20_29 
ROOT
HETATM    1  N2  UNL     1      -8.119  -9.728  22.135  1.00  0.00    -0.341 N 
ATOM      2  H2  UNL     1      -7.188  -9.312  22.103  1.00  0.00     0.167 HD
ENDROOT
BRANCH   1   3
HETATM    3  C13 UNL     1      -8.312 -10.854  22.961  1.00  0.00     0.049 A 
HETATM    4  C8  UNL     1      -8.115 -12.105  22.456  1.00  0.00     0.059 A 
HETATM    5  C9  UNL     1      -8.283 -13.183  23.341  1.00  0.00     0.019 A 
HETATM    6  C10 UNL     1      -8.632 -12.933  24.649  1.00  0.00     0.001 A 
HETATM    7  C11 UNL     1      -8.826 -11.660  25.132  1.00  0.00     0.002 A 
HETATM    8  C12 UNL     1      -8.667 -10.597  24.287  1.00  0.00     0.030 A 
BRANCH   4   9
HETATM    9  C7  UNL     1      -7.798 -12.463  21.082  1.00  0.00     0.258 C 
HETATM   10  N1  UNL     1      -8.654 -12.909  20.089  1.00  0.00    -0.322 N 
ATOM     11  H1  UNL     1      -9.634 -12.994  20.361  1.00  0.00     0.169 HD
HETATM   12  O1  UNL     1      -6.558 -12.351  20.756  1.00  0.00    -0.267 OA
BRANCH  10  13
HETATM   13  C6  UNL     1      -8.369 -13.258  18.768  1.00  0.00     0.050 A 
HETATM   14  C5  UNL     1      -9.139 -12.765  17.715  1.00  0.00     0.033 A 
HETATM   15  C4  UNL     1      -8.873 -13.132  16.424  1.00  0.00     0.031 A 
HETATM   16  C3  UNL     1      -7.845 -13.997  16.103  1.00  0.00     0.031 A 
HETATM   17  N7  UNL     1      -7.121 -14.459  17.122  1.00  0.00    -0.364 N 
HETATM   18  C26 UNL     1      -7.359 -14.112  18.432  1.00  0.00     0.117 A 
ATOM     19  H7  UNL     1      -6.353 -15.101  16.921  1.00  0.00     0.165 HD
BRANCH  16  20
HETATM   20  C2  UNL     1      -7.588 -14.368  14.720  1.00  0.00     0.019 C 
HETATM   21  C1  UNL     1      -6.815 -13.594  13.983  1.00  0.00     0.013 C 
ENDBRANCH  16  20
ENDBRANCH  10  13
ENDBRANCH   4   9
ENDBRANCH   1   3
BRANCH   1  22
HETATM   22  C14 UNL     1      -9.045  -9.192  21.417  1.00  0.00     0.119 A 
HETATM   23  N3  UNL     1     -10.190  -8.725  21.908  1.00  0.00    -0.338 N 
HETATM   24  C15 UNL     1     -11.105  -8.183  21.091  1.00  0.00     0.182 A 
ATOM     25  H3  UNL     1     -10.372  -8.779  22.910  1.00  0.00     0.168 HD
HETATM   26  N4  UNL     1     -10.936  -8.078  19.763  1.00  0.00    -0.352 N 
HETATM   27  C16 UNL     1      -9.790  -8.538  19.216  1.00  0.00     0.047 A 
ATOM     28  H4  UNL     1     -11.659  -7.659  19.179  1.00  0.00     0.166 HD
HETATM   29  C17 UNL     1      -9.561  -8.457  17.860  1.00  0.00     0.031 A 
HETATM   30  C25 UNL     1      -8.825  -9.106  20.060  1.00  0.00     0.035 A 
HETATM   31  C18 UNL     1      -8.381  -8.939  17.343  1.00  0.00     0.014 A 
HETATM   32  C19 UNL     1      -7.405  -9.507  18.147  1.00  0.00    -0.022 A 
HETATM   33  C24 UNL     1      -7.644  -9.582  19.500  1.00  0.00     0.030 A 
BRANCH  32  34
HETATM   34  C20 UNL     1      -6.146 -10.023  17.635  1.00  0.00     0.005 A 
HETATM   35  C21 UNL     1      -6.003 -10.666  16.427  1.00  0.00     0.102 A 
HETATM   36  N5  UNL     1      -4.822 -11.132  15.985  1.00  0.00    -0.361 N 
HETATM   37  C22 UNL     1      -3.724 -10.965  16.755  1.00  0.00     0.180 A 
ATOM     38  H5  UNL     1      -4.756 -11.603  15.083  1.00  0.00     0.166 HD
HETATM   39  N6  UNL     1      -3.841 -10.342  17.939  1.00  0.00    -0.361 N 
HETATM   40  C23 UNL     1      -5.011  -9.866  18.404  1.00  0.00     0.102 A 
ATOM     41  H6  UNL     1      -3.005 -10.223  18.511  1.00  0.00     0.166 HD
ENDBRANCH  32  34
ENDBRANCH   1  22
TORSDOF 6
ENDMDL
MODEL 5
REMARK VINA RESULT: -9.084566035      1.771      6.332
REMARK  6 active torsions:
REMARK  status: ('A' for Active; 'I' for Inactive)
REMARK    1  A    between atoms: C2_2  and  C3_3 
REMARK    2  A    between atoms: C6_6  and  N1_7 
REMARK       I    between atoms: N1_7  and  C7_9 
REMARK    3  A    between atoms: C7_9  and  C8_11 
REMARK    4  A    between atoms: C13_16  and  N2_17 
REMARK    5  A    between atoms: N2_17  and  C14_19 
REMARK    6  A    between atoms: C19_28  and  C20_29 
ROOT
HETATM    1  N2  UNL     1      -6.357 -10.310  22.300  1.00  0.00    -0.341 N 
ATOM      2  H2  UNL     1      -6.391  -9.310  22.496  1.00  0.00     0.167 HD
ENDROOT
BRANCH   1   3
HETATM    3  C13 UNL     1      -7.190 -11.161  23.054  1.00  0.00     0.049 A 
HETATM    4  C8  UNL     1      -7.909 -12.133  22.425  1.00  0.00     0.059 A 
HETATM    5  C9  UNL     1      -8.688 -12.976  23.237  1.00  0.00     0.019 A 
HETATM    6  C10 UNL     1      -8.690 -12.784  24.599  1.00  0.00     0.001 A 
HETATM    7  C11 UNL     1      -7.955 -11.794  25.208  1.00  0.00     0.002 A 
HETATM    8  C12 UNL     1      -7.190 -10.965  24.437  1.00  0.00     0.030 A 
BRANCH   4   9
HETATM    9  C7  UNL     1      -8.008 -12.373  20.994  1.00  0.00     0.258 C 
HETATM   10  N1  UNL     1      -7.362 -13.334  20.234  1.00  0.00    -0.322 N 
ATOM     11  H1  UNL     1      -6.737 -13.952  20.751  1.00  0.00     0.169 HD
HETATM   12  O1  UNL     1      -8.801 -11.583  20.357  1.00  0.00    -0.267 OA
BRANCH  10  13
HETATM   13  C6  UNL     1      -7.443 -13.578  18.862  1.00  0.00     0.050 A 
HETATM   14  C5  UNL     1      -8.657 -13.465  18.186  1.00  0.00     0.033 A 
HETATM   15  C4  UNL     1      -8.738 -13.732  16.846  1.00  0.00     0.031 A 
HETATM   16  C3  UNL     1      -7.637 -14.122  16.107  1.00  0.00     0.031 A 
HETATM   17  N7  UNL     1      -6.486 -14.225  16.770  1.00  0.00    -0.364 N 
HETATM   18  C26 UNL     1      -6.367 -13.965  18.117  1.00  0.00     0.117 A 
ATOM     19  H7  UNL     1      -5.653 -14.511  16.255  1.00  0.00     0.165 HD
BRANCH  16  20
HETATM   20  C2  UNL     1      -7.756 -14.399  14.684  1.00  0.00     0.019 C 
HETATM   21  C1  UNL     1      -6.946 -13.784  13.843  1.00  0.00     0.013 C 
ENDBRANCH  16  20
ENDBRANCH  10  13
ENDBRANCH   4   9
ENDBRANCH   1   3
BRANCH   1  22
HETATM   22  C14 UNL     1      -5.555 -10.717  21.377  1.00  0.00     0.119 A 
HETATM   23  N3  UNL     1      -4.635 -11.662  21.555  1.00  0.00    -0.338 N 
HETATM   24  C15 UNL     1      -3.837 -12.028  20.541  1.00  0.00     0.182 A 
ATOM     25  H3  UNL     1      -4.537 -12.110  22.466  1.00  0.00     0.168 HD
HETATM   26  N4  UNL     1      -3.908 -11.484  19.316  1.00  0.00    -0.352 N 
HETATM   27  C16 UNL     1      -4.825 -10.521  19.084  1.00  0.00     0.047 A 
ATOM     28  H4  UNL     1      -3.280 -11.793  18.574  1.00  0.00     0.166 HD
HETATM   29  C17 UNL     1      -4.944  -9.927  17.847  1.00  0.00     0.031 A 
HETATM   30  C25 UNL     1      -5.666 -10.130  20.136  1.00  0.00     0.035 A 
HETATM   31  C18 UNL     1      -5.891  -8.949  17.654  1.00  0.00     0.014 A 
HETATM   32  C19 UNL     1      -6.739  -8.537  18.671  1.00  0.00    -0.022 A 
HETATM   33  C24 UNL     1      -6.612  -9.137  19.903  1.00  0.00     0.030 A 
BRANCH  32  34
HETATM   34  C20 UNL     1      -7.752  -7.508  18.501  1.00  0.00     0.005 A 
HETATM   35  C21 UNL     1      -8.544  -7.022  19.515  1.00  0.00     0.102 A 
HETATM   36  N5  UNL     1      -9.473  -6.069  19.321  1.00  0.00    -0.361 N 
HETATM   37  C22 UNL     1      -9.640  -5.563  18.079  1.00  0.00     0.180 A 
ATOM     38  H5  UNL     1     -10.042  -5.734  20.098  1.00  0.00     0.166 HD
HETATM   39  N6  UNL     1      -8.878  -6.023  17.074  1.00  0.00    -0.361 N 
HETATM   40  C23 UNL     1      -7.941  -6.975  17.242  1.00  0.00     0.102 A 
ATOM     41  H6  UNL     1      -9.014  -5.633  16.142  1.00  0.00     0.166 HD
ENDBRANCH  32  34
ENDBRANCH   1  22
TORSDOF 6
ENDMDL
