MODEL 1
REMARK VINA RESULT: -9.174246835      0.000      0.000
REMARK  6 active torsions:
REMARK  status: ('A' for Active; 'I' for Inactive)
REMARK    1  A    between atoms: C2_2  and  N1_3 
REMARK    2  A    between atoms: C5_6  and  C6_7 
REMARK    3  A    between atoms: C7_10  and  C8_11 
REMARK    4  A    between atoms: C8_11  and  N3_12 
REMARK    5  A    between atoms: C8_11  and  C16_26 
REMARK    6  A    between atoms: N3_12  and  C9_14 
ROOT
HETATM    1  C8  UNL     1      -5.865 -13.115  17.713  1.00  0.00     0.156 C 
ENDROOT
BRANCH   1   2
HETATM    2  C7  UNL     1      -6.049 -11.639  17.500  1.00  0.00     0.120 A 
HETATM    3  N2  UNL     1      -7.067 -10.849  17.833  1.00  0.00    -0.331 N 
HETATM    4  C6  UNL     1      -6.833  -9.590  17.450  1.00  0.00     0.101 A 
ATOM      5  H2  UNL     1      -7.910 -11.162  18.314  1.00  0.00     0.168 HD
HETATM    6  N7  UNL     1      -5.621  -9.623  16.862  1.00  0.00    -0.287 N 
HETATM    7  N6  UNL     1      -5.150 -10.858  16.891  1.00  0.00    -0.286 N 
ATOM      8  H7  UNL     1      -5.141  -8.819  16.457  1.00  0.00     0.188 HD
ATOM      9  H6  UNL     1      -4.253 -11.163  16.512  1.00  0.00     0.188 HD
BRANCH   4  10
HETATM   10  C5  UNL     1      -7.664  -8.367  17.604  1.00  0.00     0.058 C 
HETATM   11  C4  UNL     1      -7.325  -7.698  18.903  1.00  0.00     0.042 C 
HETATM   12  C3  UNL     1      -8.475  -6.851  19.340  1.00  0.00     0.273 C 
HETATM   13  N1  UNL     1      -9.552  -7.700  19.747  1.00  0.00     0.088 N 
HETATM   14  C23 UNL     1      -9.811  -8.787  18.854  1.00  0.00     0.273 C 
HETATM   15  C22 UNL     1      -9.132  -8.651  17.526  1.00  0.00     0.042 C 
BRANCH  13  16
HETATM   16  C2  UNL     1     -10.721  -6.965  20.145  1.00  0.00     0.268 C 
HETATM   17  C1  UNL     1     -11.516  -7.680  21.210  1.00  0.00     0.037 C 
ENDBRANCH  13  16
ENDBRANCH   4  10
ENDBRANCH   1   2
BRANCH   1  18
HETATM   18  N3  UNL     1      -6.140 -13.388  19.060  1.00  0.00    -0.364 N 
ATOM     19  H3  UNL     1      -6.505 -14.328  19.211  1.00  0.00     0.162 HD
BRANCH  18  20
HETATM   20  C9  UNL     1      -6.033 -12.722  20.126  1.00  0.00     0.115 A 
HETATM   21  N4  UNL     1      -4.910 -12.053  20.396  1.00  0.00    -0.338 N 
HETATM   22  C10 UNL     1      -4.709 -11.319  21.510  1.00  0.00     0.182 A 
ATOM     23  H4  UNL     1      -4.153 -12.099  19.714  1.00  0.00     0.168 HD
HETATM   24  N5  UNL     1      -5.711 -11.264  22.401  1.00  0.00    -0.346 N 
HETATM   25  C11 UNL     1      -6.889 -11.931  22.181  1.00  0.00     0.089 A 
ATOM     26  H5  UNL     1      -5.594 -10.719  23.255  1.00  0.00     0.167 HD
HETATM   27  S1  UNL     1      -8.349 -12.097  23.053  1.00  0.00    -0.076 SA
HETATM   28  C15 UNL     1      -7.108 -12.677  21.060  1.00  0.00     0.043 A 
HETATM   29  C12 UNL     1      -9.200 -13.106  21.977  1.00  0.00    -0.018 A 
HETATM   30  C13 UNL     1     -10.593 -13.679  22.094  1.00  0.00     0.056 C 
HETATM   31  C14 UNL     1      -8.308 -13.287  20.957  1.00  0.00     0.032 A 
ENDBRANCH  18  20
ENDBRANCH   1  18
BRANCH   1  32
HETATM   32  C16 UNL     1      -6.716 -13.860  16.710  1.00  0.00     0.016 C 
HETATM   33  C17 UNL     1      -6.549 -15.342  16.797  1.00  0.00     0.007 C 
HETATM   34  C18 UNL     1      -7.112 -16.012  15.577  1.00  0.00     0.000 C 
HETATM   35  C19 UNL     1      -8.170 -15.175  14.898  1.00  0.00     0.000 C 
HETATM   36  C20 UNL     1      -9.001 -14.424  15.914  1.00  0.00     0.000 C 
HETATM   37  C21 UNL     1      -8.160 -13.492  16.754  1.00  0.00     0.007 C 
ENDBRANCH   1  32
TORSDOF 6
ENDMDL
MODEL 2
REMARK VINA RESULT: -9.143142516      0.690      1.057
REMARK  6 active torsions:
REMARK  status: ('A' for Active; 'I' for Inactive)
REMARK    1  A    between atoms: C2_2  and  N1_3 
REMARK    2  A    between atoms: C5_6  and  C6_7 
REMARK    3  A    between atoms: C7_10  and  C8_11 
REMARK    4  A    between atoms: C8_11  and  N3_12 
REMARK    5  A    between atoms: C8_11  and  C16_26 
REMARK    6  A    between atoms: N3_12  and  C9_14 
ROOT
HETATM    1  C8  UNL     1      -5.991 -13.264  17.566  1.00  0.00     0.156 C 
ENDROOT
BRANCH   1   2
HETATM    2  C7  UNL     1      -6.455 -11.856  17.323  1.00  0.00     0.120 A 
HETATM    3  N2  UNL     1      -7.642 -11.298  17.547  1.00  0.00    -0.331 N 
HETATM    4  C6  UNL     1      -7.637 -10.013  17.179  1.00  0.00     0.101 A 
ATOM      5  H2  UNL     1      -8.446 -11.784  17.944  1.00  0.00     0.168 HD
HETATM    6  N7  UNL     1      -6.393  -9.786  16.715  1.00  0.00    -0.287 N 
HETATM    7  N6  UNL     1      -5.681 -10.898  16.801  1.00  0.00    -0.286 N 
ATOM      8  H7  UNL     1      -6.052  -8.895  16.353  1.00  0.00     0.188 HD
ATOM      9  H6  UNL     1      -4.708 -11.006  16.516  1.00  0.00     0.188 HD
BRANCH   4  10
HETATM   10  C5  UNL     1      -8.715  -8.990  17.239  1.00  0.00     0.058 C 
HETATM   11  C4  UNL     1      -8.152  -7.708  17.777  1.00  0.00     0.042 C 
HETATM   12  C3  UNL     1      -9.253  -6.890  18.367  1.00  0.00     0.273 C 
HETATM   13  N1  UNL     1      -9.705  -7.514  19.572  1.00  0.00     0.088 N 
HETATM   14  C23 UNL     1      -9.891  -8.928  19.466  1.00  0.00     0.273 C 
HETATM   15  C22 UNL     1      -9.889  -9.432  18.056  1.00  0.00     0.042 C 
BRANCH  13  16
HETATM   16  C2  UNL     1     -10.798  -6.814  20.187  1.00  0.00     0.268 C 
HETATM   17  C1  UNL     1     -11.544  -7.669  21.182  1.00  0.00     0.037 C 
ENDBRANCH  13  16
ENDBRANCH   4  10
ENDBRANCH   1   2
BRANCH   1  18
HETATM   18  N3  UNL     1      -5.983 -13.476  18.951  1.00  0.00    -0.364 N 
ATOM     19  H3  UNL     1      -6.083 -14.459  19.206  1.00  0.00     0.162 HD
BRANCH  18  20
HETATM   20  C9  UNL     1      -5.878 -12.715  19.951  1.00  0.00     0.115 A 
HETATM   21  N4  UNL     1      -4.768 -11.998  20.142  1.00  0.00    -0.338 N 
HETATM   22  C10 UNL     1      -4.570 -11.163  21.183  1.00  0.00     0.182 A 
ATOM     23  H4  UNL     1      -4.020 -12.088  19.455  1.00  0.00     0.168 HD
HETATM   24  N5  UNL     1      -5.560 -11.052  22.082  1.00  0.00    -0.346 N 
HETATM   25  C11 UNL     1      -6.724 -11.764  21.942  1.00  0.00     0.089 A 
ATOM     26  H5  UNL     1      -5.445 -10.430  22.881  1.00  0.00     0.167 HD
HETATM   27  S1  UNL     1      -8.167 -11.885  22.849  1.00  0.00    -0.076 SA
HETATM   28  C15 UNL     1      -6.940 -12.612  20.895  1.00  0.00     0.043 A 
HETATM   29  C12 UNL     1      -9.008 -13.006  21.882  1.00  0.00    -0.018 A 
HETATM   30  C13 UNL     1     -10.384 -13.599  22.071  1.00  0.00     0.056 C 
HETATM   31  C14 UNL     1      -8.126 -13.257  20.866  1.00  0.00     0.032 A 
ENDBRANCH  18  20
ENDBRANCH   1  18
BRANCH   1  32
HETATM   32  C16 UNL     1      -6.863 -14.206  16.767  1.00  0.00     0.016 C 
HETATM   33  C17 UNL     1      -6.881 -13.880  15.309  1.00  0.00     0.007 C 
HETATM   34  C18 UNL     1      -8.014 -14.586  14.621  1.00  0.00     0.000 C 
HETATM   35  C19 UNL     1      -8.452 -15.827  15.362  1.00  0.00     0.000 C 
HETATM   36  C20 UNL     1      -7.270 -16.530  15.989  1.00  0.00     0.000 C 
HETATM   37  C21 UNL     1      -6.546 -15.647  16.978  1.00  0.00     0.007 C 
ENDBRANCH   1  32
TORSDOF 6
ENDMDL
MODEL 3
REMARK VINA RESULT: -9.083731919      2.259      6.911
REMARK  6 active torsions:
REMARK  status: ('A' for Active; 'I' for Inactive)
REMARK    1  A    between atoms: C2_2  and  N1_3 
REMARK    2  A    between atoms: C5_6  and  C6_7 
REMARK    3  A    between atoms: C7_10  and  C8_11 
REMARK    4  A    between atoms: C8_11  and  N3_12 
REMARK    5  A    between atoms: C8_11  and  C16_26 
REMARK    6  A    between atoms: N3_12  and  C9_14 
ROOT
HETATM    1  C8  UNL     1      -7.945 -10.264  21.552  1.00  0.00     0.156 C 
ENDROOT
BRANCH   1   2
HETATM    2  C7  UNL     1      -6.986 -10.844  20.551  1.00  0.00     0.120 A 
HETATM    3  N2  UNL     1      -7.227 -11.490  19.413  1.00  0.00    -0.331 N 
HETATM    4  C6  UNL     1      -6.083 -11.847  18.821  1.00  0.00     0.101 A 
ATOM      5  H2  UNL     1      -8.157 -11.685  19.044  1.00  0.00     0.168 HD
HETATM    6  N7  UNL     1      -5.110 -11.396  19.637  1.00  0.00    -0.287 N 
HETATM    7  N6  UNL     1      -5.655 -10.792  20.680  1.00  0.00    -0.286 N 
ATOM      8  H7  UNL     1      -4.109 -11.503  19.476  1.00  0.00     0.188 HD
ATOM      9  H6  UNL     1      -5.146 -10.361  21.452  1.00  0.00     0.188 HD
BRANCH   4  10
HETATM   10  C5  UNL     1      -5.845 -12.575  17.547  1.00  0.00     0.058 C 
HETATM   11  C4  UNL     1      -6.699 -11.977  16.469  1.00  0.00     0.042 C 
HETATM   12  C3  UNL     1      -6.916 -12.986  15.389  1.00  0.00     0.273 C 
HETATM   13  N1  UNL     1      -7.780 -14.016  15.878  1.00  0.00     0.088 N 
HETATM   14  C23 UNL     1      -7.451 -14.483  17.189  1.00  0.00     0.273 C 
HETATM   15  C22 UNL     1      -6.099 -14.046  17.664  1.00  0.00     0.042 C 
BRANCH  13  16
HETATM   16  C2  UNL     1      -8.009 -15.056  14.915  1.00  0.00     0.268 C 
HETATM   17  C1  UNL     1      -8.081 -16.423  15.549  1.00  0.00     0.037 C 
ENDBRANCH  13  16
ENDBRANCH   4  10
ENDBRANCH   1   2
BRANCH   1  18
HETATM   18  N3  UNL     1      -9.123  -9.932  20.870  1.00  0.00    -0.364 N 
ATOM     19  H3  UNL     1      -9.579 -10.738  20.443  1.00  0.00     0.162 HD
BRANCH  18  20
HETATM   20  C9  UNL     1      -9.741  -8.851  20.669  1.00  0.00     0.115 A 
HETATM   21  N4  UNL     1     -10.691  -8.447  21.515  1.00  0.00    -0.338 N 
HETATM   22  C10 UNL     1     -11.403  -7.309  21.377  1.00  0.00     0.182 A 
ATOM     23  H4  UNL     1     -10.892  -9.039  22.322  1.00  0.00     0.168 HD
HETATM   24  N5  UNL     1     -11.131  -6.538  20.313  1.00  0.00    -0.346 N 
HETATM   25  C11 UNL     1     -10.166  -6.899  19.406  1.00  0.00     0.089 A 
ATOM     26  H5  UNL     1     -11.649  -5.671  20.176  1.00  0.00     0.167 HD
HETATM   27  S1  UNL     1      -9.554  -6.202  17.973  1.00  0.00    -0.076 SA
HETATM   28  C15 UNL     1      -9.439  -8.046  19.533  1.00  0.00     0.043 A 
HETATM   29  C12 UNL     1      -8.391  -7.378  17.568  1.00  0.00    -0.018 A 
HETATM   30  C13 UNL     1      -7.443  -7.430  16.393  1.00  0.00     0.056 C 
HETATM   31  C14 UNL     1      -8.518  -8.293  18.577  1.00  0.00     0.032 A 
ENDBRANCH  18  20
ENDBRANCH   1  18
BRANCH   1  32
HETATM   32  C16 UNL     1      -8.106 -11.245  22.691  1.00  0.00     0.016 C 
HETATM   33  C17 UNL     1      -8.635 -10.605  23.935  1.00  0.00     0.007 C 
HETATM   34  C18 UNL     1      -8.439 -11.506  25.119  1.00  0.00     0.000 C 
HETATM   35  C19 UNL     1      -8.332 -12.960  24.725  1.00  0.00     0.000 C 
HETATM   36  C20 UNL     1      -9.245 -13.274  23.561  1.00  0.00     0.000 C 
HETATM   37  C21 UNL     1      -8.909 -12.450  22.341  1.00  0.00     0.007 C 
ENDBRANCH   1  32
TORSDOF 6
ENDMDL
MODEL 4
REMARK VINA RESULT: -8.996384593      2.391      5.950
REMARK  6 active torsions:
REMARK  status: ('A' for Active; 'I' for Inactive)
REMARK    1  A    between atoms: C2_2  and  N1_3 
REMARK    2  A    between atoms: C5_6  and  C6_7 
REMARK    3  A    between atoms: C7_10  and  C8_11 
REMARK    4  A    between atoms: C8_11  and  N3_12 
REMARK    5  A    between atoms: C8_11  and  C16_26 
REMARK    6  A    between atoms: N3_12  and  C9_14 
ROOT
HETATM    1  C8  UNL     1      -5.738  -8.390  18.110  1.00  0.00     0.156 C 
ENDROOT
BRANCH   1   2
HETATM    2  C7  UNL     1      -6.669  -8.929  17.060  1.00  0.00     0.120 A 
HETATM    3  N2  UNL     1      -7.189 -10.147  16.925  1.00  0.00    -0.331 N 
HETATM    4  C6  UNL     1      -7.968 -10.210  15.841  1.00  0.00     0.101 A 
ATOM      5  H2  UNL     1      -7.017 -10.924  17.563  1.00  0.00     0.168 HD
HETATM    6  N7  UNL     1      -7.916  -8.978  15.299  1.00  0.00    -0.287 N 
HETATM    7  N6  UNL     1      -7.132  -8.206  16.034  1.00  0.00    -0.286 N 
ATOM      8  H7  UNL     1      -8.405  -8.684  14.454  1.00  0.00     0.188 HD
ATOM      9  H6  UNL     1      -6.916  -7.226  15.849  1.00  0.00     0.188 HD
BRANCH   4  10
HETATM   10  C5  UNL     1      -8.755 -11.343  15.287  1.00  0.00     0.058 C 
HETATM   11  C4  UNL     1      -9.505 -12.016  16.398  1.00  0.00     0.042 C 
HETATM   12  C3  UNL     1      -9.821 -13.421  16.006  1.00  0.00     0.273 C 
HETATM   13  N1  UNL     1      -8.612 -14.186  15.993  1.00  0.00     0.088 N 
HETATM   14  C23 UNL     1      -7.512 -13.532  15.354  1.00  0.00     0.273 C 
HETATM   15  C22 UNL     1      -7.908 -12.332  14.550  1.00  0.00     0.042 C 
BRANCH  13  16
HETATM   16  C2  UNL     1      -8.817 -15.547  15.582  1.00  0.00     0.268 C 
HETATM   17  C1  UNL     1      -7.554 -16.369  15.660  1.00  0.00     0.037 C 
ENDBRANCH  13  16
ENDBRANCH   4  10
ENDBRANCH   1   2
BRANCH   1  18
HETATM   18  N3  UNL     1      -6.515  -7.718  19.063  1.00  0.00    -0.364 N 
ATOM     19  H3  UNL     1      -5.970  -7.377  19.854  1.00  0.00     0.162 HD
BRANCH  18  20
HETATM   20  C9  UNL     1      -7.743  -7.444  19.154  1.00  0.00     0.115 A 
HETATM   21  N4  UNL     1      -8.244  -6.370  18.540  1.00  0.00    -0.338 N 
HETATM   22  C10 UNL     1      -9.541  -6.001  18.585  1.00  0.00     0.182 A 
ATOM     23  H4  UNL     1      -7.603  -5.788  18.000  1.00  0.00     0.168 HD
HETATM   24  N5  UNL     1     -10.376  -6.771  19.298  1.00  0.00    -0.346 N 
HETATM   25  C11 UNL     1      -9.922  -7.889  19.953  1.00  0.00     0.089 A 
ATOM     26  H5  UNL     1     -11.364  -6.523  19.355  1.00  0.00     0.167 HD
HETATM   27  S1  UNL     1     -10.656  -9.082  20.929  1.00  0.00    -0.076 SA
HETATM   28  C15 UNL     1      -8.614  -8.274  19.916  1.00  0.00     0.043 A 
HETATM   29  C12 UNL     1      -9.290 -10.041  21.268  1.00  0.00    -0.018 A 
HETATM   30  C13 UNL     1      -9.179 -11.298  22.097  1.00  0.00     0.056 C 
HETATM   31  C14 UNL     1      -8.288  -9.392  20.600  1.00  0.00     0.032 A 
ENDBRANCH  18  20
ENDBRANCH   1  18
BRANCH   1  32
HETATM   32  C16 UNL     1      -4.895  -9.527  18.639  1.00  0.00     0.016 C 
HETATM   33  C17 UNL     1      -4.050 -10.162  17.582  1.00  0.00     0.007 C 
HETATM   34  C18 UNL     1      -3.519 -11.485  18.052  1.00  0.00     0.000 C 
HETATM   35  C19 UNL     1      -3.452 -11.577  19.558  1.00  0.00     0.000 C 
HETATM   36  C20 UNL     1      -3.070 -10.246  20.165  1.00  0.00     0.000 C 
HETATM   37  C21 UNL     1      -4.066  -9.162  19.823  1.00  0.00     0.007 C 
ENDBRANCH   1  32
TORSDOF 6
ENDMDL
MODEL 5
REMARK VINA RESULT: -8.826820321      0.972      1.163
REMARK  6 active torsions:
REMARK  status: ('A' for Active; 'I' for Inactive)
REMARK    1  A    between atoms: C2_2  and  N1_3 
REMARK    2  A    between atoms: C5_6  and  C6_7 
REMARK    3  A    between atoms: C7_10  and  C8_11 
REMARK    4  A    between atoms: C8_11  and  N3_12 
REMARK    5  A    between atoms: C8_11  and  C16_26 
REMARK    6  A    between atoms: N3_12  and  C9_14 
ROOT
HETATM    1  C8  UNL     1      -5.701 -13.403  17.982  1.00  0.00     0.156 C 
ENDROOT
BRANCH   1   2
HETATM    2  C7  UNL     1      -5.513 -11.933  17.730  1.00  0.00     0.120 A 
HETATM    3  N2  UNL     1      -6.304 -10.907  18.034  1.00  0.00    -0.331 N 
HETATM    4  C6  UNL     1      -5.764  -9.756  17.622  1.00  0.00     0.101 A 
ATOM      5  H2  UNL     1      -7.199 -10.989  18.516  1.00  0.00     0.168 HD
HETATM    6  N7  UNL     1      -4.597 -10.104  17.045  1.00  0.00    -0.287 N 
HETATM    7  N6  UNL     1      -4.447 -11.416  17.109  1.00  0.00    -0.286 N 
ATOM      8  H7  UNL     1      -3.932  -9.455  16.624  1.00  0.00     0.188 HD
ATOM      9  H6  UNL     1      -3.653 -11.944  16.746  1.00  0.00     0.188 HD
BRANCH   4  10
HETATM   10  C5  UNL     1      -6.267  -8.362  17.738  1.00  0.00     0.058 C 
HETATM   11  C4  UNL     1      -6.738  -8.120  19.141  1.00  0.00     0.042 C 
HETATM   12  C3  UNL     1      -7.726  -7.000  19.148  1.00  0.00     0.273 C 
HETATM   13  N1  UNL     1      -8.937  -7.442  18.529  1.00  0.00     0.088 N 
HETATM   14  C23 UNL     1      -8.742  -8.169  17.313  1.00  0.00     0.273 C 
HETATM   15  C22 UNL     1      -7.356  -8.055  16.758  1.00  0.00     0.042 C 
BRANCH  13  16
HETATM   16  C2  UNL     1      -9.934  -6.411  18.453  1.00  0.00     0.268 C 
HETATM   17  C1  UNL     1      -9.331  -5.028  18.414  1.00  0.00     0.037 C 
ENDBRANCH  13  16
ENDBRANCH   4  10
ENDBRANCH   1   2
BRANCH   1  18
HETATM   18  N3  UNL     1      -6.130 -13.555  19.307  1.00  0.00    -0.364 N 
ATOM     19  H3  UNL     1      -6.592 -14.448  19.478  1.00  0.00     0.162 HD
BRANCH  18  20
HETATM   20  C9  UNL     1      -6.067 -12.828  20.335  1.00  0.00     0.115 A 
HETATM   21  N4  UNL     1      -4.949 -12.157  20.622  1.00  0.00    -0.338 N 
HETATM   22  C10 UNL     1      -4.793 -11.359  21.699  1.00  0.00     0.182 A 
ATOM     23  H4  UNL     1      -4.159 -12.253  19.983  1.00  0.00     0.168 HD
HETATM   24  N5  UNL     1      -5.837 -11.239  22.533  1.00  0.00    -0.346 N 
HETATM   25  C11 UNL     1      -7.013 -11.904  22.294  1.00  0.00     0.089 A 
ATOM     26  H5  UNL     1      -5.755 -10.644  23.358  1.00  0.00     0.167 HD
HETATM   27  S1  UNL     1      -8.516 -12.000  23.099  1.00  0.00    -0.076 SA
HETATM   28  C15 UNL     1      -7.186 -12.714  21.210  1.00  0.00     0.043 A 
HETATM   29  C12 UNL     1      -9.327 -13.062  22.044  1.00  0.00    -0.018 A 
HETATM   30  C13 UNL     1     -10.732 -13.611  22.123  1.00  0.00     0.056 C 
HETATM   31  C14 UNL     1      -8.388 -13.315  21.082  1.00  0.00     0.032 A 
ENDBRANCH  18  20
ENDBRANCH   1  18
BRANCH   1  32
HETATM   32  C16 UNL     1      -6.630 -13.960  16.928  1.00  0.00     0.016 C 
HETATM   33  C17 UNL     1      -6.601 -15.453  16.861  1.00  0.00     0.007 C 
HETATM   34  C18 UNL     1      -7.239 -15.940  15.593  1.00  0.00     0.000 C 
HETATM   35  C19 UNL     1      -8.223 -14.946  15.025  1.00  0.00     0.000 C 
HETATM   36  C20 UNL     1      -8.967 -14.229  16.129  1.00  0.00     0.000 C 
HETATM   37  C21 UNL     1      -8.033 -13.469  17.040  1.00  0.00     0.007 C 
ENDBRANCH   1  32
TORSDOF 6
ENDMDL
