MODEL 1
REMARK VINA RESULT: -8.479875005      0.000      0.000
REMARK  5 active torsions:
REMARK  status: ('A' for Active; 'I' for Inactive)
REMARK    1  A    between atoms: N3_4  and  N4_6 
REMARK    2  A    between atoms: N4_6  and  C2_7 
REMARK    3  A    between atoms: C2_7  and  C3_8 
REMARK    4  A    between atoms: C6_11  and  C7_12 
REMARK    5  A    between atoms: N6_26  and  C19_27 
ROOT
HETATM    1  C7  UNL     1      -7.950 -13.225  16.595  1.00  0.00     0.059 A 
HETATM    2  C8  UNL     1      -6.967 -12.680  15.816  1.00  0.00     0.032 A 
HETATM    3  C9  UNL     1      -5.981 -11.941  16.408  1.00  0.00     0.005 A 
HETATM    4  C10 UNL     1      -6.012 -11.764  17.817  1.00  0.00     0.033 A 
HETATM    5  C11 UNL     1      -6.985 -12.306  18.577  1.00  0.00     0.077 A 
HETATM    6  C12 UNL     1      -7.144 -12.188  20.008  1.00  0.00     0.136 A 
HETATM    7  N5  UNL     1      -8.232 -12.800  20.591  1.00  0.00    -0.339 N 
ATOM      8  H5  UNL     1      -8.940 -13.335  20.088  1.00  0.00     0.167 HD
HETATM    9  C13 UNL     1      -8.226 -12.597  21.883  1.00  0.00     0.060 A 
HETATM   10  C14 UNL     1      -9.116 -13.010  22.884  1.00  0.00     0.032 A 
HETATM   11  C15 UNL     1      -8.838 -12.629  24.171  1.00  0.00     0.002 A 
HETATM   12  C16 UNL     1      -7.723 -11.865  24.465  1.00  0.00     0.002 A 
HETATM   13  C17 UNL     1      -6.866 -11.475  23.446  1.00  0.00     0.032 A 
HETATM   14  C18 UNL     1      -7.106 -11.837  22.141  1.00  0.00     0.063 A 
HETATM   15  N6  UNL     1      -6.432 -11.585  20.958  1.00  0.00    -0.325 N 
HETATM   16  N7  UNL     1      -7.922 -13.026  17.888  1.00  0.00    -0.351 N 
ATOM     17  H7  UNL     1      -8.672 -13.448  18.436  1.00  0.00     0.166 HD
ENDROOT
BRANCH  15  18
HETATM   18  C19 UNL     1      -5.211 -10.835  20.876  1.00  0.00     0.092 C 
HETATM   19  C20 UNL     1      -5.391  -9.462  20.234  1.00  0.00     0.026 C 
HETATM   20  C21 UNL     1      -4.291  -9.067  19.343  1.00  0.00     0.002 C 
HETATM   21  C22 UNL     1      -2.935  -9.541  19.689  1.00  0.00     0.000 C 
HETATM   22  C23 UNL     1      -2.834 -10.812  20.448  1.00  0.00     0.002 C 
HETATM   23  C24 UNL     1      -4.110 -11.619  20.159  1.00  0.00     0.026 C 
ENDBRANCH  15  18
BRANCH   1  24
HETATM   24  C6  UNL     1      -9.036 -14.027  16.025  1.00  0.00     0.059 A 
HETATM   25  C5  UNL     1      -8.789 -15.278  15.507  1.00  0.00     0.033 A 
HETATM   26  C4  UNL     1      -9.787 -16.061  14.961  1.00  0.00     0.017 A 
HETATM   27  C3  UNL     1     -11.061 -15.540  14.951  1.00  0.00     0.010 A 
HETATM   28  C25 UNL     1     -11.294 -14.287  15.473  1.00  0.00     0.102 A 
HETATM   29  N8  UNL     1     -10.296 -13.550  15.998  1.00  0.00    -0.363 N 
ATOM     30  H8  UNL     1     -10.495 -12.625  16.377  1.00  0.00     0.165 HD
BRANCH  27  31
HETATM   31  C2  UNL     1     -12.198 -16.312  14.383  1.00  0.00     0.221 C 
BRANCH  31  32
HETATM   32  N4  UNL     1     -13.251 -16.477  14.931  1.00  0.00    -0.336 NA
BRANCH  32  33
HETATM   33  N3  UNL     1     -14.376 -16.659  15.499  1.00  0.00    -0.209 N 
HETATM   34  C1  UNL     1     -15.021 -16.058  16.427  1.00  0.00     0.226 C 
HETATM   35  N1  UNL     1     -16.287 -16.527  16.839  1.00  0.00    -0.065 NA
HETATM   36  N2  UNL     1     -14.471 -14.916  17.049  1.00  0.00    -0.065 NA
ATOM     37  H3  UNL     1     -14.877 -17.467  15.130  1.00  0.00     0.204 HD
ENDBRANCH  32  33
ENDBRANCH  31  32
ENDBRANCH  27  31
ENDBRANCH   1  24
TORSDOF 5
ENDMDL
MODEL 2
REMARK VINA RESULT: -8.271596377      1.534      2.123
REMARK  5 active torsions:
REMARK  status: ('A' for Active; 'I' for Inactive)
REMARK    1  A    between atoms: N3_4  and  N4_6 
REMARK    2  A    between atoms: N4_6  and  C2_7 
REMARK    3  A    between atoms: C2_7  and  C3_8 
REMARK    4  A    between atoms: C6_11  and  C7_12 
REMARK    5  A    between atoms: N6_26  and  C19_27 
ROOT
HETATM    1  C7  UNL     1      -8.090 -13.216  16.519  1.00  0.00     0.059 A 
HETATM    2  C8  UNL     1      -7.231 -12.534  15.702  1.00  0.00     0.032 A 
HETATM    3  C9  UNL     1      -6.344 -11.652  16.255  1.00  0.00     0.005 A 
HETATM    4  C10 UNL     1      -6.346 -11.474  17.664  1.00  0.00     0.033 A 
HETATM    5  C11 UNL     1      -7.197 -12.152  18.461  1.00  0.00     0.077 A 
HETATM    6  C12 UNL     1      -7.315 -12.052  19.898  1.00  0.00     0.136 A 
HETATM    7  N5  UNL     1      -8.275 -12.818  20.523  1.00  0.00    -0.339 N 
ATOM      8  H5  UNL     1      -8.914 -13.455  20.048  1.00  0.00     0.167 HD
HETATM    9  C13 UNL     1      -8.249 -12.609  21.814  1.00  0.00     0.060 A 
HETATM   10  C14 UNL     1      -9.026 -13.147  22.849  1.00  0.00     0.032 A 
HETATM   11  C15 UNL     1      -8.759 -12.721  24.124  1.00  0.00     0.002 A 
HETATM   12  C16 UNL     1      -7.761 -11.798  24.374  1.00  0.00     0.002 A 
HETATM   13  C17 UNL     1      -7.012 -11.288  23.323  1.00  0.00     0.032 A 
HETATM   14  C18 UNL     1      -7.246 -11.689  22.028  1.00  0.00     0.063 A 
HETATM   15  N6  UNL     1      -6.664 -11.344  20.819  1.00  0.00    -0.325 N 
HETATM   16  N7  UNL     1      -8.041 -13.008  17.810  1.00  0.00    -0.351 N 
ATOM     17  H7  UNL     1      -8.697 -13.535  18.386  1.00  0.00     0.166 HD
ENDROOT
BRANCH  15  18
HETATM   18  C19 UNL     1      -5.574 -10.420  20.689  1.00  0.00     0.092 C 
HETATM   19  C20 UNL     1      -5.967  -9.121  19.990  1.00  0.00     0.026 C 
HETATM   20  C21 UNL     1      -4.946  -8.604  19.069  1.00  0.00     0.002 C 
HETATM   21  C22 UNL     1      -3.531  -8.847  19.419  1.00  0.00     0.000 C 
HETATM   22  C23 UNL     1      -3.232 -10.052  20.232  1.00  0.00     0.002 C 
HETATM   23  C24 UNL     1      -4.369 -11.058  19.994  1.00  0.00     0.026 C 
ENDBRANCH  15  18
BRANCH   1  24
HETATM   24  C6  UNL     1      -9.064 -14.175  15.991  1.00  0.00     0.059 A 
HETATM   25  C5  UNL     1     -10.383 -13.819  15.825  1.00  0.00     0.033 A 
HETATM   26  C4  UNL     1     -11.329 -14.695  15.332  1.00  0.00     0.017 A 
HETATM   27  C3  UNL     1     -10.902 -15.963  15.006  1.00  0.00     0.010 A 
HETATM   28  C25 UNL     1      -9.579 -16.307  15.177  1.00  0.00     0.102 A 
HETATM   29  N8  UNL     1      -8.683 -15.425  15.661  1.00  0.00    -0.363 N 
ATOM     30  H8  UNL     1      -7.710 -15.705  15.779  1.00  0.00     0.165 HD
BRANCH  27  31
HETATM   31  C2  UNL     1     -11.850 -16.974  14.467  1.00  0.00     0.221 C 
BRANCH  31  32
HETATM   32  N4  UNL     1     -12.692 -16.749  13.645  1.00  0.00    -0.336 NA
BRANCH  32  33
HETATM   33  N3  UNL     1     -13.592 -16.526  12.772  1.00  0.00    -0.209 N 
HETATM   34  C1  UNL     1     -13.842 -16.984  11.603  1.00  0.00     0.226 C 
HETATM   35  N1  UNL     1     -14.954 -16.514  10.873  1.00  0.00    -0.065 NA
HETATM   36  N2  UNL     1     -13.005 -17.968  11.032  1.00  0.00    -0.065 NA
ATOM     37  H3  UNL     1     -14.267 -15.822  13.073  1.00  0.00     0.204 HD
ENDBRANCH  32  33
ENDBRANCH  31  32
ENDBRANCH  27  31
ENDBRANCH   1  24
TORSDOF 5
ENDMDL
MODEL 3
REMARK VINA RESULT: -8.236756792      1.441      2.004
REMARK  5 active torsions:
REMARK  status: ('A' for Active; 'I' for Inactive)
REMARK    1  A    between atoms: N3_4  and  N4_6 
REMARK    2  A    between atoms: N4_6  and  C2_7 
REMARK    3  A    between atoms: C2_7  and  C3_8 
REMARK    4  A    between atoms: C6_11  and  C7_12 
REMARK    5  A    between atoms: N6_26  and  C19_27 
ROOT
HETATM    1  C7  UNL     1      -7.829 -12.999  16.748  1.00  0.00     0.059 A 
HETATM    2  C8  UNL     1      -6.805 -12.559  15.954  1.00  0.00     0.032 A 
HETATM    3  C9  UNL     1      -5.753 -11.900  16.528  1.00  0.00     0.005 A 
HETATM    4  C10 UNL     1      -5.760 -11.693  17.933  1.00  0.00     0.033 A 
HETATM    5  C11 UNL     1      -6.774 -12.130  18.707  1.00  0.00     0.077 A 
HETATM    6  C12 UNL     1      -6.913 -11.970  20.136  1.00  0.00     0.136 A 
HETATM    7  N5  UNL     1      -8.049 -12.471  20.736  1.00  0.00    -0.339 N 
ATOM      8  H5  UNL     1      -8.804 -12.951  20.246  1.00  0.00     0.167 HD
HETATM    9  C13 UNL     1      -8.017 -12.244  22.024  1.00  0.00     0.060 A 
HETATM   10  C14 UNL     1      -8.934 -12.557  23.036  1.00  0.00     0.032 A 
HETATM   11  C15 UNL     1      -8.617 -12.176  24.314  1.00  0.00     0.002 A 
HETATM   12  C16 UNL     1      -7.437 -11.510  24.588  1.00  0.00     0.002 A 
HETATM   13  C17 UNL     1      -6.554 -11.218  23.558  1.00  0.00     0.032 A 
HETATM   14  C18 UNL     1      -6.832 -11.583  22.262  1.00  0.00     0.063 A 
HETATM   15  N6  UNL     1      -6.145 -11.415  21.071  1.00  0.00    -0.325 N 
HETATM   16  N7  UNL     1      -7.775 -12.777  18.037  1.00  0.00    -0.351 N 
ATOM     17  H7  UNL     1      -8.556 -13.120  18.596  1.00  0.00     0.166 HD
ENDROOT
BRANCH  15  18
HETATM   18  C19 UNL     1      -4.862 -10.779  20.969  1.00  0.00     0.092 C 
HETATM   19  C20 UNL     1      -4.933  -9.375  20.375  1.00  0.00     0.026 C 
HETATM   20  C21 UNL     1      -3.830  -9.055  19.459  1.00  0.00     0.002 C 
HETATM   21  C22 UNL     1      -2.514  -9.663  19.743  1.00  0.00     0.000 C 
HETATM   22  C23 UNL     1      -2.509 -10.962  20.461  1.00  0.00     0.002 C 
HETATM   23  C24 UNL     1      -3.863 -11.638  20.192  1.00  0.00     0.026 C 
ENDBRANCH  15  18
BRANCH   1  24
HETATM   24  C6  UNL     1      -8.984 -13.712  16.199  1.00  0.00     0.059 A 
HETATM   25  C5  UNL     1      -8.823 -14.902  15.527  1.00  0.00     0.033 A 
HETATM   26  C4  UNL     1      -9.888 -15.601  14.996  1.00  0.00     0.017 A 
HETATM   27  C3  UNL     1     -11.143 -15.057  15.161  1.00  0.00     0.010 A 
HETATM   28  C25 UNL     1     -11.290 -13.865  15.834  1.00  0.00     0.102 A 
HETATM   29  N8  UNL     1     -10.227 -13.210  16.341  1.00  0.00    -0.363 N 
ATOM     30  H8  UNL     1     -10.364 -12.328  16.835  1.00  0.00     0.165 HD
BRANCH  27  31
HETATM   31  C2  UNL     1     -12.349 -15.740  14.622  1.00  0.00     0.221 C 
BRANCH  31  32
HETATM   32  N4  UNL     1     -12.339 -16.531  13.723  1.00  0.00    -0.336 NA
BRANCH  32  33
HETATM   33  N3  UNL     1     -12.343 -17.380  12.773  1.00  0.00    -0.209 N 
HETATM   34  C1  UNL     1     -13.116 -17.610  11.778  1.00  0.00     0.226 C 
HETATM   35  N1  UNL     1     -12.832 -18.659  10.879  1.00  0.00    -0.065 NA
HETATM   36  N2  UNL     1     -14.263 -16.813  11.571  1.00  0.00    -0.065 NA
ATOM     37  H3  UNL     1     -11.552 -18.021  12.814  1.00  0.00     0.204 HD
ENDBRANCH  32  33
ENDBRANCH  31  32
ENDBRANCH  27  31
ENDBRANCH   1  24
TORSDOF 5
ENDMDL
MODEL 4
REMARK VINA RESULT: -7.880694935      1.544      2.349
REMARK  5 active torsions:
REMARK  status: ('A' for Active; 'I' for Inactive)
REMARK    1  A    between atoms: N3_4  and  N4_6 
REMARK    2  A    between atoms: N4_6  and  C2_7 
REMARK    3  A    between atoms: C2_7  and  C3_8 
REMARK    4  A    between atoms: C6_11  and  C7_12 
REMARK    5  A    between atoms: N6_26  and  C19_27 
ROOT
HETATM    1  C7  UNL     1      -8.055 -13.454  16.009  1.00  0.00     0.059 A 
HETATM    2  C8  UNL     1      -7.203 -12.952  15.063  1.00  0.00     0.032 A 
HETATM    3  C9  UNL     1      -6.189 -12.122  15.454  1.00  0.00     0.005 A 
HETATM    4  C10 UNL     1      -6.055 -11.808  16.832  1.00  0.00     0.033 A 
HETATM    5  C11 UNL     1      -6.900 -12.308  17.757  1.00  0.00     0.077 A 
HETATM    6  C12 UNL     1      -6.887 -12.055  19.179  1.00  0.00     0.136 A 
HETATM    7  N5  UNL     1      -7.863 -12.647  19.951  1.00  0.00    -0.339 N 
ATOM      8  H5  UNL     1      -8.600 -13.255  19.594  1.00  0.00     0.167 HD
HETATM    9  C13 UNL     1      -7.708 -12.317  21.207  1.00  0.00     0.060 A 
HETATM   10  C14 UNL     1      -8.446 -12.662  22.347  1.00  0.00     0.032 A 
HETATM   11  C15 UNL     1      -8.031 -12.145  23.547  1.00  0.00     0.002 A 
HETATM   12  C16 UNL     1      -6.928 -11.315  23.624  1.00  0.00     0.002 A 
HETATM   13  C17 UNL     1      -6.223 -10.996  22.472  1.00  0.00     0.032 A 
HETATM   14  C18 UNL     1      -6.604 -11.494  21.248  1.00  0.00     0.063 A 
HETATM   15  N6  UNL     1      -6.093 -11.335  19.970  1.00  0.00    -0.325 N 
HETATM   16  N7  UNL     1      -7.878 -13.127  17.264  1.00  0.00    -0.351 N 
ATOM     17  H7  UNL     1      -8.532 -13.520  17.939  1.00  0.00     0.166 HD
ENDROOT
BRANCH  15  18
HETATM   18  C19 UNL     1      -4.930 -10.552  19.664  1.00  0.00     0.092 C 
HETATM   19  C20 UNL     1      -3.638 -11.364  19.680  1.00  0.00     0.026 C 
HETATM   20  C21 UNL     1      -2.491 -10.654  20.263  1.00  0.00     0.002 C 
HETATM   21  C22 UNL     1      -2.432  -9.190  20.074  1.00  0.00     0.000 C 
HETATM   22  C23 UNL     1      -3.723  -8.475  19.912  1.00  0.00     0.002 C 
HETATM   23  C24 UNL     1      -4.808  -9.334  20.582  1.00  0.00     0.026 C 
ENDBRANCH  15  18
BRANCH   1  24
HETATM   24  C6  UNL     1      -9.161 -14.349  15.659  1.00  0.00     0.059 A 
HETATM   25  C5  UNL     1     -10.458 -13.888  15.634  1.00  0.00     0.033 A 
HETATM   26  C4  UNL     1     -11.524 -14.702  15.310  1.00  0.00     0.017 A 
HETATM   27  C3  UNL     1     -11.245 -16.016  15.007  1.00  0.00     0.010 A 
HETATM   28  C25 UNL     1      -9.943 -16.464  15.036  1.00  0.00     0.102 A 
HETATM   29  N8  UNL     1      -8.926 -15.641  15.357  1.00  0.00    -0.363 N 
ATOM     30  H8  UNL     1      -7.971 -15.998  15.372  1.00  0.00     0.165 HD
BRANCH  27  31
HETATM   31  C2  UNL     1     -12.331 -16.965  14.646  1.00  0.00     0.221 C 
BRANCH  31  32
HETATM   32  N4  UNL     1     -13.139 -16.779  13.781  1.00  0.00    -0.336 NA
BRANCH  32  33
HETATM   33  N3  UNL     1     -14.006 -16.595  12.867  1.00  0.00    -0.209 N 
HETATM   34  C1  UNL     1     -14.099 -16.936  11.636  1.00  0.00     0.226 C 
HETATM   35  N1  UNL     1     -15.225 -16.563  10.873  1.00  0.00    -0.065 NA
HETATM   36  N2  UNL     1     -13.071 -17.691  11.028  1.00  0.00    -0.065 NA
ATOM     37  H3  UNL     1     -14.809 -16.054  13.187  1.00  0.00     0.204 HD
ENDBRANCH  32  33
ENDBRANCH  31  32
ENDBRANCH  27  31
ENDBRANCH   1  24
TORSDOF 5
ENDMDL
MODEL 5
REMARK VINA RESULT: -7.582543974      0.847      1.242
REMARK  5 active torsions:
REMARK  status: ('A' for Active; 'I' for Inactive)
REMARK    1  A    between atoms: N3_4  and  N4_6 
REMARK    2  A    between atoms: N4_6  and  C2_7 
REMARK    3  A    between atoms: C2_7  and  C3_8 
REMARK    4  A    between atoms: C6_11  and  C7_12 
REMARK    5  A    between atoms: N6_26  and  C19_27 
ROOT
HETATM    1  C7  UNL     1      -8.223 -13.456  15.965  1.00  0.00     0.059 A 
HETATM    2  C8  UNL     1      -7.344 -12.995  15.024  1.00  0.00     0.032 A 
HETATM    3  C9  UNL     1      -6.295 -12.212  15.420  1.00  0.00     0.005 A 
HETATM    4  C10 UNL     1      -6.155 -11.902  16.799  1.00  0.00     0.033 A 
HETATM    5  C11 UNL     1      -7.026 -12.362  17.719  1.00  0.00     0.077 A 
HETATM    6  C12 UNL     1      -7.010 -12.108  19.141  1.00  0.00     0.136 A 
HETATM    7  N5  UNL     1      -8.017 -12.654  19.908  1.00  0.00    -0.339 N 
ATOM      8  H5  UNL     1      -8.779 -13.228  19.547  1.00  0.00     0.167 HD
HETATM    9  C13 UNL     1      -7.854 -12.330  21.165  1.00  0.00     0.060 A 
HETATM   10  C14 UNL     1      -8.613 -12.641  22.301  1.00  0.00     0.032 A 
HETATM   11  C15 UNL     1      -8.182 -12.142  23.503  1.00  0.00     0.002 A 
HETATM   12  C16 UNL     1      -7.042 -11.364  23.585  1.00  0.00     0.002 A 
HETATM   13  C17 UNL     1      -6.317 -11.078  22.437  1.00  0.00     0.032 A 
HETATM   14  C18 UNL     1      -6.713 -11.559  21.211  1.00  0.00     0.063 A 
HETATM   15  N6  UNL     1      -6.189 -11.425  19.936  1.00  0.00    -0.325 N 
HETATM   16  N7  UNL     1      -8.038 -13.136  17.221  1.00  0.00    -0.351 N 
ATOM     17  H7  UNL     1      -8.714 -13.498  17.893  1.00  0.00     0.166 HD
ENDROOT
BRANCH  15  18
HETATM   18  C19 UNL     1      -4.990 -10.696  19.636  1.00  0.00     0.092 C 
HETATM   19  C20 UNL     1      -3.736 -11.567  19.660  1.00  0.00     0.026 C 
HETATM   20  C21 UNL     1      -2.561 -10.909  20.249  1.00  0.00     0.002 C 
HETATM   21  C22 UNL     1      -2.434  -9.450  20.059  1.00  0.00     0.000 C 
HETATM   22  C23 UNL     1      -3.690  -8.677  19.889  1.00  0.00     0.002 C 
HETATM   23  C24 UNL     1      -4.817  -9.485  20.553  1.00  0.00     0.026 C 
ENDBRANCH  15  18
BRANCH   1  24
HETATM   24  C6  UNL     1      -9.367 -14.299  15.610  1.00  0.00     0.059 A 
HETATM   25  C5  UNL     1      -9.183 -15.603  15.210  1.00  0.00     0.033 A 
HETATM   26  C4  UNL     1     -10.237 -16.426  14.867  1.00  0.00     0.017 A 
HETATM   27  C3  UNL     1     -11.503 -15.890  14.938  1.00  0.00     0.010 A 
HETATM   28  C25 UNL     1     -11.673 -14.584  15.340  1.00  0.00     0.102 A 
HETATM   29  N8  UNL     1     -10.621 -13.809  15.668  1.00  0.00    -0.363 N 
ATOM     30  H8  UNL     1     -10.775 -12.845  15.961  1.00  0.00     0.165 HD
BRANCH  27  31
HETATM   31  C2  UNL     1     -12.698 -16.702  14.587  1.00  0.00     0.221 C 
BRANCH  31  32
HETATM   32  N4  UNL     1     -13.815 -16.462  14.947  1.00  0.00    -0.336 NA
BRANCH  32  33
HETATM   33  N3  UNL     1     -14.997 -16.191  15.337  1.00  0.00    -0.209 N 
HETATM   34  C1  UNL     1     -15.644 -16.362  16.429  1.00  0.00     0.226 C 
HETATM   35  N1  UNL     1     -16.984 -15.936  16.541  1.00  0.00    -0.065 NA
HETATM   36  N2  UNL     1     -15.021 -16.981  17.534  1.00  0.00    -0.065 NA
ATOM     37  H3  UNL     1     -15.555 -15.735  14.615  1.00  0.00     0.204 HD
ENDBRANCH  32  33
ENDBRANCH  31  32
ENDBRANCH  27  31
ENDBRANCH   1  24
TORSDOF 5
ENDMDL
