MODEL 1
REMARK VINA RESULT: -7.916225289      0.000      0.000
REMARK  12 active torsions:
REMARK  status: ('A' for Active; 'I' for Inactive)
REMARK       I    between atoms: C2_2  and  N1_4 
REMARK    1  A    between atoms: N1_4  and  C3_6 
REMARK    2  A    between atoms: C3_6  and  C4_7 
REMARK    3  A    between atoms: C4_7  and  C5_8 
REMARK    4  A    between atoms: C5_8  and  C6_9 
REMARK    5  A    between atoms: C6_9  and  C7_10 
REMARK       I    between atoms: C7_10  and  N2_12 
REMARK    6  A    between atoms: N2_12  and  C9_14 
REMARK    7  A    between atoms: C9_14  and  C10_15 
REMARK    8  A    between atoms: C10_15  and  N3_17 
REMARK    9  A    between atoms: C15_21  and  C16_22 
REMARK   10  A    between atoms: C16_22  and  N4_23 
REMARK       I    between atoms: N4_23  and  C17_25 
REMARK       I    between atoms: C17_25  and  N5_27 
REMARK   11  A    between atoms: N5_27  and  C18_29 
REMARK   12  A    between atoms: C24_36  and  C26_38 
ROOT
HETATM    1  N3  UNL     1      31.958  17.010  17.457  1.00  0.00    -0.262 N 
HETATM    2  C12 UNL     1      31.335  15.745  17.078  1.00  0.00     0.147 C 
HETATM    3  C13 UNL     1      29.917  15.627  17.471  1.00  0.00     0.009 C 
HETATM    4  C14 UNL     1      29.790  16.035  18.928  1.00  0.00     0.012 C 
HETATM    5  C15 UNL     1      28.889  16.136  16.562  1.00  0.00     0.038 C 
HETATM    6  C24 UNL     1      29.033  17.449  15.922  1.00  0.00     0.058 C 
HETATM    7  C25 UNL     1      28.445  18.598  16.715  1.00  0.00     0.041 C 
HETATM    8  N6  UNL     1      30.311  17.813  15.444  1.00  0.00    -0.287 N 
HETATM    9  C27 UNL     1      30.772  17.230  14.261  1.00  0.00     0.165 C 
HETATM   10  S1  UNL     1      31.487  18.305  16.565  1.00  0.00     0.323 S 
HETATM   11  O4  UNL     1      32.489  19.145  15.854  1.00  0.00    -0.182 OA
HETATM   12  O5  UNL     1      30.837  19.328  17.549  1.00  0.00    -0.182 OA
ENDROOT
BRANCH   1  13
HETATM   13  C10 UNL     1      33.266  16.823  17.978  1.00  0.00     0.035 C 
HETATM   14  C11 UNL     1      33.793  15.499  17.609  1.00  0.00     0.070 C 
BRANCH  13  15
HETATM   15  C9  UNL     1      33.714  17.462  19.221  1.00  0.00     0.118 C 
BRANCH  15  16
HETATM   16  N2  UNL     1      34.244  16.830  20.345  1.00  0.00    -0.331 N 
HETATM   17  C7  UNL     1      33.489  16.256  21.371  1.00  0.00     0.223 C 
HETATM   18  O2  UNL     1      34.117  15.627  22.290  1.00  0.00    -0.273 OA
HETATM   19  C8  UNL     1      35.703  16.633  20.448  1.00  0.00     0.158 C 
BRANCH  17  20
HETATM   20  C6  UNL     1      32.024  16.275  21.545  1.00  0.00     0.103 C 
BRANCH  20  21
HETATM   21  C5  UNL     1      31.502  15.049  22.259  1.00  0.00     0.011 C 
BRANCH  21  22
HETATM   22  C4  UNL     1      30.300  15.304  23.104  1.00  0.00     0.020 C 
BRANCH  22  23
HETATM   23  C3  UNL     1      29.242  14.238  22.947  1.00  0.00     0.122 C 
BRANCH  23  24
HETATM   24  N1  UNL     1      29.393  13.424  21.787  1.00  0.00    -0.361 N 
HETATM   25  C2  UNL     1      29.387  12.014  21.910  1.00  0.00     0.213 C 
HETATM   26  C1  UNL     1      29.540  11.126  20.729  1.00  0.00     0.117 C 
HETATM   27  O1  UNL     1      29.242  11.520  23.073  1.00  0.00    -0.274 OA
ATOM     28  H1  UNL     1      29.506  13.857  20.871  1.00  0.00     0.162 HD
ENDBRANCH  23  24
ENDBRANCH  22  23
ENDBRANCH  21  22
ENDBRANCH  20  21
ENDBRANCH  17  20
ENDBRANCH  15  16
ENDBRANCH  13  15
ENDBRANCH   1  13
BRANCH   5  29
HETATM   29  C16 UNL     1      27.541  16.077  17.248  1.00  0.00     0.132 C 
BRANCH  29  30
HETATM   30  N4  UNL     1      26.836  14.857  16.951  1.00  0.00    -0.342 N 
HETATM   31  C17 UNL     1      26.384  14.049  18.050  1.00  0.00     0.320 C 
HETATM   32  O3  UNL     1      26.657  14.499  19.185  1.00  0.00    -0.247 OA
HETATM   33  N5  UNL     1      25.687  12.848  17.823  1.00  0.00    -0.309 N 
ATOM     34  H5  UNL     1      25.541  12.603  16.844  1.00  0.00     0.170 HD
ATOM     35  H4  UNL     1      26.663  14.573  15.986  1.00  0.00     0.164 HD
BRANCH  33  36
HETATM   36  C18 UNL     1      25.165  11.941  18.760  1.00  0.00     0.036 A 
HETATM   37  C19 UNL     1      25.913  11.077  19.518  1.00  0.00     0.032 A 
HETATM   38  C20 UNL     1      25.343  10.193  20.448  1.00  0.00     0.044 A 
HETATM   39  C21 UNL     1      23.985  10.166  20.631  1.00  0.00     0.116 A 
HETATM   40  F1  UNL     1      23.448   9.297  21.540  1.00  0.00    -0.206 F 
HETATM   41  C22 UNL     1      23.213  11.014  19.889  1.00  0.00     0.044 A 
HETATM   42  C23 UNL     1      23.776  11.876  18.983  1.00  0.00     0.032 A 
ENDBRANCH  33  36
ENDBRANCH  29  30
ENDBRANCH   5  29
BRANCH   6  43
HETATM   43  C26 UNL     1      28.155  17.444  14.642  1.00  0.00     0.146 C 
HETATM   44 CL1  UNL     1      27.741  19.173  14.370  1.00  0.00    -0.128 Cl
ENDBRANCH   6  43
TORSDOF 12
ENDMDL
MODEL 2
REMARK VINA RESULT: -7.906492102      5.580      7.884
REMARK  12 active torsions:
REMARK  status: ('A' for Active; 'I' for Inactive)
REMARK       I    between atoms: C2_2  and  N1_4 
REMARK    1  A    between atoms: N1_4  and  C3_6 
REMARK    2  A    between atoms: C3_6  and  C4_7 
REMARK    3  A    between atoms: C4_7  and  C5_8 
REMARK    4  A    between atoms: C5_8  and  C6_9 
REMARK    5  A    between atoms: C6_9  and  C7_10 
REMARK       I    between atoms: C7_10  and  N2_12 
REMARK    6  A    between atoms: N2_12  and  C9_14 
REMARK    7  A    between atoms: C9_14  and  C10_15 
REMARK    8  A    between atoms: C10_15  and  N3_17 
REMARK    9  A    between atoms: C15_21  and  C16_22 
REMARK   10  A    between atoms: C16_22  and  N4_23 
REMARK       I    between atoms: N4_23  and  C17_25 
REMARK       I    between atoms: C17_25  and  N5_27 
REMARK   11  A    between atoms: N5_27  and  C18_29 
REMARK   12  A    between atoms: C24_36  and  C26_38 
ROOT
HETATM    1  N3  UNL     1      26.906  13.414  19.943  1.00  0.00    -0.262 N 
HETATM    2  C12 UNL     1      27.004  12.918  21.313  1.00  0.00     0.147 C 
HETATM    3  C13 UNL     1      25.739  12.981  22.072  1.00  0.00     0.009 C 
HETATM    4  C14 UNL     1      25.145  14.368  21.894  1.00  0.00     0.012 C 
HETATM    5  C15 UNL     1      24.805  11.859  21.981  1.00  0.00     0.038 C 
HETATM    6  C24 UNL     1      24.480  11.253  20.684  1.00  0.00     0.058 C 
HETATM    7  C25 UNL     1      23.292  11.880  19.983  1.00  0.00     0.041 C 
HETATM    8  N6  UNL     1      25.531  11.073  19.758  1.00  0.00    -0.287 N 
HETATM    9  C27 UNL     1      26.437  10.030  19.972  1.00  0.00     0.165 C 
HETATM   10  S1  UNL     1      26.105  12.424  18.907  1.00  0.00     0.323 S 
HETATM   11  O4  UNL     1      26.752  11.949  17.655  1.00  0.00    -0.182 OA
HETATM   12  O5  UNL     1      24.880  13.225  18.364  1.00  0.00    -0.182 OA
ENDROOT
BRANCH   1  13
HETATM   13  C10 UNL     1      28.021  14.219  19.589  1.00  0.00     0.035 C 
HETATM   14  C11 UNL     1      27.838  14.813  18.255  1.00  0.00     0.070 C 
BRANCH  13  15
HETATM   15  C9  UNL     1      29.377  13.942  20.080  1.00  0.00     0.118 C 
BRANCH  15  16
HETATM   16  N2  UNL     1      30.290  14.865  20.586  1.00  0.00    -0.331 N 
HETATM   17  C7  UNL     1      30.540  15.081  21.944  1.00  0.00     0.223 C 
HETATM   18  O2  UNL     1      31.477  15.895  22.254  1.00  0.00    -0.273 OA
HETATM   19  C8  UNL     1      31.159  15.614  19.657  1.00  0.00     0.158 C 
BRANCH  17  20
HETATM   20  C6  UNL     1      29.852  14.484  23.105  1.00  0.00     0.103 C 
BRANCH  20  21
HETATM   21  C5  UNL     1      28.732  15.349  23.633  1.00  0.00     0.011 C 
BRANCH  21  22
HETATM   22  C4  UNL     1      28.166  14.885  24.933  1.00  0.00     0.020 C 
BRANCH  22  23
HETATM   23  C3  UNL     1      26.689  15.175  25.060  1.00  0.00     0.122 C 
BRANCH  23  24
HETATM   24  N1  UNL     1      26.346  16.551  24.932  1.00  0.00    -0.361 N 
HETATM   25  C2  UNL     1      25.286  17.088  25.701  1.00  0.00     0.213 C 
HETATM   26  C1  UNL     1      24.893  18.517  25.602  1.00  0.00     0.117 C 
HETATM   27  O1  UNL     1      24.671  16.305  26.494  1.00  0.00    -0.274 OA
ATOM     28  H1  UNL     1      26.863  17.149  24.287  1.00  0.00     0.162 HD
ENDBRANCH  23  24
ENDBRANCH  22  23
ENDBRANCH  21  22
ENDBRANCH  20  21
ENDBRANCH  17  20
ENDBRANCH  15  16
ENDBRANCH  13  15
ENDBRANCH   1  13
BRANCH   5  29
HETATM   29  C16 UNL     1      23.515  12.222  22.683  1.00  0.00     0.132 C 
BRANCH  29  30
HETATM   30  N4  UNL     1      23.497  11.770  24.050  1.00  0.00    -0.342 N 
HETATM   31  C17 UNL     1      22.410  12.193  24.891  1.00  0.00     0.320 C 
HETATM   32  O3  UNL     1      21.568  12.932  24.336  1.00  0.00    -0.247 OA
HETATM   33  N5  UNL     1      22.336  11.781  26.234  1.00  0.00    -0.309 N 
ATOM     34  H5  UNL     1      23.098  11.183  26.553  1.00  0.00     0.170 HD
ATOM     35  H4  UNL     1      24.236  11.167  24.412  1.00  0.00     0.164 HD
BRANCH  33  36
HETATM   36  C18 UNL     1      21.358  12.080  27.196  1.00  0.00     0.036 A 
HETATM   37  C19 UNL     1      20.063  11.631  27.165  1.00  0.00     0.032 A 
HETATM   38  C20 UNL     1      19.122  11.953  28.157  1.00  0.00     0.044 A 
HETATM   39  C21 UNL     1      19.480  12.747  29.215  1.00  0.00     0.116 A 
HETATM   40  F1  UNL     1      18.550  13.051  30.170  1.00  0.00    -0.206 F 
HETATM   41  C22 UNL     1      20.764  13.211  29.273  1.00  0.00     0.044 A 
HETATM   42  C23 UNL     1      21.677  12.892  28.301  1.00  0.00     0.032 A 
ENDBRANCH  33  36
ENDBRANCH  29  30
ENDBRANCH   5  29
BRANCH   6  43
HETATM   43  C26 UNL     1      23.982   9.808  20.954  1.00  0.00     0.146 C 
HETATM   44 CL1  UNL     1      22.462   9.667  20.003  1.00  0.00    -0.128 Cl
ENDBRANCH   6  43
TORSDOF 12
ENDMDL
MODEL 3
REMARK VINA RESULT: -7.894899860      4.729      6.900
REMARK  12 active torsions:
REMARK  status: ('A' for Active; 'I' for Inactive)
REMARK       I    between atoms: C2_2  and  N1_4 
REMARK    1  A    between atoms: N1_4  and  C3_6 
REMARK    2  A    between atoms: C3_6  and  C4_7 
REMARK    3  A    between atoms: C4_7  and  C5_8 
REMARK    4  A    between atoms: C5_8  and  C6_9 
REMARK    5  A    between atoms: C6_9  and  C7_10 
REMARK       I    between atoms: C7_10  and  N2_12 
REMARK    6  A    between atoms: N2_12  and  C9_14 
REMARK    7  A    between atoms: C9_14  and  C10_15 
REMARK    8  A    between atoms: C10_15  and  N3_17 
REMARK    9  A    between atoms: C15_21  and  C16_22 
REMARK   10  A    between atoms: C16_22  and  N4_23 
REMARK       I    between atoms: N4_23  and  C17_25 
REMARK       I    between atoms: C17_25  and  N5_27 
REMARK   11  A    between atoms: N5_27  and  C18_29 
REMARK   12  A    between atoms: C24_36  and  C26_38 
ROOT
HETATM    1  N3  UNL     1      28.389  13.885  22.180  1.00  0.00    -0.262 N 
HETATM    2  C12 UNL     1      27.598  12.954  22.981  1.00  0.00     0.147 C 
HETATM    3  C13 UNL     1      26.153  12.971  22.679  1.00  0.00     0.009 C 
HETATM    4  C14 UNL     1      25.686  14.416  22.662  1.00  0.00     0.012 C 
HETATM    5  C15 UNL     1      25.647  12.113  21.607  1.00  0.00     0.038 C 
HETATM    6  C24 UNL     1      26.340  12.033  20.315  1.00  0.00     0.058 C 
HETATM    7  C25 UNL     1      25.866  13.045  19.291  1.00  0.00     0.041 C 
HETATM    8  N6  UNL     1      27.751  11.999  20.324  1.00  0.00    -0.287 N 
HETATM    9  C27 UNL     1      28.387  10.810  20.692  1.00  0.00     0.165 C 
HETATM   10  S1  UNL     1      28.597  13.442  20.614  1.00  0.00     0.323 S 
HETATM   11  O4  UNL     1      29.962  13.309  20.036  1.00  0.00    -0.182 OA
HETATM   12  O5  UNL     1      27.973  14.568  19.731  1.00  0.00    -0.182 OA
ENDROOT
BRANCH   1  13
HETATM   13  C10 UNL     1      29.359  14.566  22.962  1.00  0.00     0.035 C 
HETATM   14  C11 UNL     1      29.095  14.389  24.399  1.00  0.00     0.070 C 
BRANCH  13  15
HETATM   15  C9  UNL     1      30.031  15.784  22.492  1.00  0.00     0.118 C 
BRANCH  15  16
HETATM   16  N2  UNL     1      31.405  16.005  22.413  1.00  0.00    -0.331 N 
HETATM   17  C7  UNL     1      32.242  16.246  23.506  1.00  0.00     0.223 C 
HETATM   18  O2  UNL     1      33.498  16.336  23.285  1.00  0.00    -0.273 OA
HETATM   19  C8  UNL     1      32.089  15.878  21.111  1.00  0.00     0.158 C 
BRANCH  17  20
HETATM   20  C6  UNL     1      31.865  16.416  24.923  1.00  0.00     0.103 C 
BRANCH  20  21
HETATM   21  C5  UNL     1      31.251  17.767  25.209  1.00  0.00     0.011 C 
BRANCH  21  22
HETATM   22  C4  UNL     1      29.950  17.700  25.936  1.00  0.00     0.020 C 
BRANCH  22  23
HETATM   23  C3  UNL     1      28.821  18.345  25.167  1.00  0.00     0.122 C 
BRANCH  23  24
HETATM   24  N1  UNL     1      27.686  17.506  24.974  1.00  0.00    -0.361 N 
HETATM   25  C2  UNL     1      26.625  17.528  25.911  1.00  0.00     0.213 C 
HETATM   26  C1  UNL     1      25.422  16.673  25.751  1.00  0.00     0.117 C 
HETATM   27  O1  UNL     1      26.730  18.313  26.908  1.00  0.00    -0.274 OA
ATOM     28  H1  UNL     1      27.637  16.891  24.162  1.00  0.00     0.162 HD
ENDBRANCH  23  24
ENDBRANCH  22  23
ENDBRANCH  21  22
ENDBRANCH  20  21
ENDBRANCH  17  20
ENDBRANCH  15  16
ENDBRANCH  13  15
ENDBRANCH   1  13
BRANCH   5  29
HETATM   29  C16 UNL     1      24.189  12.431  21.357  1.00  0.00     0.132 C 
BRANCH  29  30
HETATM   30  N4  UNL     1      23.311  11.493  22.008  1.00  0.00    -0.342 N 
HETATM   31  C17 UNL     1      22.495  11.967  23.092  1.00  0.00     0.320 C 
HETATM   32  O3  UNL     1      22.635  13.179  23.369  1.00  0.00    -0.247 OA
HETATM   33  N5  UNL     1      21.615  11.100  23.764  1.00  0.00    -0.309 N 
ATOM     34  H5  UNL     1      21.611  10.135  23.433  1.00  0.00     0.170 HD
ATOM     35  H4  UNL     1      23.270  10.519  21.708  1.00  0.00     0.164 HD
BRANCH  33  36
HETATM   36  C18 UNL     1      20.742  11.379  24.828  1.00  0.00     0.036 A 
HETATM   37  C19 UNL     1      19.408  11.667  24.695  1.00  0.00     0.032 A 
HETATM   38  C20 UNL     1      18.574  11.932  25.793  1.00  0.00     0.044 A 
HETATM   39  C21 UNL     1      19.082  11.911  27.066  1.00  0.00     0.116 A 
HETATM   40  F1  UNL     1      18.255  12.173  28.122  1.00  0.00    -0.206 F 
HETATM   41  C22 UNL     1      20.408  11.628  27.231  1.00  0.00     0.044 A 
HETATM   42  C23 UNL     1      21.217  11.370  26.154  1.00  0.00     0.032 A 
ENDBRANCH  33  36
ENDBRANCH  29  30
ENDBRANCH   5  29
BRANCH   6  43
HETATM   43  C26 UNL     1      25.947  10.685  19.656  1.00  0.00     0.146 C 
HETATM   44 CL1  UNL     1      25.121  11.150  18.127  1.00  0.00    -0.128 Cl
ENDBRANCH   6  43
TORSDOF 12
ENDMDL
MODEL 4
REMARK VINA RESULT: -7.884363184      5.599      7.955
REMARK  12 active torsions:
REMARK  status: ('A' for Active; 'I' for Inactive)
REMARK       I    between atoms: C2_2  and  N1_4 
REMARK    1  A    between atoms: N1_4  and  C3_6 
REMARK    2  A    between atoms: C3_6  and  C4_7 
REMARK    3  A    between atoms: C4_7  and  C5_8 
REMARK    4  A    between atoms: C5_8  and  C6_9 
REMARK    5  A    between atoms: C6_9  and  C7_10 
REMARK       I    between atoms: C7_10  and  N2_12 
REMARK    6  A    between atoms: N2_12  and  C9_14 
REMARK    7  A    between atoms: C9_14  and  C10_15 
REMARK    8  A    between atoms: C10_15  and  N3_17 
REMARK    9  A    between atoms: C15_21  and  C16_22 
REMARK   10  A    between atoms: C16_22  and  N4_23 
REMARK       I    between atoms: N4_23  and  C17_25 
REMARK       I    between atoms: C17_25  and  N5_27 
REMARK   11  A    between atoms: N5_27  and  C18_29 
REMARK   12  A    between atoms: C24_36  and  C26_38 
ROOT
HETATM    1  N3  UNL     1      27.071  13.410  20.242  1.00  0.00    -0.262 N 
HETATM    2  C12 UNL     1      27.079  12.832  21.583  1.00  0.00     0.147 C 
HETATM    3  C13 UNL     1      25.780  12.900  22.281  1.00  0.00     0.009 C 
HETATM    4  C14 UNL     1      25.246  14.316  22.156  1.00  0.00     0.012 C 
HETATM    5  C15 UNL     1      24.813  11.821  22.077  1.00  0.00     0.038 C 
HETATM    6  C24 UNL     1      24.534  11.304  20.732  1.00  0.00     0.058 C 
HETATM    7  C25 UNL     1      23.407  12.016  20.011  1.00  0.00     0.041 C 
HETATM    8  N6  UNL     1      25.624  11.138  19.850  1.00  0.00    -0.287 N 
HETATM    9  C27 UNL     1      26.481  10.051  20.046  1.00  0.00     0.165 C 
HETATM   10  S1  UNL     1      26.289  12.513  19.110  1.00  0.00     0.323 S 
HETATM   11  O4  UNL     1      26.983  12.087  17.865  1.00  0.00    -0.182 OA
HETATM   12  O5  UNL     1      25.123  13.391  18.556  1.00  0.00    -0.182 OA
ENDROOT
BRANCH   1  13
HETATM   13  C10 UNL     1      28.230  14.191  19.992  1.00  0.00     0.035 C 
HETATM   14  C11 UNL     1      28.246  14.678  18.603  1.00  0.00     0.070 C 
BRANCH  13  15
HETATM   15  C9  UNL     1      29.498  13.959  20.695  1.00  0.00     0.118 C 
BRANCH  15  16
HETATM   16  N2  UNL     1      30.232  14.890  21.428  1.00  0.00    -0.331 N 
HETATM   17  C7  UNL     1      30.131  15.080  22.809  1.00  0.00     0.223 C 
HETATM   18  O2  UNL     1      30.939  15.906  23.356  1.00  0.00    -0.273 OA
HETATM   19  C8  UNL     1      31.284  15.679  20.757  1.00  0.00     0.158 C 
BRANCH  17  20
HETATM   20  C6  UNL     1      29.192  14.441  23.751  1.00  0.00     0.103 C 
BRANCH  20  21
HETATM   21  C5  UNL     1      28.084  15.368  24.194  1.00  0.00     0.011 C 
BRANCH  21  22
HETATM   22  C4  UNL     1      27.860  15.385  25.669  1.00  0.00     0.020 C 
BRANCH  22  23
HETATM   23  C3  UNL     1      29.096  15.786  26.439  1.00  0.00     0.122 C 
BRANCH  23  24
HETATM   24  N1  UNL     1      29.584  17.089  26.132  1.00  0.00    -0.361 N 
HETATM   25  C2  UNL     1      29.200  18.192  26.931  1.00  0.00     0.213 C 
HETATM   26  C1  UNL     1      29.684  19.568  26.650  1.00  0.00     0.117 C 
HETATM   27  O1  UNL     1      28.419  17.972  27.913  1.00  0.00    -0.274 OA
ATOM     28  H1  UNL     1      30.209  17.226  25.338  1.00  0.00     0.162 HD
ENDBRANCH  23  24
ENDBRANCH  22  23
ENDBRANCH  21  22
ENDBRANCH  20  21
ENDBRANCH  17  20
ENDBRANCH  15  16
ENDBRANCH  13  15
ENDBRANCH   1  13
BRANCH   5  29
HETATM   29  C16 UNL     1      23.502  12.193  22.734  1.00  0.00     0.132 C 
BRANCH  29  30
HETATM   30  N4  UNL     1      23.387  11.643  24.060  1.00  0.00    -0.342 N 
HETATM   31  C17 UNL     1      22.351  12.149  24.919  1.00  0.00     0.320 C 
HETATM   32  O3  UNL     1      21.636  13.043  24.414  1.00  0.00    -0.247 OA
HETATM   33  N5  UNL     1      22.187  11.648  26.222  1.00  0.00    -0.309 N 
ATOM     34  H5  UNL     1      22.848  10.924  26.501  1.00  0.00     0.170 HD
ATOM     35  H4  UNL     1      24.023  10.913  24.381  1.00  0.00     0.164 HD
BRANCH  33  36
HETATM   36  C18 UNL     1      21.237  12.009  27.193  1.00  0.00     0.036 A 
HETATM   37  C19 UNL     1      19.923  11.616  27.190  1.00  0.00     0.032 A 
HETATM   38  C20 UNL     1      19.014  11.997  28.190  1.00  0.00     0.044 A 
HETATM   39  C21 UNL     1      19.423  12.796  29.226  1.00  0.00     0.116 A 
HETATM   40  F1  UNL     1      18.522  13.158  30.189  1.00  0.00    -0.206 F 
HETATM   41  C22 UNL     1      20.726  13.204  29.255  1.00  0.00     0.044 A 
HETATM   42  C23 UNL     1      21.609  12.827  28.276  1.00  0.00     0.032 A 
ENDBRANCH  33  36
ENDBRANCH  29  30
ENDBRANCH   5  29
BRANCH   6  43
HETATM   43  C26 UNL     1      23.972   9.867  20.890  1.00  0.00     0.146 C 
HETATM   44 CL1  UNL     1      22.480   9.849  19.885  1.00  0.00    -0.128 Cl
ENDBRANCH   6  43
TORSDOF 12
ENDMDL
MODEL 5
REMARK VINA RESULT: -7.783464716      5.430      7.718
REMARK  12 active torsions:
REMARK  status: ('A' for Active; 'I' for Inactive)
REMARK       I    between atoms: C2_2  and  N1_4 
REMARK    1  A    between atoms: N1_4  and  C3_6 
REMARK    2  A    between atoms: C3_6  and  C4_7 
REMARK    3  A    between atoms: C4_7  and  C5_8 
REMARK    4  A    between atoms: C5_8  and  C6_9 
REMARK    5  A    between atoms: C6_9  and  C7_10 
REMARK       I    between atoms: C7_10  and  N2_12 
REMARK    6  A    between atoms: N2_12  and  C9_14 
REMARK    7  A    between atoms: C9_14  and  C10_15 
REMARK    8  A    between atoms: C10_15  and  N3_17 
REMARK    9  A    between atoms: C15_21  and  C16_22 
REMARK   10  A    between atoms: C16_22  and  N4_23 
REMARK       I    between atoms: N4_23  and  C17_25 
REMARK       I    between atoms: C17_25  and  N5_27 
REMARK   11  A    between atoms: N5_27  and  C18_29 
REMARK   12  A    between atoms: C24_36  and  C26_38 
ROOT
HETATM    1  N3  UNL     1      26.880  13.426  19.893  1.00  0.00    -0.262 N 
HETATM    2  C12 UNL     1      27.004  12.953  21.269  1.00  0.00     0.147 C 
HETATM    3  C13 UNL     1      25.755  13.034  22.053  1.00  0.00     0.009 C 
HETATM    4  C14 UNL     1      25.162  14.419  21.863  1.00  0.00     0.012 C 
HETATM    5  C15 UNL     1      24.816  11.913  22.000  1.00  0.00     0.038 C 
HETATM    6  C24 UNL     1      24.463  11.286  20.722  1.00  0.00     0.058 C 
HETATM    7  C25 UNL     1      23.262  11.905  20.034  1.00  0.00     0.041 C 
HETATM    8  N6  UNL     1      25.493  11.086  19.777  1.00  0.00    -0.287 N 
HETATM    9  C27 UNL     1      26.401  10.045  19.990  1.00  0.00     0.165 C 
HETATM   10  S1  UNL     1      26.054  12.421  18.891  1.00  0.00     0.323 S 
HETATM   11  O4  UNL     1      26.673  11.922  17.634  1.00  0.00    -0.182 OA
HETATM   12  O5  UNL     1      24.820  13.216  18.359  1.00  0.00    -0.182 OA
ENDROOT
BRANCH   1  13
HETATM   13  C10 UNL     1      27.989  14.220  19.502  1.00  0.00     0.035 C 
HETATM   14  C11 UNL     1      27.766  14.818  18.175  1.00  0.00     0.070 C 
BRANCH  13  15
HETATM   15  C9  UNL     1      29.358  13.930  19.946  1.00  0.00     0.118 C 
BRANCH  15  16
HETATM   16  N2  UNL     1      30.306  14.847  20.396  1.00  0.00    -0.331 N 
HETATM   17  C7  UNL     1      30.609  15.091  21.738  1.00  0.00     0.223 C 
HETATM   18  O2  UNL     1      31.571  15.894  21.994  1.00  0.00    -0.273 OA
HETATM   19  C8  UNL     1      31.153  15.557  19.418  1.00  0.00     0.158 C 
BRANCH  17  20
HETATM   20  C6  UNL     1      29.953  14.535  22.937  1.00  0.00     0.103 C 
BRANCH  20  21
HETATM   21  C5  UNL     1      30.335  15.262  24.206  1.00  0.00     0.011 C 
BRANCH  21  22
HETATM   22  C4  UNL     1      29.348  15.109  25.314  1.00  0.00     0.020 C 
BRANCH  22  23
HETATM   23  C3  UNL     1      27.967  14.755  24.816  1.00  0.00     0.122 C 
BRANCH  23  24
HETATM   24  N1  UNL     1      26.969  15.730  25.106  1.00  0.00    -0.361 N 
HETATM   25  C2  UNL     1      25.644  15.320  25.388  1.00  0.00     0.213 C 
HETATM   26  C1  UNL     1      24.571  16.299  25.697  1.00  0.00     0.117 C 
HETATM   27  O1  UNL     1      25.392  14.072  25.373  1.00  0.00    -0.274 OA
ATOM     28  H1  UNL     1      27.209  16.721  25.111  1.00  0.00     0.162 HD
ENDBRANCH  23  24
ENDBRANCH  22  23
ENDBRANCH  21  22
ENDBRANCH  20  21
ENDBRANCH  17  20
ENDBRANCH  15  16
ENDBRANCH  13  15
ENDBRANCH   1  13
BRANCH   5  29
HETATM   29  C16 UNL     1      23.542  12.293  22.723  1.00  0.00     0.132 C 
BRANCH  29  30
HETATM   30  N4  UNL     1      23.546  11.854  24.094  1.00  0.00    -0.342 N 
HETATM   31  C17 UNL     1      22.444  12.238  24.934  1.00  0.00     0.320 C 
HETATM   32  O3  UNL     1      21.570  12.936  24.373  1.00  0.00    -0.247 OA
HETATM   33  N5  UNL     1      22.390  11.836  26.280  1.00  0.00    -0.309 N 
ATOM     34  H5  UNL     1      23.178  11.274  26.603  1.00  0.00     0.170 HD
ATOM     35  H4  UNL     1      24.310  11.286  24.460  1.00  0.00     0.164 HD
BRANCH  33  36
HETATM   36  C18 UNL     1      21.402  12.103  27.242  1.00  0.00     0.036 A 
HETATM   37  C19 UNL     1      21.593  12.844  28.380  1.00  0.00     0.032 A 
HETATM   38  C20 UNL     1      20.568  13.089  29.309  1.00  0.00     0.044 A 
HETATM   39  C21 UNL     1      19.312  12.583  29.099  1.00  0.00     0.116 A 
HETATM   40  F1  UNL     1      18.328  12.830  30.015  1.00  0.00    -0.206 F 
HETATM   41  C22 UNL     1      19.091  11.840  27.974  1.00  0.00     0.044 A 
HETATM   42  C23 UNL     1      20.096  11.605  27.072  1.00  0.00     0.032 A 
ENDBRANCH  33  36
ENDBRANCH  29  30
ENDBRANCH   5  29
BRANCH   6  43
HETATM   43  C26 UNL     1      23.966   9.848  21.027  1.00  0.00     0.146 C 
HETATM   44 CL1  UNL     1      22.438   9.688  20.092  1.00  0.00    -0.128 Cl
ENDBRANCH   6  43
TORSDOF 12
ENDMDL
