MODEL 1
REMARK VINA RESULT: -7.403240731      0.000      0.000
REMARK  13 active torsions:
REMARK  status: ('A' for Active; 'I' for Inactive)
REMARK    1  A    between atoms: N1_2  and  C2_5 
REMARK    2  A    between atoms: C2_5  and  C4_7 
REMARK       I    between atoms: C4_7  and  N2_9 
REMARK    3  A    between atoms: N2_9  and  C5_11 
REMARK    4  A    between atoms: C5_11  and  C6_12 
REMARK    5  A    between atoms: C5_11  and  C10_17 
REMARK    6  A    between atoms: C6_12  and  C7_13 
REMARK    7  A    between atoms: C8_14  and  C9_15 
REMARK       I    between atoms: C10_17  and  N3_19 
REMARK    8  A    between atoms: N3_19  and  C11_21 
REMARK    9  A    between atoms: C11_21  and  C12_22 
REMARK   10  A    between atoms: C11_21  and  C15_26 
REMARK   11  A    between atoms: C12_22  and  C13_23 
REMARK   12  A    between atoms: C13_23  and  S1_24 
REMARK       I    between atoms: C15_26  and  N4_28 
REMARK   13  A    between atoms: C19_33  and  O4_34 
ROOT
HETATM    1  C10 UNL     1      26.598  13.325  22.969  1.00  0.00     0.242 C 
HETATM    2  O2  UNL     1      26.873  13.402  24.195  1.00  0.00    -0.271 OA
HETATM    3  N3  UNL     1      27.679  13.372  22.058  1.00  0.00    -0.346 N 
ATOM      4  H3  UNL     1      27.497  13.313  21.056  1.00  0.00     0.163 HD
ENDROOT
BRANCH   3   5
HETATM    5  C11 UNL     1      29.064  13.505  22.542  1.00  0.00     0.177 C 
BRANCH   5   6
HETATM    6  C12 UNL     1      29.908  12.496  21.832  1.00  0.00     0.045 C 
BRANCH   6   7
HETATM    7  C13 UNL     1      29.011  11.789  20.801  1.00  0.00     0.076 C 
BRANCH   7   8
HETATM    8  S1  UNL     1      28.854  10.041  21.164  1.00  0.00    -0.173 SA
HETATM    9  C14 UNL     1      29.585   9.625  22.758  1.00  0.00     0.089 C 
ENDBRANCH   7   8
ENDBRANCH   6   7
ENDBRANCH   5   6
BRANCH   5  10
HETATM   10  C15 UNL     1      29.512  14.916  22.370  1.00  0.00     0.242 C 
HETATM   11  O3  UNL     1      29.585  15.364  21.158  1.00  0.00    -0.271 OA
HETATM   12  N4  UNL     1      29.861  15.816  23.380  1.00  0.00    -0.346 N 
HETATM   13  C16 UNL     1      29.719  15.282  24.709  1.00  0.00     0.154 C 
HETATM   14  C25 UNL     1      30.285  17.089  22.886  1.00  0.00     0.135 C 
HETATM   15  C17 UNL     1      29.136  16.313  25.644  1.00  0.00     0.010 C 
HETATM   16  C18 UNL     1      29.478  17.534  25.954  1.00  0.00     0.015 C 
HETATM   17 BR1  UNL     1      28.311  18.338  27.234  1.00  0.00    -0.053 Br
HETATM   18  C19 UNL     1      30.553  18.462  25.558  1.00  0.00     0.161 C 
HETATM   19  C21 UNL     1      31.708  17.767  24.881  1.00  0.00     0.047 C 
HETATM   20  C22 UNL     1      31.574  17.620  23.416  1.00  0.00    -0.029 C 
HETATM   21  C23 UNL     1      31.686  19.046  22.841  1.00  0.00     0.016 C 
HETATM   22  C24 UNL     1      32.785  16.895  22.876  1.00  0.00     0.016 C 
BRANCH  18  23
HETATM   23  O4  UNL     1      31.072  18.988  26.765  1.00  0.00    -0.386 OA
HETATM   24  C20 UNL     1      31.869  20.084  26.515  1.00  0.00     0.202 C 
ENDBRANCH  18  23
ENDBRANCH   5  10
ENDBRANCH   3   5
BRANCH   1  25
HETATM   25  C5  UNL     1      25.194  13.192  22.538  1.00  0.00     0.187 C 
BRANCH  25  26
HETATM   26  N2  UNL     1      24.438  12.578  23.608  1.00  0.00    -0.345 N 
HETATM   27  C4  UNL     1      23.086  12.916  23.835  1.00  0.00     0.248 C 
HETATM   28  O1  UNL     1      22.552  13.774  23.073  1.00  0.00    -0.271 OA
ATOM     29  H2  UNL     1      24.889  11.889  24.209  1.00  0.00     0.163 HD
BRANCH  27  30
HETATM   30  C2  UNL     1      22.340  12.275  24.933  1.00  0.00     0.272 C 
HETATM   31  C3  UNL     1      20.899  12.067  24.499  1.00  0.00     0.050 C 
BRANCH  30  32
HETATM   32  N1  UNL     1      22.876  10.958  25.241  1.00  0.00    -0.067 N 
HETATM   33  C1  UNL     1      22.228   9.902  24.519  1.00  0.00     0.267 C 
ATOM     34  H12 UNL     1      22.850  10.781  26.245  1.00  0.00     0.277 HD
ATOM     35  H11 UNL     1      23.885  10.933  25.094  1.00  0.00     0.277 HD
ENDBRANCH  30  32
ENDBRANCH  27  30
ENDBRANCH  25  26
BRANCH  25  36
HETATM   36  C6  UNL     1      25.058  12.300  21.319  1.00  0.00     0.128 C 
BRANCH  36  37
HETATM   37  C7  UNL     1      25.521  13.007  20.115  1.00  0.00    -0.103 C 
HETATM   38  C8  UNL     1      25.920  13.576  19.124  1.00  0.00    -0.092 C 
BRANCH  38  39
HETATM   39  C9  UNL     1      26.428  14.256  17.926  1.00  0.00     0.208 C 
HETATM   40 CL1  UNL     1      28.048  14.910  18.204  1.00  0.00    -0.117 Cl
ENDBRANCH  38  39
ENDBRANCH  36  37
ENDBRANCH  25  36
ENDBRANCH   1  25
TORSDOF 13
ENDMDL
MODEL 2
REMARK VINA RESULT: -7.392329449      3.157      5.205
REMARK  13 active torsions:
REMARK  status: ('A' for Active; 'I' for Inactive)
REMARK    1  A    between atoms: N1_2  and  C2_5 
REMARK    2  A    between atoms: C2_5  and  C4_7 
REMARK       I    between atoms: C4_7  and  N2_9 
REMARK    3  A    between atoms: N2_9  and  C5_11 
REMARK    4  A    between atoms: C5_11  and  C6_12 
REMARK    5  A    between atoms: C5_11  and  C10_17 
REMARK    6  A    between atoms: C6_12  and  C7_13 
REMARK    7  A    between atoms: C8_14  and  C9_15 
REMARK       I    between atoms: C10_17  and  N3_19 
REMARK    8  A    between atoms: N3_19  and  C11_21 
REMARK    9  A    between atoms: C11_21  and  C12_22 
REMARK   10  A    between atoms: C11_21  and  C15_26 
REMARK   11  A    between atoms: C12_22  and  C13_23 
REMARK   12  A    between atoms: C13_23  and  S1_24 
REMARK       I    between atoms: C15_26  and  N4_28 
REMARK   13  A    between atoms: C19_33  and  O4_34 
ROOT
HETATM    1  C10 UNL     1      26.683  13.644  19.984  1.00  0.00     0.242 C 
HETATM    2  O2  UNL     1      25.858  14.238  20.727  1.00  0.00    -0.271 OA
HETATM    3  N3  UNL     1      27.814  13.063  20.605  1.00  0.00    -0.346 N 
ATOM      4  H3  UNL     1      28.506  12.574  20.037  1.00  0.00     0.163 HD
ENDROOT
BRANCH   3   5
HETATM    5  C11 UNL     1      28.002  13.158  22.063  1.00  0.00     0.177 C 
BRANCH   5   6
HETATM    6  C12 UNL     1      28.795  11.973  22.512  1.00  0.00     0.045 C 
BRANCH   6   7
HETATM    7  C13 UNL     1      28.973  11.050  21.293  1.00  0.00     0.076 C 
BRANCH   7   8
HETATM    8  S1  UNL     1      29.004   9.326  21.781  1.00  0.00    -0.173 SA
HETATM    9  C14 UNL     1      29.885   9.090  23.335  1.00  0.00     0.089 C 
ENDBRANCH   7   8
ENDBRANCH   6   7
ENDBRANCH   5   6
BRANCH   5  10
HETATM   10  C15 UNL     1      28.615  14.474  22.396  1.00  0.00     0.242 C 
HETATM   11  O3  UNL     1      29.518  14.922  21.583  1.00  0.00    -0.271 OA
HETATM   12  N4  UNL     1      28.320  15.286  23.494  1.00  0.00    -0.346 N 
HETATM   13  C16 UNL     1      27.279  14.763  24.340  1.00  0.00     0.154 C 
HETATM   14  C25 UNL     1      29.112  16.476  23.552  1.00  0.00     0.135 C 
HETATM   15  C17 UNL     1      26.354  15.863  24.797  1.00  0.00     0.010 C 
HETATM   16  C18 UNL     1      26.550  17.004  25.402  1.00  0.00     0.015 C 
HETATM   17 BR1  UNL     1      24.935  17.975  25.715  1.00  0.00    -0.053 Br
HETATM   18  C19 UNL     1      27.722  17.741  25.910  1.00  0.00     0.161 C 
HETATM   19  C21 UNL     1      28.943  16.870  26.058  1.00  0.00     0.047 C 
HETATM   20  C22 UNL     1      29.787  16.771  24.848  1.00  0.00    -0.029 C 
HETATM   21  C23 UNL     1      30.417  18.165  24.663  1.00  0.00     0.016 C 
HETATM   22  C24 UNL     1      30.957  15.858  25.132  1.00  0.00     0.016 C 
BRANCH  18  23
HETATM   23  O4  UNL     1      27.378  18.152  27.220  1.00  0.00    -0.386 OA
HETATM   24  C20 UNL     1      28.041  19.313  27.555  1.00  0.00     0.202 C 
ENDBRANCH  18  23
ENDBRANCH   5  10
ENDBRANCH   3   5
BRANCH   1  25
HETATM   25  C5  UNL     1      26.448  13.579  18.529  1.00  0.00     0.187 C 
BRANCH  25  26
HETATM   26  N2  UNL     1      26.490  14.922  17.994  1.00  0.00    -0.345 N 
HETATM   27  C4  UNL     1      27.715  15.604  17.825  1.00  0.00     0.248 C 
HETATM   28  O1  UNL     1      28.779  15.003  18.156  1.00  0.00    -0.271 OA
ATOM     29  H2  UNL     1      25.619  15.385  17.734  1.00  0.00     0.163 HD
BRANCH  27  30
HETATM   30  C2  UNL     1      27.728  16.973  17.278  1.00  0.00     0.272 C 
HETATM   31  C3  UNL     1      27.861  16.900  15.766  1.00  0.00     0.050 C 
BRANCH  30  32
HETATM   32  N1  UNL     1      26.480  17.667  17.554  1.00  0.00    -0.067 N 
HETATM   33  C1  UNL     1      26.662  19.058  17.853  1.00  0.00     0.267 C 
ATOM     34  H12 UNL     1      25.961  17.200  18.298  1.00  0.00     0.277 HD
ATOM     35  H11 UNL     1      25.819  17.544  16.787  1.00  0.00     0.277 HD
ENDBRANCH  30  32
ENDBRANCH  27  30
ENDBRANCH  25  26
BRANCH  25  36
HETATM   36  C6  UNL     1      25.083  13.005  18.203  1.00  0.00     0.128 C 
BRANCH  36  37
HETATM   37  C7  UNL     1      24.784  11.866  19.084  1.00  0.00    -0.103 C 
HETATM   38  C8  UNL     1      24.533  10.916  19.792  1.00  0.00    -0.092 C 
BRANCH  38  39
HETATM   39  C9  UNL     1      24.217   9.752  20.630  1.00  0.00     0.208 C 
HETATM   40 CL1  UNL     1      22.711  10.002  21.524  1.00  0.00    -0.117 Cl
ENDBRANCH  38  39
ENDBRANCH  36  37
ENDBRANCH  25  36
ENDBRANCH   1  25
TORSDOF 13
ENDMDL
MODEL 3
REMARK VINA RESULT: -7.357032086      2.200      3.903
REMARK  13 active torsions:
REMARK  status: ('A' for Active; 'I' for Inactive)
REMARK    1  A    between atoms: N1_2  and  C2_5 
REMARK    2  A    between atoms: C2_5  and  C4_7 
REMARK       I    between atoms: C4_7  and  N2_9 
REMARK    3  A    between atoms: N2_9  and  C5_11 
REMARK    4  A    between atoms: C5_11  and  C6_12 
REMARK    5  A    between atoms: C5_11  and  C10_17 
REMARK    6  A    between atoms: C6_12  and  C7_13 
REMARK    7  A    between atoms: C8_14  and  C9_15 
REMARK       I    between atoms: C10_17  and  N3_19 
REMARK    8  A    between atoms: N3_19  and  C11_21 
REMARK    9  A    between atoms: C11_21  and  C12_22 
REMARK   10  A    between atoms: C11_21  and  C15_26 
REMARK   11  A    between atoms: C12_22  and  C13_23 
REMARK   12  A    between atoms: C13_23  and  S1_24 
REMARK       I    between atoms: C15_26  and  N4_28 
REMARK   13  A    between atoms: C19_33  and  O4_34 
ROOT
HETATM    1  C10 UNL     1      26.626  13.259  22.813  1.00  0.00     0.242 C 
HETATM    2  O2  UNL     1      26.896  13.391  24.035  1.00  0.00    -0.271 OA
HETATM    3  N3  UNL     1      27.711  13.255  21.906  1.00  0.00    -0.346 N 
ATOM      4  H3  UNL     1      27.533  13.151  20.907  1.00  0.00     0.163 HD
ENDROOT
BRANCH   3   5
HETATM    5  C11 UNL     1      29.095  13.399  22.389  1.00  0.00     0.177 C 
BRANCH   5   6
HETATM    6  C12 UNL     1      29.947  12.394  21.682  1.00  0.00     0.045 C 
BRANCH   6   7
HETATM    7  C13 UNL     1      29.042  11.641  20.691  1.00  0.00     0.076 C 
BRANCH   7   8
HETATM    8  S1  UNL     1      28.842   9.925  21.167  1.00  0.00    -0.173 SA
HETATM    9  C14 UNL     1      29.587   9.589  22.774  1.00  0.00     0.089 C 
ENDBRANCH   7   8
ENDBRANCH   6   7
ENDBRANCH   5   6
BRANCH   5  10
HETATM   10  C15 UNL     1      29.533  14.813  22.214  1.00  0.00     0.242 C 
HETATM   11  O3  UNL     1      29.568  15.270  21.003  1.00  0.00    -0.271 OA
HETATM   12  N4  UNL     1      29.909  15.707  23.220  1.00  0.00    -0.346 N 
HETATM   13  C16 UNL     1      29.809  15.163  24.549  1.00  0.00     0.154 C 
HETATM   14  C25 UNL     1      30.314  16.986  22.722  1.00  0.00     0.135 C 
HETATM   15  C17 UNL     1      29.250  16.185  25.507  1.00  0.00     0.010 C 
HETATM   16  C18 UNL     1      29.597  17.406  25.816  1.00  0.00     0.015 C 
HETATM   17 BR1  UNL     1      28.466  18.196  27.136  1.00  0.00    -0.053 Br
HETATM   18  C19 UNL     1      30.657  18.341  25.394  1.00  0.00     0.161 C 
HETATM   19  C21 UNL     1      31.793  17.654  24.678  1.00  0.00     0.047 C 
HETATM   20  C22 UNL     1      31.616  17.517  23.217  1.00  0.00    -0.029 C 
HETATM   21  C23 UNL     1      31.707  18.947  22.649  1.00  0.00     0.016 C 
HETATM   22  C24 UNL     1      32.813  16.800  22.637  1.00  0.00     0.016 C 
BRANCH  18  23
HETATM   23  O4  UNL     1      31.209  18.860  26.589  1.00  0.00    -0.386 OA
HETATM   24  C20 UNL     1      31.915  20.015  26.337  1.00  0.00     0.202 C 
ENDBRANCH  18  23
ENDBRANCH   5  10
ENDBRANCH   3   5
BRANCH   1  25
HETATM   25  C5  UNL     1      25.222  13.118  22.382  1.00  0.00     0.187 C 
BRANCH  25  26
HETATM   26  N2  UNL     1      25.127  13.494  20.988  1.00  0.00    -0.345 N 
HETATM   27  C4  UNL     1      25.301  12.540  19.961  1.00  0.00     0.248 C 
HETATM   28  O1  UNL     1      25.542  11.343  20.296  1.00  0.00    -0.271 OA
ATOM     29  H2  UNL     1      24.932  14.464  20.742  1.00  0.00     0.163 HD
BRANCH  27  30
HETATM   30  C2  UNL     1      25.199  12.950  18.548  1.00  0.00     0.272 C 
HETATM   31  C3  UNL     1      23.763  12.779  18.084  1.00  0.00     0.050 C 
BRANCH  30  32
HETATM   32  N1  UNL     1      25.527  14.358  18.380  1.00  0.00    -0.067 N 
HETATM   33  C1  UNL     1      26.896  14.579  18.018  1.00  0.00     0.267 C 
ATOM     34  H12 UNL     1      25.280  14.890  19.214  1.00  0.00     0.277 HD
ATOM     35  H11 UNL     1      24.898  14.799  17.709  1.00  0.00     0.277 HD
ENDBRANCH  30  32
ENDBRANCH  27  30
ENDBRANCH  25  26
BRANCH  25  36
HETATM   36  C6  UNL     1      24.297  14.034  23.160  1.00  0.00     0.128 C 
BRANCH  36  37
HETATM   37  C7  UNL     1      23.111  13.293  23.616  1.00  0.00    -0.103 C 
HETATM   38  C8  UNL     1      22.134  12.673  23.973  1.00  0.00    -0.092 C 
BRANCH  38  39
HETATM   39  C9  UNL     1      20.945  11.914  24.380  1.00  0.00     0.208 C 
HETATM   40 CL1  UNL     1      21.187  10.178  24.141  1.00  0.00    -0.117 Cl
ENDBRANCH  38  39
ENDBRANCH  36  37
ENDBRANCH  25  36
ENDBRANCH   1  25
TORSDOF 13
ENDMDL
MODEL 4
REMARK VINA RESULT: -7.321756359      3.660      6.154
REMARK  13 active torsions:
REMARK  status: ('A' for Active; 'I' for Inactive)
REMARK    1  A    between atoms: N1_2  and  C2_5 
REMARK    2  A    between atoms: C2_5  and  C4_7 
REMARK       I    between atoms: C4_7  and  N2_9 
REMARK    3  A    between atoms: N2_9  and  C5_11 
REMARK    4  A    between atoms: C5_11  and  C6_12 
REMARK    5  A    between atoms: C5_11  and  C10_17 
REMARK    6  A    between atoms: C6_12  and  C7_13 
REMARK    7  A    between atoms: C8_14  and  C9_15 
REMARK       I    between atoms: C10_17  and  N3_19 
REMARK    8  A    between atoms: N3_19  and  C11_21 
REMARK    9  A    between atoms: C11_21  and  C12_22 
REMARK   10  A    between atoms: C11_21  and  C15_26 
REMARK   11  A    between atoms: C12_22  and  C13_23 
REMARK   12  A    between atoms: C13_23  and  S1_24 
REMARK       I    between atoms: C15_26  and  N4_28 
REMARK   13  A    between atoms: C19_33  and  O4_34 
ROOT
HETATM    1  C10 UNL     1      22.866  12.996  24.268  1.00  0.00     0.242 C 
HETATM    2  O2  UNL     1      22.565  13.771  23.323  1.00  0.00    -0.271 OA
HETATM    3  N3  UNL     1      23.981  13.347  25.064  1.00  0.00    -0.346 N 
ATOM      4  H3  UNL     1      24.258  12.744  25.839  1.00  0.00     0.163 HD
ENDROOT
BRANCH   3   5
HETATM    5  C11 UNL     1      24.748  14.574  24.784  1.00  0.00     0.177 C 
BRANCH   5   6
HETATM    6  C12 UNL     1      24.594  15.499  25.948  1.00  0.00     0.045 C 
BRANCH   6   7
HETATM    7  C13 UNL     1      24.790  16.933  25.425  1.00  0.00     0.076 C 
BRANCH   7   8
HETATM    8  S1  UNL     1      26.352  17.618  25.973  1.00  0.00    -0.173 SA
HETATM    9  C14 UNL     1      26.209  19.371  26.366  1.00  0.00     0.089 C 
ENDBRANCH   7   8
ENDBRANCH   6   7
ENDBRANCH   5   6
BRANCH   5  10
HETATM   10  C15 UNL     1      26.157  14.211  24.465  1.00  0.00     0.242 C 
HETATM   11  O3  UNL     1      26.954  14.017  25.467  1.00  0.00    -0.271 OA
HETATM   12  N4  UNL     1      26.718  14.053  23.194  1.00  0.00    -0.346 N 
HETATM   13  C16 UNL     1      25.779  14.235  22.118  1.00  0.00     0.154 C 
HETATM   14  C25 UNL     1      28.113  13.737  23.223  1.00  0.00     0.135 C 
HETATM   15  C17 UNL     1      26.003  13.214  21.031  1.00  0.00     0.010 C 
HETATM   16  C18 UNL     1      27.048  12.869  20.329  1.00  0.00     0.015 C 
HETATM   17 BR1  UNL     1      26.683  11.476  19.074  1.00  0.00    -0.053 Br
HETATM   18  C19 UNL     1      28.460  13.290  20.260  1.00  0.00     0.161 C 
HETATM   19  C21 UNL     1      28.705  14.626  20.916  1.00  0.00     0.047 C 
HETATM   20  C22 UNL     1      29.006  14.564  22.362  1.00  0.00    -0.029 C 
HETATM   21  C23 UNL     1      30.393  13.902  22.472  1.00  0.00     0.016 C 
HETATM   22  C24 UNL     1      29.210  15.966  22.888  1.00  0.00     0.016 C 
BRANCH  18  23
HETATM   23  O4  UNL     1      28.739  13.476  18.886  1.00  0.00    -0.386 OA
HETATM   24  C20 UNL     1      28.469  14.773  18.506  1.00  0.00     0.202 C 
ENDBRANCH  18  23
ENDBRANCH   5  10
ENDBRANCH   3   5
BRANCH   1  25
HETATM   25  C5  UNL     1      22.065  11.780  24.505  1.00  0.00     0.187 C 
BRANCH  25  26
HETATM   26  N2  UNL     1      21.848  11.640  25.928  1.00  0.00    -0.345 N 
HETATM   27  C4  UNL     1      20.570  11.838  26.496  1.00  0.00     0.248 C 
HETATM   28  O1  UNL     1      19.617  12.142  25.720  1.00  0.00    -0.271 OA
ATOM     29  H2  UNL     1      22.632  11.394  26.533  1.00  0.00     0.163 HD
BRANCH  27  30
HETATM   30  C2  UNL     1      20.378  11.689  27.950  1.00  0.00     0.272 C 
HETATM   31  C3  UNL     1      21.332  12.623  28.674  1.00  0.00     0.050 C 
BRANCH  30  32
HETATM   32  N1  UNL     1      19.033  12.075  28.349  1.00  0.00    -0.067 N 
HETATM   33  C1  UNL     1      18.952  12.505  29.715  1.00  0.00     0.267 C 
ATOM     34  H12 UNL     1      18.369  11.323  28.165  1.00  0.00     0.277 HD
ATOM     35  H11 UNL     1      18.658  12.786  27.722  1.00  0.00     0.277 HD
ENDBRANCH  30  32
ENDBRANCH  27  30
ENDBRANCH  25  26
BRANCH  25  36
HETATM   36  C6  UNL     1      22.781  10.530  24.031  1.00  0.00     0.128 C 
BRANCH  36  37
HETATM   37  C7  UNL     1      22.829  10.494  22.562  1.00  0.00    -0.103 C 
HETATM   38  C8  UNL     1      22.848  10.473  21.351  1.00  0.00    -0.092 C 
BRANCH  38  39
HETATM   39  C9  UNL     1      22.846  10.453  19.883  1.00  0.00     0.208 C 
HETATM   40 CL1  UNL     1      22.986  12.088  19.224  1.00  0.00    -0.117 Cl
ENDBRANCH  38  39
ENDBRANCH  36  37
ENDBRANCH  25  36
ENDBRANCH   1  25
TORSDOF 13
ENDMDL
MODEL 5
REMARK VINA RESULT: -7.308066489      4.599      7.654
REMARK  13 active torsions:
REMARK  status: ('A' for Active; 'I' for Inactive)
REMARK    1  A    between atoms: N1_2  and  C2_5 
REMARK    2  A    between atoms: C2_5  and  C4_7 
REMARK       I    between atoms: C4_7  and  N2_9 
REMARK    3  A    between atoms: N2_9  and  C5_11 
REMARK    4  A    between atoms: C5_11  and  C6_12 
REMARK    5  A    between atoms: C5_11  and  C10_17 
REMARK    6  A    between atoms: C6_12  and  C7_13 
REMARK    7  A    between atoms: C8_14  and  C9_15 
REMARK       I    between atoms: C10_17  and  N3_19 
REMARK    8  A    between atoms: N3_19  and  C11_21 
REMARK    9  A    between atoms: C11_21  and  C12_22 
REMARK   10  A    between atoms: C11_21  and  C15_26 
REMARK   11  A    between atoms: C12_22  and  C13_23 
REMARK   12  A    between atoms: C13_23  and  S1_24 
REMARK       I    between atoms: C15_26  and  N4_28 
REMARK   13  A    between atoms: C19_33  and  O4_34 
ROOT
HETATM    1  C10 UNL     1      23.706  13.780  25.253  1.00  0.00     0.242 C 
HETATM    2  O2  UNL     1      23.250  14.135  24.135  1.00  0.00    -0.271 OA
HETATM    3  N3  UNL     1      25.033  14.159  25.562  1.00  0.00    -0.346 N 
ATOM      4  H3  UNL     1      25.439  13.889  26.459  1.00  0.00     0.163 HD
ENDROOT
BRANCH   3   5
HETATM    5  C11 UNL     1      25.835  14.938  24.603  1.00  0.00     0.177 C 
BRANCH   5   6
HETATM    6  C12 UNL     1      26.412  16.116  25.321  1.00  0.00     0.045 C 
BRANCH   6   7
HETATM    7  C13 UNL     1      25.241  17.036  25.709  1.00  0.00     0.076 C 
BRANCH   7   8
HETATM    8  S1  UNL     1      25.810  18.697  26.071  1.00  0.00    -0.173 SA
HETATM    9  C14 UNL     1      27.452  18.689  26.814  1.00  0.00     0.089 C 
ENDBRANCH   7   8
ENDBRANCH   6   7
ENDBRANCH   5   6
BRANCH   5  10
HETATM   10  C15 UNL     1      26.846  14.046  23.968  1.00  0.00     0.242 C 
HETATM   11  O3  UNL     1      27.902  13.768  24.663  1.00  0.00    -0.271 OA
HETATM   12  N4  UNL     1      26.777  13.470  22.696  1.00  0.00    -0.346 N 
HETATM   13  C16 UNL     1      25.564  13.774  21.985  1.00  0.00     0.154 C 
HETATM   14  C25 UNL     1      27.929  12.690  22.363  1.00  0.00     0.135 C 
HETATM   15  C17 UNL     1      25.052  12.560  21.250  1.00  0.00     0.010 C 
HETATM   16  C18 UNL     1      25.592  11.743  20.386  1.00  0.00     0.015 C 
HETATM   17 BR1  UNL     1      24.400  10.367  19.808  1.00  0.00    -0.053 Br
HETATM   18  C19 UNL     1      26.909  11.615  19.735  1.00  0.00     0.161 C 
HETATM   19  C21 UNL     1      27.736  12.872  19.834  1.00  0.00     0.047 C 
HETATM   20  C22 UNL     1      28.574  12.973  21.048  1.00  0.00    -0.029 C 
HETATM   21  C23 UNL     1      29.662  11.893  20.896  1.00  0.00     0.016 C 
HETATM   22  C24 UNL     1      29.329  14.281  21.024  1.00  0.00     0.016 C 
BRANCH  18  23
HETATM   23  O4  UNL     1      26.641  11.435  18.358  1.00  0.00    -0.386 OA
HETATM   24  C20 UNL     1      26.429  12.648  17.741  1.00  0.00     0.202 C 
ENDBRANCH  18  23
ENDBRANCH   5  10
ENDBRANCH   3   5
BRANCH   1  25
HETATM   25  C5  UNL     1      22.861  13.000  26.177  1.00  0.00     0.187 C 
BRANCH  25  26
HETATM   26  N2  UNL     1      21.510  12.976  25.658  1.00  0.00    -0.345 N 
HETATM   27  C4  UNL     1      20.920  11.774  25.211  1.00  0.00     0.248 C 
HETATM   28  O1  UNL     1      21.609  10.714  25.279  1.00  0.00    -0.271 OA
ATOM     29  H2  UNL     1      20.975  13.843  25.615  1.00  0.00     0.163 HD
BRANCH  27  30
HETATM   30  C2  UNL     1      19.542  11.779  24.687  1.00  0.00     0.272 C 
HETATM   31  C3  UNL     1      19.022  10.352  24.649  1.00  0.00     0.050 C 
BRANCH  30  32
HETATM   32  N1  UNL     1      18.646  12.525  25.557  1.00  0.00    -0.067 N 
HETATM   33  C1  UNL     1      17.304  12.598  25.056  1.00  0.00     0.267 C 
ATOM     34  H12 UNL     1      19.015  13.458  25.744  1.00  0.00     0.277 HD
ATOM     35  H11 UNL     1      18.661  12.147  26.504  1.00  0.00     0.277 HD
ENDBRANCH  30  32
ENDBRANCH  27  30
ENDBRANCH  25  26
BRANCH  25  36
HETATM   36  C6  UNL     1      22.804  13.627  27.557  1.00  0.00     0.128 C 
BRANCH  36  37
HETATM   37  C7  UNL     1      21.618  13.151  28.285  1.00  0.00    -0.103 C 
HETATM   38  C8  UNL     1      20.629  12.771  28.871  1.00  0.00    -0.092 C 
BRANCH  38  39
HETATM   39  C9  UNL     1      19.415  12.329  29.570  1.00  0.00     0.208 C 
HETATM   40 CL1  UNL     1      18.054  13.403  29.222  1.00  0.00    -0.117 Cl
ENDBRANCH  38  39
ENDBRANCH  36  37
ENDBRANCH  25  36
ENDBRANCH   1  25
TORSDOF 13
ENDMDL
