MODEL 1
REMARK VINA RESULT: -8.191407265      0.000      0.000
REMARK  13 active torsions:
REMARK  status: ('A' for Active; 'I' for Inactive)
REMARK       I    between atoms: N1_2  and  C2_4 
REMARK    1  A    between atoms: N3_6  and  C3_8 
REMARK    2  A    between atoms: C3_8  and  C4_9 
REMARK    3  A    between atoms: C4_9  and  C5_10 
REMARK    4  A    between atoms: C5_10  and  N4_11 
REMARK    5  A    between atoms: N4_11  and  C7_13 
REMARK    6  A    between atoms: C7_13  and  C8_14 
REMARK    7  A    between atoms: C8_14  and  C9_15 
REMARK    8  A    between atoms: C9_15  and  N5_16 
REMARK    9  A    between atoms: N5_16  and  C10_17 
REMARK   10  A    between atoms: C17_28  and  N7_29 
REMARK       I    between atoms: N7_29  and  C18_31 
REMARK   11  A    between atoms: N8_34  and  C20_35 
REMARK   12  A    between atoms: C20_35  and  C21_36 
REMARK   13  A    between atoms: C21_36  and  C22_37 
ROOT
HETATM    1  C10 UNL     1      26.677  13.062  22.211  1.00  0.00     0.207 A 
HETATM    2  C11 UNL     1      27.207  13.896  23.239  1.00  0.00     0.051 A 
HETATM    3  C12 UNL     1      26.445  14.903  23.812  1.00  0.00     0.039 A 
HETATM    4  C13 UNL     1      26.956  15.722  24.799  1.00  0.00     0.029 A 
HETATM    5 BR1  UNL     1      25.933  17.092  25.615  1.00  0.00    -0.050 Br
HETATM    6  C14 UNL     1      28.258  15.535  25.225  1.00  0.00     0.030 A 
HETATM    7 BR2  UNL     1      29.038  16.640  26.599  1.00  0.00    -0.050 Br
HETATM    8  C15 UNL     1      29.001  14.525  24.642  1.00  0.00     0.051 A 
HETATM    9  C16 UNL     1      28.485  13.693  23.645  1.00  0.00     0.065 A 
HETATM   10  N6  UNL     1      29.230  12.729  23.097  1.00  0.00    -0.190 N 
ATOM     11  H6  UNL     1      30.190  12.578  23.408  1.00  0.00     0.184 HD
HETATM   12  C17 UNL     1      28.690  11.946  22.113  1.00  0.00     0.690 A 
HETATM   13  N8  UNL     1      27.450  12.088  21.657  1.00  0.00    -0.154 N 
ENDROOT
BRANCH   1  14
HETATM   14  N5  UNL     1      25.513  13.256  21.966  1.00  0.00    -0.402 NA
BRANCH  14  15
HETATM   15  C9  UNL     1      24.218  13.456  21.711  1.00  0.00     0.159 C 
BRANCH  15  16
HETATM   16  C8  UNL     1      23.272  12.398  22.262  1.00  0.00     0.089 C 
BRANCH  16  17
HETATM   17  C7  UNL     1      22.832  11.328  21.362  1.00  0.00     0.278 C 
BRANCH  17  18
HETATM   18  N4  UNL     1      22.722   9.973  21.829  1.00  0.00     0.084 N 
HETATM   19  C6  UNL     1      23.911   9.224  21.506  1.00  0.00     0.309 C 
BRANCH  18  20
HETATM   20  C5  UNL     1      22.710  10.008  23.314  1.00  0.00     0.273 C 
BRANCH  20  21
HETATM   21  C4  UNL     1      21.338   9.953  23.880  1.00  0.00     0.050 C 
BRANCH  21  22
HETATM   22  C3  UNL     1      21.361  10.061  25.415  1.00  0.00     0.124 C 
BRANCH  22  23
HETATM   23  N3  UNL     1      22.246  11.179  25.722  1.00  0.00    -0.365 N 
HETATM   24  C2  UNL     1      21.846  12.244  26.313  1.00  0.00     0.183 C 
HETATM   25  N1  UNL     1      22.700  13.330  26.620  1.00  0.00    -0.369 N 
HETATM   26  N2  UNL     1      20.461  12.322  26.675  1.00  0.00    -0.064 NA
HETATM   27  C1  UNL     1      23.521  13.991  25.654  1.00  0.00     0.148 C 
ATOM     28  H1  UNL     1      22.732  13.658  27.585  1.00  0.00     0.161 HD
ATOM     29  H3  UNL     1      23.228  11.111  25.455  1.00  0.00     0.162 HD
ENDBRANCH  22  23
ENDBRANCH  21  22
ENDBRANCH  20  21
ENDBRANCH  18  20
ENDBRANCH  17  18
ENDBRANCH  16  17
ENDBRANCH  15  16
ENDBRANCH  14  15
ENDBRANCH   1  14
BRANCH  13  30
HETATM   30  C20 UNL     1      26.925  11.280  20.555  1.00  0.00     0.151 C 
BRANCH  30  31
HETATM   31  C21 UNL     1      27.128  11.962  19.236  1.00  0.00     0.025 C 
BRANCH  31  32
HETATM   32  C22 UNL     1      26.102  11.832  18.183  1.00  0.00    -0.021 C 
HETATM   33  C23 UNL     1      25.310  13.176  18.220  1.00  0.00     0.009 C 
HETATM   34  C24 UNL     1      25.010  10.809  18.434  1.00  0.00     0.009 C 
ENDBRANCH  31  32
ENDBRANCH  30  31
ENDBRANCH  13  30
BRANCH  12  35
HETATM   35  N7  UNL     1      29.378  10.924  21.710  1.00  0.00    -0.160 N 
HETATM   36  C18 UNL     1      29.425   9.648  22.293  1.00  0.00     0.231 C 
HETATM   37  C19 UNL     1      30.214   9.176  23.421  1.00  0.00     0.118 C 
HETATM   38  O1  UNL     1      28.653   8.770  21.738  1.00  0.00    -0.273 OA
ATOM     39  H7  UNL     1      29.947  11.061  20.875  1.00  0.00     0.187 HD
ENDBRANCH  12  35
TORSDOF 13
ENDMDL
MODEL 2
REMARK VINA RESULT: -8.133881062      1.502      2.073
REMARK  13 active torsions:
REMARK  status: ('A' for Active; 'I' for Inactive)
REMARK       I    between atoms: N1_2  and  C2_4 
REMARK    1  A    between atoms: N3_6  and  C3_8 
REMARK    2  A    between atoms: C3_8  and  C4_9 
REMARK    3  A    between atoms: C4_9  and  C5_10 
REMARK    4  A    between atoms: C5_10  and  N4_11 
REMARK    5  A    between atoms: N4_11  and  C7_13 
REMARK    6  A    between atoms: C7_13  and  C8_14 
REMARK    7  A    between atoms: C8_14  and  C9_15 
REMARK    8  A    between atoms: C9_15  and  N5_16 
REMARK    9  A    between atoms: N5_16  and  C10_17 
REMARK   10  A    between atoms: C17_28  and  N7_29 
REMARK       I    between atoms: N7_29  and  C18_31 
REMARK   11  A    between atoms: N8_34  and  C20_35 
REMARK   12  A    between atoms: C20_35  and  C21_36 
REMARK   13  A    between atoms: C21_36  and  C22_37 
ROOT
HETATM    1  C10 UNL     1      26.381  12.888  22.242  1.00  0.00     0.207 A 
HETATM    2  C11 UNL     1      26.898  13.752  23.252  1.00  0.00     0.051 A 
HETATM    3  C12 UNL     1      26.100  14.714  23.852  1.00  0.00     0.039 A 
HETATM    4  C13 UNL     1      26.598  15.562  24.821  1.00  0.00     0.029 A 
HETATM    5 BR1  UNL     1      25.527  16.873  25.674  1.00  0.00    -0.050 Br
HETATM    6  C14 UNL     1      27.922  15.451  25.201  1.00  0.00     0.030 A 
HETATM    7 BR2  UNL     1      28.686  16.600  26.547  1.00  0.00    -0.050 Br
HETATM    8  C15 UNL     1      28.702  14.485  24.592  1.00  0.00     0.051 A 
HETATM    9  C16 UNL     1      28.200  13.623  23.613  1.00  0.00     0.065 A 
HETATM   10  N6  UNL     1      28.979  12.702  23.038  1.00  0.00    -0.190 N 
ATOM     11  H6  UNL     1      29.956  12.608  23.315  1.00  0.00     0.184 HD
HETATM   12  C17 UNL     1      28.451  11.889  22.073  1.00  0.00     0.690 A 
HETATM   13  N8  UNL     1      27.189  11.959  21.661  1.00  0.00    -0.154 N 
ENDROOT
BRANCH   1  14
HETATM   14  N5  UNL     1      25.200  13.015  22.039  1.00  0.00    -0.402 NA
BRANCH  14  15
HETATM   15  C9  UNL     1      23.887  13.138  21.828  1.00  0.00     0.159 C 
BRANCH  15  16
HETATM   16  C8  UNL     1      23.076  11.861  21.990  1.00  0.00     0.089 C 
BRANCH  16  17
HETATM   17  C7  UNL     1      22.909  11.314  23.339  1.00  0.00     0.278 C 
BRANCH  17  18
HETATM   18  N4  UNL     1      21.620  10.884  23.805  1.00  0.00     0.084 N 
HETATM   19  C6  UNL     1      21.736   9.679  24.591  1.00  0.00     0.309 C 
BRANCH  18  20
HETATM   20  C5  UNL     1      21.130  11.898  24.774  1.00  0.00     0.273 C 
BRANCH  20  21
HETATM   21  C4  UNL     1      20.996  11.361  26.152  1.00  0.00     0.050 C 
BRANCH  21  22
HETATM   22  C3  UNL     1      21.692  12.272  27.178  1.00  0.00     0.124 C 
BRANCH  22  23
HETATM   23  N3  UNL     1      20.824  12.291  28.350  1.00  0.00    -0.365 N 
HETATM   24  C2  UNL     1      20.662  13.330  29.082  1.00  0.00     0.183 C 
HETATM   25  N1  UNL     1      19.816  13.357  30.216  1.00  0.00    -0.369 N 
HETATM   26  N2  UNL     1      21.381  14.516  28.720  1.00  0.00    -0.064 NA
HETATM   27  C1  UNL     1      19.906  12.423  31.295  1.00  0.00     0.148 C 
ATOM     28  H1  UNL     1      19.102  14.084  30.266  1.00  0.00     0.161 HD
ATOM     29  H3  UNL     1      20.322  11.438  28.597  1.00  0.00     0.162 HD
ENDBRANCH  22  23
ENDBRANCH  21  22
ENDBRANCH  20  21
ENDBRANCH  18  20
ENDBRANCH  17  18
ENDBRANCH  16  17
ENDBRANCH  15  16
ENDBRANCH  14  15
ENDBRANCH   1  14
BRANCH  13  30
HETATM   30  C20 UNL     1      26.673  11.121  20.578  1.00  0.00     0.151 C 
BRANCH  30  31
HETATM   31  C21 UNL     1      26.685  11.854  19.270  1.00  0.00     0.025 C 
BRANCH  31  32
HETATM   32  C22 UNL     1      25.670  11.534  18.246  1.00  0.00    -0.021 C 
HETATM   33  C23 UNL     1      24.729  12.779  18.205  1.00  0.00     0.009 C 
HETATM   34  C24 UNL     1      24.706  10.413  18.586  1.00  0.00     0.009 C 
ENDBRANCH  31  32
ENDBRANCH  30  31
ENDBRANCH  13  30
BRANCH  12  35
HETATM   35  N7  UNL     1      29.181  10.907  21.645  1.00  0.00    -0.160 N 
HETATM   36  C18 UNL     1      29.339   9.644  22.238  1.00  0.00     0.231 C 
HETATM   37  C19 UNL     1      30.212   9.238  23.329  1.00  0.00     0.118 C 
HETATM   38  O1  UNL     1      28.598   8.712  21.731  1.00  0.00    -0.273 OA
ATOM     39  H7  UNL     1      29.698  11.070  20.781  1.00  0.00     0.187 HD
ENDBRANCH  12  35
TORSDOF 13
ENDMDL
MODEL 3
REMARK VINA RESULT: -8.024538784      1.711      2.550
REMARK  13 active torsions:
REMARK  status: ('A' for Active; 'I' for Inactive)
REMARK       I    between atoms: N1_2  and  C2_4 
REMARK    1  A    between atoms: N3_6  and  C3_8 
REMARK    2  A    between atoms: C3_8  and  C4_9 
REMARK    3  A    between atoms: C4_9  and  C5_10 
REMARK    4  A    between atoms: C5_10  and  N4_11 
REMARK    5  A    between atoms: N4_11  and  C7_13 
REMARK    6  A    between atoms: C7_13  and  C8_14 
REMARK    7  A    between atoms: C8_14  and  C9_15 
REMARK    8  A    between atoms: C9_15  and  N5_16 
REMARK    9  A    between atoms: N5_16  and  C10_17 
REMARK   10  A    between atoms: C17_28  and  N7_29 
REMARK       I    between atoms: N7_29  and  C18_31 
REMARK   11  A    between atoms: N8_34  and  C20_35 
REMARK   12  A    between atoms: C20_35  and  C21_36 
REMARK   13  A    between atoms: C21_36  and  C22_37 
ROOT
HETATM    1  C10 UNL     1      26.453  12.838  22.174  1.00  0.00     0.207 A 
HETATM    2  C11 UNL     1      26.959  13.721  23.173  1.00  0.00     0.051 A 
HETATM    3  C12 UNL     1      26.158  14.701  23.739  1.00  0.00     0.039 A 
HETATM    4  C13 UNL     1      26.645  15.567  24.697  1.00  0.00     0.029 A 
HETATM    5 BR1  UNL     1      25.569  16.903  25.504  1.00  0.00    -0.050 Br
HETATM    6  C14 UNL     1      27.962  15.457  25.100  1.00  0.00     0.030 A 
HETATM    7 BR2  UNL     1      28.712  16.631  26.434  1.00  0.00    -0.050 Br
HETATM    8  C15 UNL     1      28.746  14.473  24.526  1.00  0.00     0.051 A 
HETATM    9  C16 UNL     1      28.254  13.593  23.558  1.00  0.00     0.065 A 
HETATM   10  N6  UNL     1      29.037  12.655  23.016  1.00  0.00    -0.190 N 
ATOM     11  H6  UNL     1      30.009  12.561  23.311  1.00  0.00     0.184 HD
HETATM   12  C17 UNL     1      28.519  11.824  22.061  1.00  0.00     0.690 A 
HETATM   13  N8  UNL     1      27.265  11.892  21.626  1.00  0.00    -0.154 N 
ENDROOT
BRANCH   1  14
HETATM   14  N5  UNL     1      25.276  12.967  21.949  1.00  0.00    -0.402 NA
BRANCH  14  15
HETATM   15  C9  UNL     1      23.970  13.088  21.702  1.00  0.00     0.159 C 
BRANCH  15  16
HETATM   16  C8  UNL     1      23.115  11.894  22.103  1.00  0.00     0.089 C 
BRANCH  16  17
HETATM   17  C7  UNL     1      22.984  11.586  23.530  1.00  0.00     0.278 C 
BRANCH  17  18
HETATM   18  N4  UNL     1      21.739  11.110  24.068  1.00  0.00     0.084 N 
HETATM   19  C6  UNL     1      21.906   9.807  24.664  1.00  0.00     0.309 C 
BRANCH  18  20
HETATM   20  C5  UNL     1      21.381  11.985  25.214  1.00  0.00     0.273 C 
BRANCH  20  21
HETATM   21  C4  UNL     1      20.862  11.225  26.380  1.00  0.00     0.050 C 
BRANCH  21  22
HETATM   22  C3  UNL     1      19.403  11.604  26.691  1.00  0.00     0.124 C 
BRANCH  22  23
HETATM   23  N3  UNL     1      18.579  10.615  26.003  1.00  0.00    -0.365 N 
HETATM   24  C2  UNL     1      17.843  10.901  24.994  1.00  0.00     0.183 C 
HETATM   25  N1  UNL     1      17.047   9.947  24.318  1.00  0.00    -0.369 N 
HETATM   26  N2  UNL     1      17.838  12.261  24.540  1.00  0.00    -0.064 NA
HETATM   27  C1  UNL     1      16.091   9.106  24.970  1.00  0.00     0.148 C 
ATOM     28  H1  UNL     1      17.161   9.853  23.309  1.00  0.00     0.161 HD
ATOM     29  H3  UNL     1      18.590   9.653  26.341  1.00  0.00     0.162 HD
ENDBRANCH  22  23
ENDBRANCH  21  22
ENDBRANCH  20  21
ENDBRANCH  18  20
ENDBRANCH  17  18
ENDBRANCH  16  17
ENDBRANCH  15  16
ENDBRANCH  14  15
ENDBRANCH   1  14
BRANCH  13  30
HETATM   30  C20 UNL     1      26.761  11.034  20.554  1.00  0.00     0.151 C 
BRANCH  30  31
HETATM   31  C21 UNL     1      26.818  11.730  19.228  1.00  0.00     0.025 C 
BRANCH  31  32
HETATM   32  C22 UNL     1      25.730  11.527  18.251  1.00  0.00    -0.021 C 
HETATM   33  C23 UNL     1      24.970  12.890  18.202  1.00  0.00     0.009 C 
HETATM   34  C24 UNL     1      24.633  10.562  18.660  1.00  0.00     0.009 C 
ENDBRANCH  31  32
ENDBRANCH  30  31
ENDBRANCH  13  30
BRANCH  12  35
HETATM   35  N7  UNL     1      29.250  10.829  21.666  1.00  0.00    -0.160 N 
HETATM   36  C18 UNL     1      29.405   9.585  22.298  1.00  0.00     0.231 C 
HETATM   37  C19 UNL     1      30.272   9.211  23.405  1.00  0.00     0.118 C 
HETATM   38  O1  UNL     1      28.665   8.638  21.817  1.00  0.00    -0.273 OA
ATOM     39  H7  UNL     1      29.771  10.965  20.800  1.00  0.00     0.187 HD
ENDBRANCH  12  35
TORSDOF 13
ENDMDL
MODEL 4
REMARK VINA RESULT: -7.924430318      1.762      2.248
REMARK  13 active torsions:
REMARK  status: ('A' for Active; 'I' for Inactive)
REMARK       I    between atoms: N1_2  and  C2_4 
REMARK    1  A    between atoms: N3_6  and  C3_8 
REMARK    2  A    between atoms: C3_8  and  C4_9 
REMARK    3  A    between atoms: C4_9  and  C5_10 
REMARK    4  A    between atoms: C5_10  and  N4_11 
REMARK    5  A    between atoms: N4_11  and  C7_13 
REMARK    6  A    between atoms: C7_13  and  C8_14 
REMARK    7  A    between atoms: C8_14  and  C9_15 
REMARK    8  A    between atoms: C9_15  and  N5_16 
REMARK    9  A    between atoms: N5_16  and  C10_17 
REMARK   10  A    between atoms: C17_28  and  N7_29 
REMARK       I    between atoms: N7_29  and  C18_31 
REMARK   11  A    between atoms: N8_34  and  C20_35 
REMARK   12  A    between atoms: C20_35  and  C21_36 
REMARK   13  A    between atoms: C21_36  and  C22_37 
ROOT
HETATM    1  C10 UNL     1      26.363  12.897  22.261  1.00  0.00     0.207 A 
HETATM    2  C11 UNL     1      26.889  13.755  23.271  1.00  0.00     0.051 A 
HETATM    3  C12 UNL     1      26.098  14.717  23.881  1.00  0.00     0.039 A 
HETATM    4  C13 UNL     1      26.605  15.559  24.851  1.00  0.00     0.029 A 
HETATM    5 BR1  UNL     1      25.544  16.869  25.717  1.00  0.00    -0.050 Br
HETATM    6  C14 UNL     1      27.931  15.441  25.222  1.00  0.00     0.030 A 
HETATM    7 BR2  UNL     1      28.707  16.581  26.569  1.00  0.00    -0.050 Br
HETATM    8  C15 UNL     1      28.703  14.475  24.604  1.00  0.00     0.051 A 
HETATM    9  C16 UNL     1      28.192  13.620  23.624  1.00  0.00     0.065 A 
HETATM   10  N6  UNL     1      28.964  12.700  23.039  1.00  0.00    -0.190 N 
ATOM     11  H6  UNL     1      29.943  12.600  23.310  1.00  0.00     0.184 HD
HETATM   12  C17 UNL     1      28.427  11.893  22.074  1.00  0.00     0.690 A 
HETATM   13  N8  UNL     1      27.164  11.969  21.670  1.00  0.00    -0.154 N 
ENDROOT
BRANCH   1  14
HETATM   14  N5  UNL     1      25.181  13.030  22.065  1.00  0.00    -0.402 NA
BRANCH  14  15
HETATM   15  C9  UNL     1      23.875  13.179  21.827  1.00  0.00     0.159 C 
BRANCH  15  16
HETATM   16  C8  UNL     1      23.080  11.888  21.702  1.00  0.00     0.089 C 
BRANCH  16  17
HETATM   17  C7  UNL     1      23.060  10.975  22.849  1.00  0.00     0.278 C 
BRANCH  17  18
HETATM   18  N4  UNL     1      21.826  10.651  23.510  1.00  0.00     0.084 N 
HETATM   19  C6  UNL     1      22.057   9.734  24.600  1.00  0.00     0.309 C 
BRANCH  18  20
HETATM   20  C5  UNL     1      21.336  11.885  24.176  1.00  0.00     0.273 C 
BRANCH  20  21
HETATM   21  C4  UNL     1      20.453  11.601  25.337  1.00  0.00     0.050 C 
BRANCH  21  22
HETATM   22  C3  UNL     1      18.979  11.888  25.003  1.00  0.00     0.124 C 
BRANCH  22  23
HETATM   23  N3  UNL     1      18.344  12.241  26.268  1.00  0.00    -0.365 N 
HETATM   24  C2  UNL     1      17.493  13.192  26.381  1.00  0.00     0.183 C 
HETATM   25  N1  UNL     1      16.869  13.536  27.603  1.00  0.00    -0.369 N 
HETATM   26  N2  UNL     1      17.166  13.934  25.197  1.00  0.00    -0.064 NA
HETATM   27  C1  UNL     1      17.586  13.833  28.804  1.00  0.00     0.148 C 
ATOM     28  H1  UNL     1      15.850  13.575  27.628  1.00  0.00     0.161 HD
ATOM     29  H3  UNL     1      18.590  11.707  27.101  1.00  0.00     0.162 HD
ENDBRANCH  22  23
ENDBRANCH  21  22
ENDBRANCH  20  21
ENDBRANCH  18  20
ENDBRANCH  17  18
ENDBRANCH  16  17
ENDBRANCH  15  16
ENDBRANCH  14  15
ENDBRANCH   1  14
BRANCH  13  30
HETATM   30  C20 UNL     1      26.638  11.138  20.586  1.00  0.00     0.151 C 
BRANCH  30  31
HETATM   31  C21 UNL     1      26.674  11.866  19.276  1.00  0.00     0.025 C 
BRANCH  31  32
HETATM   32  C22 UNL     1      25.664  11.559  18.243  1.00  0.00    -0.021 C 
HETATM   33  C23 UNL     1      24.730  12.809  18.205  1.00  0.00     0.009 C 
HETATM   34  C24 UNL     1      24.692  10.441  18.569  1.00  0.00     0.009 C 
ENDBRANCH  31  32
ENDBRANCH  30  31
ENDBRANCH  13  30
BRANCH  12  35
HETATM   35  N7  UNL     1      29.152  10.910  21.636  1.00  0.00    -0.160 N 
HETATM   36  C18 UNL     1      29.301   9.640  22.216  1.00  0.00     0.231 C 
HETATM   37  C19 UNL     1      30.170   9.217  23.304  1.00  0.00     0.118 C 
HETATM   38  O1  UNL     1      28.554   8.719  21.699  1.00  0.00    -0.273 OA
ATOM     39  H7  UNL     1      29.671  11.079  20.775  1.00  0.00     0.187 HD
ENDBRANCH  12  35
TORSDOF 13
ENDMDL
MODEL 5
REMARK VINA RESULT: -7.888648245      2.998      7.580
REMARK  13 active torsions:
REMARK  status: ('A' for Active; 'I' for Inactive)
REMARK       I    between atoms: N1_2  and  C2_4 
REMARK    1  A    between atoms: N3_6  and  C3_8 
REMARK    2  A    between atoms: C3_8  and  C4_9 
REMARK    3  A    between atoms: C4_9  and  C5_10 
REMARK    4  A    between atoms: C5_10  and  N4_11 
REMARK    5  A    between atoms: N4_11  and  C7_13 
REMARK    6  A    between atoms: C7_13  and  C8_14 
REMARK    7  A    between atoms: C8_14  and  C9_15 
REMARK    8  A    between atoms: C9_15  and  N5_16 
REMARK    9  A    between atoms: N5_16  and  C10_17 
REMARK   10  A    between atoms: C17_28  and  N7_29 
REMARK       I    between atoms: N7_29  and  C18_31 
REMARK   11  A    between atoms: N8_34  and  C20_35 
REMARK   12  A    between atoms: C20_35  and  C21_36 
REMARK   13  A    between atoms: C21_36  and  C22_37 
ROOT
HETATM    1  C10 UNL     1      22.308  11.757  24.741  1.00  0.00     0.207 A 
HETATM    2  C11 UNL     1      23.263  12.801  24.915  1.00  0.00     0.051 A 
HETATM    3  C12 UNL     1      24.291  12.994  24.004  1.00  0.00     0.039 A 
HETATM    4  C13 UNL     1      25.227  13.994  24.174  1.00  0.00     0.029 A 
HETATM    5 BR1  UNL     1      26.631  14.295  22.937  1.00  0.00    -0.050 Br
HETATM    6  C14 UNL     1      25.138  14.823  25.277  1.00  0.00     0.030 A 
HETATM    7 BR2  UNL     1      26.409  16.242  25.578  1.00  0.00    -0.050 Br
HETATM    8  C15 UNL     1      24.105  14.616  26.172  1.00  0.00     0.051 A 
HETATM    9  C16 UNL     1      23.155  13.606  26.002  1.00  0.00     0.065 A 
HETATM   10  N6  UNL     1      22.172  13.427  26.888  1.00  0.00    -0.190 N 
ATOM     11  H6  UNL     1      22.093  14.036  27.702  1.00  0.00     0.184 HD
HETATM   12  C17 UNL     1      21.271  12.416  26.691  1.00  0.00     0.690 A 
HETATM   13  N8  UNL     1      21.315  11.583  25.656  1.00  0.00    -0.154 N 
ENDROOT
BRANCH   1  14
HETATM   14  N5  UNL     1      22.428  11.142  23.712  1.00  0.00    -0.402 NA
BRANCH  14  15
HETATM   15  C9  UNL     1      22.542  10.469  22.564  1.00  0.00     0.159 C 
BRANCH  15  16
HETATM   16  C8  UNL     1      22.867  11.313  21.340  1.00  0.00     0.089 C 
BRANCH  16  17
HETATM   17  C7  UNL     1      22.978  10.638  20.044  1.00  0.00     0.278 C 
BRANCH  17  18
HETATM   18  N4  UNL     1      24.211  10.658  19.306  1.00  0.00     0.084 N 
HETATM   19  C6  UNL     1      24.410  11.943  18.680  1.00  0.00     0.309 C 
BRANCH  18  20
HETATM   20  C5  UNL     1      25.323  10.559  20.286  1.00  0.00     0.273 C 
BRANCH  20  21
HETATM   21  C4  UNL     1      26.548  11.273  19.841  1.00  0.00     0.050 C 
BRANCH  21  22
HETATM   22  C3  UNL     1      27.737  10.307  19.696  1.00  0.00     0.124 C 
BRANCH  22  23
HETATM   23  N3  UNL     1      28.199  10.037  21.053  1.00  0.00    -0.365 N 
HETATM   24  C2  UNL     1      29.253  10.571  21.550  1.00  0.00     0.183 C 
HETATM   25  N1  UNL     1      29.704  10.319  22.867  1.00  0.00    -0.369 N 
HETATM   26  N2  UNL     1      30.001  11.467  20.715  1.00  0.00    -0.064 NA
HETATM   27  C1  UNL     1      29.938   9.008  23.388  1.00  0.00     0.148 C 
ATOM     28  H1  UNL     1      29.873  11.118  23.478  1.00  0.00     0.161 HD
ATOM     29  H3  UNL     1      27.660   9.395  21.632  1.00  0.00     0.162 HD
ENDBRANCH  22  23
ENDBRANCH  21  22
ENDBRANCH  20  21
ENDBRANCH  18  20
ENDBRANCH  17  18
ENDBRANCH  16  17
ENDBRANCH  15  16
ENDBRANCH  14  15
ENDBRANCH   1  14
BRANCH  13  30
HETATM   30  C20 UNL     1      20.378  10.468  25.510  1.00  0.00     0.151 C 
BRANCH  30  31
HETATM   31  C21 UNL     1      19.290  10.797  24.533  1.00  0.00     0.025 C 
BRANCH  31  32
HETATM   32  C22 UNL     1      17.917  11.035  25.024  1.00  0.00    -0.021 C 
HETATM   33  C23 UNL     1      17.007  10.132  24.134  1.00  0.00     0.009 C 
HETATM   34  C24 UNL     1      17.346  12.417  24.770  1.00  0.00     0.009 C 
ENDBRANCH  31  32
ENDBRANCH  30  31
ENDBRANCH  13  30
BRANCH  12  35
HETATM   35  N7  UNL     1      20.242  12.362  27.477  1.00  0.00    -0.160 N 
HETATM   36  C18 UNL     1      20.081  13.009  28.712  1.00  0.00     0.231 C 
HETATM   37  C19 UNL     1      20.555  12.616  30.030  1.00  0.00     0.118 C 
HETATM   38  O1  UNL     1      19.408  14.113  28.660  1.00  0.00    -0.273 OA
ATOM     39  H7  UNL     1      19.462  11.784  27.163  1.00  0.00     0.187 HD
ENDBRANCH  12  35
TORSDOF 13
ENDMDL
