MODEL 1
REMARK VINA RESULT: -6.112621675      0.000      0.000
REMARK  14 active torsions:
REMARK  status: ('A' for Active; 'I' for Inactive)
REMARK    1  A    between atoms: C2_2  and  C3_3 
REMARK    2  A    between atoms: C5_6  and  O1_7 
REMARK    3  A    between atoms: C6_9  and  C7_10 
REMARK    4  A    between atoms: C7_10  and  C8_11 
REMARK       I    between atoms: C8_11  and  N2_13 
REMARK    5  A    between atoms: N2_13  and  N3_14 
REMARK    6  A    between atoms: N2_13  and  C9_17 
REMARK    7  A    between atoms: C9_17  and  C10_18 
REMARK    8  A    between atoms: C12_21  and  C13_22 
REMARK    9  A    between atoms: C13_22  and  C14_23 
REMARK   10  A    between atoms: C17_26  and  C18_27 
REMARK   11  A    between atoms: C18_27  and  C20_29 
REMARK   12  A    between atoms: C22_33  and  O3_34 
REMARK   13  A    between atoms: C23_36  and  C24_37 
REMARK   14  A    between atoms: C24_37  and  C25_38 
ROOT
HETATM    1  C3  UNL     1      31.132  15.757  24.506  1.00  0.00     0.056 C 
HETATM    2  C4  UNL     1      29.955  15.240  25.236  1.00  0.00     0.136 C 
HETATM    3  N1  UNL     1      28.636  15.370  24.585  1.00  0.00    -0.356 N 
HETATM    4  C5  UNL     1      27.707  14.288  24.432  1.00  0.00     0.144 C 
HETATM    5  C6  UNL     1      27.770  13.247  23.321  1.00  0.00    -0.002 C 
HETATM    6  C11 UNL     1      28.738  13.524  22.290  1.00  0.00    -0.008 C 
HETATM    7  C12 UNL     1      29.005  12.912  21.026  1.00  0.00     0.032 C 
HETATM    8  C17 UNL     1      29.680  13.946  20.046  1.00  0.00     0.094 C 
HETATM    9  N4  UNL     1      30.804  14.553  20.661  1.00  0.00    -0.367 N 
ATOM     10  H4  UNL     1      31.208  13.933  21.363  1.00  0.00     0.161 HD
HETATM   11  C22 UNL     1      31.516  15.743  20.588  1.00  0.00     0.143 C 
HETATM   12  C23 UNL     1      31.363  17.080  21.164  1.00  0.00     0.268 C 
HETATM   13  N6  UNL     1      31.699  17.214  22.581  1.00  0.00    -0.058 N 
ATOM     14  H61 UNL     1      31.917  18.183  22.815  1.00  0.00     0.278 HD
ATOM     15  H62 UNL     1      32.603  16.788  22.784  1.00  0.00     0.278 HD
HETATM   16  C26 UNL     1      30.686  16.697  23.440  1.00  0.00     0.201 C 
HETATM   17  C27 UNL     1      29.620  17.590  23.927  1.00  0.00     0.035 C 
HETATM   18  C28 UNL     1      29.944  18.477  25.074  1.00  0.00     0.014 C 
HETATM   19  C29 UNL     1      28.378  16.741  24.118  1.00  0.00     0.088 C 
HETATM   20  C30 UNL     1      27.517  17.555  25.063  1.00  0.00     0.033 C 
ENDROOT
BRANCH   5  21
HETATM   21  C7  UNL     1      26.465  12.649  23.036  1.00  0.00     0.147 C 
BRANCH  21  22
HETATM   22  C8  UNL     1      25.728  13.115  21.837  1.00  0.00     0.242 C 
HETATM   23  O2  UNL     1      25.678  14.357  21.563  1.00  0.00    -0.271 OA
HETATM   24  N2  UNL     1      25.062  12.231  20.959  1.00  0.00    -0.267 N 
BRANCH  24  25
HETATM   25  N3  UNL     1      25.119  10.838  21.227  1.00  0.00    -0.340 N 
ATOM     26  H32 UNL     1      24.527  10.415  21.942  1.00  0.00     0.177 HD
ATOM     27  H31 UNL     1      25.774  10.266  20.695  1.00  0.00     0.177 HD
ENDBRANCH  24  25
BRANCH  24  28
HETATM   28  C9  UNL     1      24.333  12.741  19.827  1.00  0.00     0.166 C 
BRANCH  28  29
HETATM   29  C10 UNL     1      23.873  11.690  18.860  1.00  0.00     0.136 C 
HETATM   30 CL1  UNL     1      25.144  11.069  17.809  1.00  0.00    -0.129 Cl
ENDBRANCH  28  29
ENDBRANCH  24  28
ENDBRANCH  21  22
ENDBRANCH   5  21
BRANCH   4  31
HETATM   31  O1  UNL     1      26.684  14.015  25.186  1.00  0.00    -0.346 OA
ATOM     32  H1  UNL     1      25.775  14.248  25.031  1.00  0.00     0.219 HD
ENDBRANCH   4  31
BRANCH   7  33
HETATM   33  C13 UNL     1      29.927  11.734  21.045  1.00  0.00     0.014 C 
BRANCH  33  34
HETATM   34  C14 UNL     1      29.409  10.393  20.734  1.00  0.00    -0.022 C 
HETATM   35  C15 UNL     1      28.820   9.597  21.842  1.00  0.00     0.009 C 
HETATM   36  C16 UNL     1      28.264  10.555  19.707  1.00  0.00     0.009 C 
ENDBRANCH  33  34
ENDBRANCH   7  33
BRANCH   8  37
HETATM   37  C18 UNL     1      28.631  14.812  19.449  1.00  0.00     0.004 C 
HETATM   38  C19 UNL     1      27.528  13.963  18.790  1.00  0.00     0.012 C 
BRANCH  37  39
HETATM   39  C20 UNL     1      29.227  15.550  18.265  1.00  0.00     0.002 C 
HETATM   40  C21 UNL     1      28.205  15.886  17.222  1.00  0.00     0.005 C 
ENDBRANCH  37  39
ENDBRANCH   8  37
BRANCH   1  41
HETATM   41  C2  UNL     1      32.253  16.251  25.314  1.00  0.00    -0.029 C 
HETATM   42  C1  UNL     1      33.523  16.217  24.988  1.00  0.00     0.007 C 
ENDBRANCH   1  41
BRANCH  11  43
HETATM   43  O3  UNL     1      32.580  15.658  19.824  1.00  0.00    -0.348 OA
ATOM     44  H3  UNL     1      33.349  16.057  20.213  1.00  0.00     0.219 HD
ENDBRANCH  11  43
BRANCH  12  45
HETATM   45  C24 UNL     1      32.276  18.101  20.518  1.00  0.00     0.141 C 
BRANCH  45  46
HETATM   46  C25 UNL     1      33.396  18.550  21.338  1.00  0.00     0.233 C 
HETATM   47  N5  UNL     1      34.485  17.635  21.492  1.00  0.00    -0.062 NA
HETATM   48  O4  UNL     1      33.535  19.642  21.933  1.00  0.00    -0.277 OA
ENDBRANCH  45  46
ENDBRANCH  12  45
TORSDOF 14
ENDMDL
MODEL 2
REMARK VINA RESULT: -5.959622931      3.267      6.307
REMARK  14 active torsions:
REMARK  status: ('A' for Active; 'I' for Inactive)
REMARK    1  A    between atoms: C2_2  and  C3_3 
REMARK    2  A    between atoms: C5_6  and  O1_7 
REMARK    3  A    between atoms: C6_9  and  C7_10 
REMARK    4  A    between atoms: C7_10  and  C8_11 
REMARK       I    between atoms: C8_11  and  N2_13 
REMARK    5  A    between atoms: N2_13  and  N3_14 
REMARK    6  A    between atoms: N2_13  and  C9_17 
REMARK    7  A    between atoms: C9_17  and  C10_18 
REMARK    8  A    between atoms: C12_21  and  C13_22 
REMARK    9  A    between atoms: C13_22  and  C14_23 
REMARK   10  A    between atoms: C17_26  and  C18_27 
REMARK   11  A    between atoms: C18_27  and  C20_29 
REMARK   12  A    between atoms: C22_33  and  O3_34 
REMARK   13  A    between atoms: C23_36  and  C24_37 
REMARK   14  A    between atoms: C24_37  and  C25_38 
ROOT
HETATM    1  C3  UNL     1      29.590  12.462  20.604  1.00  0.00     0.056 C 
HETATM    2  C4  UNL     1      28.342  12.481  19.811  1.00  0.00     0.136 C 
HETATM    3  N1  UNL     1      27.576  13.743  19.773  1.00  0.00    -0.356 N 
HETATM    4  C5  UNL     1      27.118  14.367  18.565  1.00  0.00     0.144 C 
HETATM    5  C6  UNL     1      27.974  15.260  17.677  1.00  0.00    -0.002 C 
HETATM    6  C11 UNL     1      29.259  15.606  18.229  1.00  0.00    -0.008 C 
HETATM    7  C12 UNL     1      30.275  16.521  17.812  1.00  0.00     0.032 C 
HETATM    8  C17 UNL     1      31.136  16.987  19.048  1.00  0.00     0.094 C 
HETATM    9  N4  UNL     1      31.609  15.866  19.776  1.00  0.00    -0.367 N 
ATOM     10  H4  UNL     1      31.697  15.052  19.167  1.00  0.00     0.161 HD
HETATM   11  C22 UNL     1      31.986  15.550  21.074  1.00  0.00     0.143 C 
HETATM   12  C23 UNL     1      31.279  15.157  22.294  1.00  0.00     0.268 C 
HETATM   13  N6  UNL     1      30.775  13.784  22.334  1.00  0.00    -0.058 N 
ATOM     14  H61 UNL     1      30.630  13.477  23.296  1.00  0.00     0.278 HD
ATOM     15  H62 UNL     1      31.499  13.122  22.056  1.00  0.00     0.278 HD
HETATM   16  C26 UNL     1      29.594  13.607  21.557  1.00  0.00     0.201 C 
HETATM   17  C27 UNL     1      28.274  13.780  22.189  1.00  0.00     0.035 C 
HETATM   18  C28 UNL     1      27.748  12.645  22.992  1.00  0.00     0.014 C 
HETATM   19  C29 UNL     1      27.328  14.285  21.117  1.00  0.00     0.088 C 
HETATM   20  C30 UNL     1      25.950  13.961  21.661  1.00  0.00     0.033 C 
ENDROOT
BRANCH   5  21
HETATM   21  C7  UNL     1      27.176  16.202  16.890  1.00  0.00     0.147 C 
BRANCH  21  22
HETATM   22  C8  UNL     1      27.802  16.829  15.701  1.00  0.00     0.242 C 
HETATM   23  O2  UNL     1      28.309  16.099  14.790  1.00  0.00    -0.271 OA
HETATM   24  N2  UNL     1      27.867  18.229  15.521  1.00  0.00    -0.267 N 
BRANCH  24  25
HETATM   25  N3  UNL     1      27.291  19.066  16.511  1.00  0.00    -0.340 N 
ATOM     26  H32 UNL     1      26.282  19.102  16.650  1.00  0.00     0.177 HD
ATOM     27  H31 UNL     1      27.910  19.644  17.080  1.00  0.00     0.177 HD
ENDBRANCH  24  25
BRANCH  24  28
HETATM   28  C9  UNL     1      28.518  18.784  14.363  1.00  0.00     0.166 C 
BRANCH  28  29
HETATM   29  C10 UNL     1      27.582  19.212  13.271  1.00  0.00     0.136 C 
HETATM   30 CL1  UNL     1      27.079  17.907  12.199  1.00  0.00    -0.129 Cl
ENDBRANCH  28  29
ENDBRANCH  24  28
ENDBRANCH  21  22
ENDBRANCH   5  21
BRANCH   4  31
HETATM   31  O1  UNL     1      25.933  14.285  18.036  1.00  0.00    -0.346 OA
ATOM     32  H1  UNL     1      25.471  13.496  17.776  1.00  0.00     0.219 HD
ENDBRANCH   4  31
BRANCH   7  33
HETATM   33  C13 UNL     1      31.268  15.998  16.821  1.00  0.00     0.014 C 
BRANCH  33  34
HETATM   34  C14 UNL     1      32.176  16.929  16.134  1.00  0.00    -0.022 C 
HETATM   35  C15 UNL     1      33.621  16.586  16.083  1.00  0.00     0.009 C 
HETATM   36  C16 UNL     1      31.734  17.014  14.655  1.00  0.00     0.009 C 
ENDBRANCH  33  34
ENDBRANCH   7  33
BRANCH   8  37
HETATM   37  C18 UNL     1      30.411  18.063  19.772  1.00  0.00     0.004 C 
HETATM   38  C19 UNL     1      29.860  19.111  18.789  1.00  0.00     0.012 C 
BRANCH  37  39
HETATM   39  C20 UNL     1      31.414  18.865  20.579  1.00  0.00     0.002 C 
HETATM   40  C21 UNL     1      31.052  18.948  22.030  1.00  0.00     0.005 C 
ENDBRANCH  37  39
ENDBRANCH   8  37
BRANCH   1  41
HETATM   41  C2  UNL     1      29.981  11.180  21.199  1.00  0.00    -0.029 C 
HETATM   42  C1  UNL     1      29.259  10.085  21.235  1.00  0.00     0.007 C 
ENDBRANCH   1  41
BRANCH  11  43
HETATM   43  O3  UNL     1      33.284  15.617  21.262  1.00  0.00    -0.348 OA
ATOM     44  H3  UNL     1      33.537  16.311  21.858  1.00  0.00     0.219 HD
ENDBRANCH  11  43
BRANCH  12  45
HETATM   45  C24 UNL     1      32.160  15.213  23.524  1.00  0.00     0.141 C 
BRANCH  45  46
HETATM   46  C25 UNL     1      31.609  15.942  24.660  1.00  0.00     0.233 C 
HETATM   47  N5  UNL     1      30.272  15.610  25.047  1.00  0.00    -0.062 NA
HETATM   48  O4  UNL     1      32.154  16.831  25.352  1.00  0.00    -0.277 OA
ENDBRANCH  45  46
ENDBRANCH  12  45
TORSDOF 14
ENDMDL
MODEL 3
REMARK VINA RESULT: -5.958531744      2.399      4.996
REMARK  14 active torsions:
REMARK  status: ('A' for Active; 'I' for Inactive)
REMARK    1  A    between atoms: C2_2  and  C3_3 
REMARK    2  A    between atoms: C5_6  and  O1_7 
REMARK    3  A    between atoms: C6_9  and  C7_10 
REMARK    4  A    between atoms: C7_10  and  C8_11 
REMARK       I    between atoms: C8_11  and  N2_13 
REMARK    5  A    between atoms: N2_13  and  N3_14 
REMARK    6  A    between atoms: N2_13  and  C9_17 
REMARK    7  A    between atoms: C9_17  and  C10_18 
REMARK    8  A    between atoms: C12_21  and  C13_22 
REMARK    9  A    between atoms: C13_22  and  C14_23 
REMARK   10  A    between atoms: C17_26  and  C18_27 
REMARK   11  A    between atoms: C18_27  and  C20_29 
REMARK   12  A    between atoms: C22_33  and  O3_34 
REMARK   13  A    between atoms: C23_36  and  C24_37 
REMARK   14  A    between atoms: C24_37  and  C25_38 
ROOT
HETATM    1  C3  UNL     1      29.631  17.708  19.475  1.00  0.00     0.056 C 
HETATM    2  C4  UNL     1      28.757  17.438  18.313  1.00  0.00     0.136 C 
HETATM    3  N1  UNL     1      28.856  16.109  17.678  1.00  0.00    -0.356 N 
HETATM    4  C5  UNL     1      27.728  15.270  17.394  1.00  0.00     0.144 C 
HETATM    5  C6  UNL     1      27.057  14.353  18.409  1.00  0.00    -0.002 C 
HETATM    6  C11 UNL     1      27.754  14.233  19.665  1.00  0.00    -0.008 C 
HETATM    7  C12 UNL     1      27.563  13.382  20.798  1.00  0.00     0.032 C 
HETATM    8  C17 UNL     1      28.919  13.197  21.581  1.00  0.00     0.094 C 
HETATM    9  N4  UNL     1      29.499  14.457  21.876  1.00  0.00    -0.367 N 
ATOM     10  H4  UNL     1      28.779  15.178  21.942  1.00  0.00     0.161 HD
HETATM   11  C22 UNL     1      30.757  14.999  22.100  1.00  0.00     0.143 C 
HETATM   12  C23 UNL     1      31.844  15.487  21.249  1.00  0.00     0.268 C 
HETATM   13  N6  UNL     1      31.632  16.789  20.615  1.00  0.00    -0.058 N 
ATOM     14  H61 UNL     1      32.519  17.216  20.353  1.00  0.00     0.278 HD
ATOM     15  H62 UNL     1      31.310  17.478  21.295  1.00  0.00     0.278 HD
HETATM   16  C26 UNL     1      30.747  16.722  19.499  1.00  0.00     0.201 C 
HETATM   17  C27 UNL     1      31.295  16.502  18.150  1.00  0.00     0.035 C 
HETATM   18  C28 UNL     1      31.870  17.678  17.446  1.00  0.00     0.014 C 
HETATM   19  C29 UNL     1      30.245  15.747  17.358  1.00  0.00     0.088 C 
HETATM   20  C30 UNL     1      30.624  15.995  15.912  1.00  0.00     0.033 C 
ENDROOT
BRANCH   5  21
HETATM   21  C7  UNL     1      26.367  13.226  17.780  1.00  0.00     0.147 C 
BRANCH  21  22
HETATM   22  C8  UNL     1      24.955  12.973  18.154  1.00  0.00     0.242 C 
HETATM   23  O2  UNL     1      24.043  13.778  17.778  1.00  0.00    -0.271 OA
HETATM   24  N2  UNL     1      24.556  11.857  18.924  1.00  0.00    -0.267 N 
BRANCH  24  25
HETATM   25  N3  UNL     1      25.549  10.932  19.340  1.00  0.00    -0.340 N 
ATOM     26  H32 UNL     1      26.409  10.806  18.806  1.00  0.00     0.177 HD
ATOM     27  H31 UNL     1      25.381  10.384  20.183  1.00  0.00     0.177 HD
ENDBRANCH  24  25
BRANCH  24  28
HETATM   28  C9  UNL     1      23.175  11.679  19.286  1.00  0.00     0.166 C 
BRANCH  28  29
HETATM   29  C10 UNL     1      22.888  10.413  20.038  1.00  0.00     0.136 C 
HETATM   30 CL1  UNL     1      22.799  10.615  21.786  1.00  0.00    -0.129 Cl
ENDBRANCH  28  29
ENDBRANCH  24  28
ENDBRANCH  21  22
ENDBRANCH   5  21
BRANCH   4  31
HETATM   31  O1  UNL     1      27.103  15.145  16.261  1.00  0.00    -0.346 OA
ATOM     32  H1  UNL     1      27.199  14.447  15.623  1.00  0.00     0.219 HD
ENDBRANCH   4  31
BRANCH   7  33
HETATM   33  C13 UNL     1      26.583  13.858  21.824  1.00  0.00     0.014 C 
BRANCH  33  34
HETATM   34  C14 UNL     1      26.483  13.166  23.118  1.00  0.00    -0.022 C 
HETATM   35  C15 UNL     1      27.088  13.819  24.308  1.00  0.00     0.009 C 
HETATM   36  C16 UNL     1      24.982  13.021  23.461  1.00  0.00     0.009 C 
ENDBRANCH  33  34
ENDBRANCH   7  33
BRANCH   8  37
HETATM   37  C18 UNL     1      29.744  12.168  20.898  1.00  0.00     0.004 C 
HETATM   38  C19 UNL     1      28.857  11.208  20.082  1.00  0.00     0.012 C 
BRANCH  37  39
HETATM   39  C20 UNL     1      30.341  11.250  21.947  1.00  0.00     0.002 C 
HETATM   40  C21 UNL     1      29.408  10.148  22.347  1.00  0.00     0.005 C 
ENDBRANCH  37  39
ENDBRANCH   8  37
BRANCH   1  41
HETATM   41  C2  UNL     1      30.049  19.098  19.685  1.00  0.00    -0.029 C 
HETATM   42  C1  UNL     1      29.279  20.097  20.046  1.00  0.00     0.007 C 
ENDBRANCH   1  41
BRANCH  11  43
HETATM   43  O3  UNL     1      31.053  15.101  23.375  1.00  0.00    -0.348 OA
ATOM     44  H3  UNL     1      31.658  15.809  23.561  1.00  0.00     0.219 HD
ENDBRANCH  11  43
BRANCH  12  45
HETATM   45  C24 UNL     1      33.131  15.707  22.014  1.00  0.00     0.141 C 
BRANCH  45  46
HETATM   46  C25 UNL     1      33.378  17.077  22.449  1.00  0.00     0.233 C 
HETATM   47  N5  UNL     1      34.501  17.743  21.864  1.00  0.00    -0.062 NA
HETATM   48  O4  UNL     1      32.732  17.758  23.277  1.00  0.00    -0.277 OA
ENDBRANCH  45  46
ENDBRANCH  12  45
TORSDOF 14
ENDMDL
MODEL 4
REMARK VINA RESULT: -5.847568345      2.933      5.972
REMARK  14 active torsions:
REMARK  status: ('A' for Active; 'I' for Inactive)
REMARK    1  A    between atoms: C2_2  and  C3_3 
REMARK    2  A    between atoms: C5_6  and  O1_7 
REMARK    3  A    between atoms: C6_9  and  C7_10 
REMARK    4  A    between atoms: C7_10  and  C8_11 
REMARK       I    between atoms: C8_11  and  N2_13 
REMARK    5  A    between atoms: N2_13  and  N3_14 
REMARK    6  A    between atoms: N2_13  and  C9_17 
REMARK    7  A    between atoms: C9_17  and  C10_18 
REMARK    8  A    between atoms: C12_21  and  C13_22 
REMARK    9  A    between atoms: C13_22  and  C14_23 
REMARK   10  A    between atoms: C17_26  and  C18_27 
REMARK   11  A    between atoms: C18_27  and  C20_29 
REMARK   12  A    between atoms: C22_33  and  O3_34 
REMARK   13  A    between atoms: C23_36  and  C24_37 
REMARK   14  A    between atoms: C24_37  and  C25_38 
ROOT
HETATM    1  C3  UNL     1      28.949  12.314  21.848  1.00  0.00     0.056 C 
HETATM    2  C4  UNL     1      27.862  12.207  20.850  1.00  0.00     0.136 C 
HETATM    3  N1  UNL     1      27.192  13.454  20.434  1.00  0.00    -0.356 N 
HETATM    4  C5  UNL     1      26.990  13.839  19.067  1.00  0.00     0.144 C 
HETATM    5  C6  UNL     1      28.041  14.518  18.198  1.00  0.00    -0.002 C 
HETATM    6  C11 UNL     1      29.228  14.934  18.901  1.00  0.00    -0.008 C 
HETATM    7  C12 UNL     1      30.354  15.724  18.511  1.00  0.00     0.032 C 
HETATM    8  C17 UNL     1      31.011  16.404  19.774  1.00  0.00     0.094 C 
HETATM    9  N4  UNL     1      31.281  15.437  20.775  1.00  0.00    -0.367 N 
ATOM     10  H4  UNL     1      31.426  14.517  20.358  1.00  0.00     0.161 HD
HETATM   11  C22 UNL     1      31.405  15.374  22.156  1.00  0.00     0.143 C 
HETATM   12  C23 UNL     1      30.473  15.248  23.278  1.00  0.00     0.268 C 
HETATM   13  N6  UNL     1      29.889  13.922  23.484  1.00  0.00    -0.058 N 
ATOM     14  H61 UNL     1      29.559  13.814  24.443  1.00  0.00     0.278 HD
ATOM     15  H62 UNL     1      30.609  13.200  23.474  1.00  0.00     0.278 HD
HETATM   16  C26 UNL     1      28.853  13.624  22.551  1.00  0.00     0.201 C 
HETATM   17  C27 UNL     1      27.457  13.950  22.886  1.00  0.00     0.035 C 
HETATM   18  C28 UNL     1      26.731  13.010  23.779  1.00  0.00     0.014 C 
HETATM   19  C29 UNL     1      26.744  14.257  21.583  1.00  0.00     0.088 C 
HETATM   20  C30 UNL     1      25.276  14.081  21.915  1.00  0.00     0.033 C 
ENDROOT
BRANCH   5  21
HETATM   21  C7  UNL     1      27.450  15.305  17.114  1.00  0.00     0.147 C 
BRANCH  21  22
HETATM   22  C8  UNL     1      27.761  16.754  17.050  1.00  0.00     0.242 C 
HETATM   23  O2  UNL     1      27.307  17.541  17.943  1.00  0.00    -0.271 OA
HETATM   24  N2  UNL     1      28.553  17.321  16.028  1.00  0.00    -0.267 N 
BRANCH  24  25
HETATM   25  N3  UNL     1      29.089  16.464  15.032  1.00  0.00    -0.340 N 
ATOM     26  H32 UNL     1      29.937  16.712  14.523  1.00  0.00     0.177 HD
ATOM     27  H31 UNL     1      28.602  15.592  14.826  1.00  0.00     0.177 HD
ENDBRANCH  24  25
BRANCH  24  28
HETATM   28  C9  UNL     1      28.795  18.740  15.997  1.00  0.00     0.166 C 
BRANCH  28  29
HETATM   29  C10 UNL     1      27.735  19.535  15.293  1.00  0.00     0.136 C 
HETATM   30 CL1  UNL     1      27.584  19.177  13.574  1.00  0.00    -0.129 Cl
ENDBRANCH  28  29
ENDBRANCH  24  28
ENDBRANCH  21  22
ENDBRANCH   5  21
BRANCH   4  31
HETATM   31  O1  UNL     1      25.914  13.683  18.354  1.00  0.00    -0.346 OA
ATOM     32  H1  UNL     1      25.092  13.293  18.629  1.00  0.00     0.219 HD
ENDBRANCH   4  31
BRANCH   7  33
HETATM   33  C13 UNL     1      31.472  14.992  17.837  1.00  0.00     0.014 C 
BRANCH  33  34
HETATM   34  C14 UNL     1      32.727  15.695  17.530  1.00  0.00    -0.022 C 
HETATM   35  C15 UNL     1      33.924  14.877  17.206  1.00  0.00     0.009 C 
HETATM   36  C16 UNL     1      32.486  16.565  16.275  1.00  0.00     0.009 C 
ENDBRANCH  33  34
ENDBRANCH   7  33
BRANCH   8  37
HETATM   37  C18 UNL     1      30.236  17.618  20.135  1.00  0.00     0.004 C 
HETATM   38  C19 UNL     1      30.294  18.663  19.005  1.00  0.00     0.012 C 
BRANCH  37  39
HETATM   39  C20 UNL     1      30.947  18.327  21.272  1.00  0.00     0.002 C 
HETATM   40  C21 UNL     1      29.999  18.853  22.306  1.00  0.00     0.005 C 
ENDBRANCH  37  39
ENDBRANCH   8  37
BRANCH   1  41
HETATM   41  C2  UNL     1      29.152  11.165  22.737  1.00  0.00    -0.029 C 
HETATM   42  C1  UNL     1      29.453   9.941  22.374  1.00  0.00     0.007 C 
ENDBRANCH   1  41
BRANCH  11  43
HETATM   43  O3  UNL     1      32.652  15.445  22.563  1.00  0.00    -0.348 OA
ATOM     44  H3  UNL     1      32.733  15.738  23.463  1.00  0.00     0.219 HD
ENDBRANCH  11  43
BRANCH  12  45
HETATM   45  C24 UNL     1      31.127  15.523  24.615  1.00  0.00     0.141 C 
BRANCH  45  46
HETATM   46  C25 UNL     1      30.216  15.647  25.747  1.00  0.00     0.233 C 
HETATM   47  N5  UNL     1      29.987  16.970  26.243  1.00  0.00    -0.062 NA
HETATM   48  O4  UNL     1      29.600  14.742  26.352  1.00  0.00    -0.277 OA
ENDBRANCH  45  46
ENDBRANCH  12  45
TORSDOF 14
ENDMDL
MODEL 5
REMARK VINA RESULT: -5.745109800      3.340      6.279
REMARK  14 active torsions:
REMARK  status: ('A' for Active; 'I' for Inactive)
REMARK    1  A    between atoms: C2_2  and  C3_3 
REMARK    2  A    between atoms: C5_6  and  O1_7 
REMARK    3  A    between atoms: C6_9  and  C7_10 
REMARK    4  A    between atoms: C7_10  and  C8_11 
REMARK       I    between atoms: C8_11  and  N2_13 
REMARK    5  A    between atoms: N2_13  and  N3_14 
REMARK    6  A    between atoms: N2_13  and  C9_17 
REMARK    7  A    between atoms: C9_17  and  C10_18 
REMARK    8  A    between atoms: C12_21  and  C13_22 
REMARK    9  A    between atoms: C13_22  and  C14_23 
REMARK   10  A    between atoms: C17_26  and  C18_27 
REMARK   11  A    between atoms: C18_27  and  C20_29 
REMARK   12  A    between atoms: C22_33  and  O3_34 
REMARK   13  A    between atoms: C23_36  and  C24_37 
REMARK   14  A    between atoms: C24_37  and  C25_38 
ROOT
HETATM    1  C3  UNL     1      29.610  12.455  20.644  1.00  0.00     0.056 C 
HETATM    2  C4  UNL     1      28.356  12.423  19.861  1.00  0.00     0.136 C 
HETATM    3  N1  UNL     1      27.567  13.668  19.785  1.00  0.00    -0.356 N 
HETATM    4  C5  UNL     1      27.088  14.241  18.560  1.00  0.00     0.144 C 
HETATM    5  C6  UNL     1      27.921  15.118  17.634  1.00  0.00    -0.002 C 
HETATM    6  C11 UNL     1      29.203  15.507  18.165  1.00  0.00    -0.008 C 
HETATM    7  C12 UNL     1      30.199  16.425  17.707  1.00  0.00     0.032 C 
HETATM    8  C17 UNL     1      31.059  16.951  18.920  1.00  0.00     0.094 C 
HETATM    9  N4  UNL     1      31.558  15.865  19.683  1.00  0.00    -0.367 N 
ATOM     10  H4  UNL     1      31.658  15.032  19.102  1.00  0.00     0.161 HD
HETATM   11  C22 UNL     1      31.951  15.601  20.988  1.00  0.00     0.143 C 
HETATM   12  C23 UNL     1      31.260  15.239  22.227  1.00  0.00     0.268 C 
HETATM   13  N6  UNL     1      30.783  13.859  22.319  1.00  0.00    -0.058 N 
ATOM     14  H61 UNL     1      30.650  13.582  23.291  1.00  0.00     0.278 HD
ATOM     15  H62 UNL     1      31.516  13.200  22.058  1.00  0.00     0.278 HD
HETATM   16  C26 UNL     1      29.599  13.632  21.557  1.00  0.00     0.201 C 
HETATM   17  C27 UNL     1      28.281  13.802  22.193  1.00  0.00     0.035 C 
HETATM   18  C28 UNL     1      27.782  12.688  23.039  1.00  0.00     0.014 C 
HETATM   19  C29 UNL     1      27.317  14.252  21.112  1.00  0.00     0.088 C 
HETATM   20  C30 UNL     1      25.950  13.922  21.677  1.00  0.00     0.033 C 
ENDROOT
BRANCH   5  21
HETATM   21  C7  UNL     1      27.099  16.017  16.821  1.00  0.00     0.147 C 
BRANCH  21  22
HETATM   22  C8  UNL     1      27.266  17.479  17.006  1.00  0.00     0.242 C 
HETATM   23  O2  UNL     1      27.072  18.001  18.151  1.00  0.00    -0.271 OA
HETATM   24  N2  UNL     1      27.640  18.344  15.954  1.00  0.00    -0.267 N 
BRANCH  24  25
HETATM   25  N3  UNL     1      27.884  17.785  14.672  1.00  0.00    -0.340 N 
ATOM     26  H32 UNL     1      28.092  16.793  14.560  1.00  0.00     0.177 HD
ATOM     27  H31 UNL     1      27.857  18.401  13.859  1.00  0.00     0.177 HD
ENDBRANCH  24  25
BRANCH  24  28
HETATM   28  C9  UNL     1      27.756  19.760  16.182  1.00  0.00     0.166 C 
BRANCH  28  29
HETATM   29  C10 UNL     1      28.533  20.498  15.132  1.00  0.00     0.136 C 
HETATM   30 CL1  UNL     1      30.278  20.283  15.240  1.00  0.00    -0.129 Cl
ENDBRANCH  28  29
ENDBRANCH  24  28
ENDBRANCH  21  22
ENDBRANCH   5  21
BRANCH   4  31
HETATM   31  O1  UNL     1      25.901  14.118  18.043  1.00  0.00    -0.346 OA
ATOM     32  H1  UNL     1      25.076  14.033  18.507  1.00  0.00     0.219 HD
ENDBRANCH   4  31
BRANCH   7  33
HETATM   33  C13 UNL     1      31.194  15.887  16.728  1.00  0.00     0.014 C 
BRANCH  33  34
HETATM   34  C14 UNL     1      32.004  16.814  15.923  1.00  0.00    -0.022 C 
HETATM   35  C15 UNL     1      33.448  16.510  15.750  1.00  0.00     0.009 C 
HETATM   36  C16 UNL     1      31.424  16.825  14.489  1.00  0.00     0.009 C 
ENDBRANCH  33  34
ENDBRANCH   7  33
BRANCH   8  37
HETATM   37  C18 UNL     1      30.320  18.037  19.612  1.00  0.00     0.004 C 
HETATM   38  C19 UNL     1      30.153  19.260  18.691  1.00  0.00     0.012 C 
BRANCH  37  39
HETATM   39  C20 UNL     1      31.191  18.583  20.727  1.00  0.00     0.002 C 
HETATM   40  C21 UNL     1      30.417  18.860  21.980  1.00  0.00     0.005 C 
ENDBRANCH  37  39
ENDBRANCH   8  37
BRANCH   1  41
HETATM   41  C2  UNL     1      30.029  11.202  21.281  1.00  0.00    -0.029 C 
HETATM   42  C1  UNL     1      29.335  10.090  21.346  1.00  0.00     0.007 C 
ENDBRANCH   1  41
BRANCH  11  43
HETATM   43  O3  UNL     1      33.248  15.699  21.164  1.00  0.00    -0.348 OA
ATOM     44  H3  UNL     1      33.521  15.479  22.046  1.00  0.00     0.219 HD
ENDBRANCH  11  43
BRANCH  12  45
HETATM   45  C24 UNL     1      32.149  15.354  23.447  1.00  0.00     0.141 C 
BRANCH  45  46
HETATM   46  C25 UNL     1      31.527  15.948  24.624  1.00  0.00     0.233 C 
HETATM   47  N5  UNL     1      30.195  15.520  24.930  1.00  0.00    -0.062 NA
HETATM   48  O4  UNL     1      32.005  16.791  25.415  1.00  0.00    -0.277 OA
ENDBRANCH  45  46
ENDBRANCH  12  45
TORSDOF 14
ENDMDL
