MODEL 1
REMARK VINA RESULT: -8.824693506      0.000      0.000
REMARK  15 active torsions:
REMARK  status: ('A' for Active; 'I' for Inactive)
REMARK    1  A    between atoms: C2_2  and  C4_4 
REMARK    2  A    between atoms: C4_4  and  C5_5 
REMARK    3  A    between atoms: C5_5  and  O1_6 
REMARK    4  A    between atoms: C5_5  and  N1_8 
REMARK    5  A    between atoms: N1_8  and  C7_10 
REMARK       I    between atoms: N2_13  and  C10_14 
REMARK    6  A    between atoms: C10_14  and  C11_16 
REMARK    7  A    between atoms: C11_16  and  N3_17 
REMARK    8  A    between atoms: C11_16  and  C28_44 
REMARK       I    between atoms: N3_17  and  C12_19 
REMARK    9  A    between atoms: C12_19  and  C13_21 
REMARK   10  A    between atoms: C13_21  and  N4_22 
REMARK   11  A    between atoms: C13_21  and  C25_41 
REMARK       I    between atoms: N4_22  and  C14_24 
REMARK   12  A    between atoms: C14_24  and  C15_26 
REMARK   13  A    between atoms: C15_26  and  N5_27 
REMARK   14  A    between atoms: C15_26  and  C21_37 
REMARK       I    between atoms: N5_27  and  C16_29 
REMARK   15  A    between atoms: C16_29  and  C17_31 
ROOT
HETATM    1  N3  UNL     1      18.252  12.210  26.779  1.00  0.00    -0.346 N 
ATOM      2  H3  UNL     1      17.573  11.967  27.500  1.00  0.00     0.163 HD
HETATM    3  C12 UNL     1      17.765  12.439  25.461  1.00  0.00     0.241 C 
HETATM    4  O3  UNL     1      18.641  12.767  24.630  1.00  0.00    -0.271 OA
ENDROOT
BRANCH   3   5
HETATM    5  C13 UNL     1      16.331  12.275  25.170  1.00  0.00     0.180 C 
BRANCH   5   6
HETATM    6  N4  UNL     1      15.504  12.484  26.370  1.00  0.00    -0.342 N 
HETATM    7  C14 UNL     1      14.428  13.395  26.394  1.00  0.00     0.265 C 
HETATM    8  O4  UNL     1      14.257  13.995  25.270  1.00  0.00    -0.266 OA
ATOM      9  H4  UNL     1      15.716  11.951  27.213  1.00  0.00     0.163 HD
BRANCH   7  10
HETATM   10  C15 UNL     1      13.520  13.743  27.473  1.00  0.00     0.087 C 
BRANCH  10  11
HETATM   11  N5  UNL     1      12.730  12.707  28.077  1.00  0.00    -0.325 N 
HETATM   12  C16 UNL     1      12.505  11.395  27.810  1.00  0.00     0.226 C 
HETATM   13  O5  UNL     1      12.961  10.646  26.947  1.00  0.00    -0.273 OA
ATOM     14  H5  UNL     1      12.219  13.032  28.897  1.00  0.00     0.169 HD
BRANCH  12  15
HETATM   15  C17 UNL     1      11.475  10.671  28.718  1.00  0.00     0.089 C 
HETATM   16  C18 UNL     1      11.498  11.517  30.010  1.00  0.00     0.093 C 
HETATM   17  C19 UNL     1       9.969  11.540  30.005  1.00  0.00     0.245 C 
HETATM   18  F1  UNL     1       9.405  12.781  30.171  1.00  0.00    -0.206 F 
HETATM   19  F2  UNL     1       9.406  10.629  30.856  1.00  0.00    -0.206 F 
HETATM   20  C20 UNL     1      10.076  11.101  28.544  1.00  0.00     0.093 C 
ENDBRANCH  12  15
ENDBRANCH  10  11
BRANCH  10  21
HETATM   21  C21 UNL     1      13.988  14.757  28.459  1.00  0.00    -0.003 C 
HETATM   22  C22 UNL     1      12.819  15.346  29.262  1.00  0.00     0.021 C 
HETATM   23  C23 UNL     1      14.750  15.897  27.874  1.00  0.00     0.021 C 
HETATM   24  C24 UNL     1      14.867  14.100  29.526  1.00  0.00     0.021 C 
ENDBRANCH  10  21
ENDBRANCH   7  10
ENDBRANCH   5   6
BRANCH   5  25
HETATM   25  C25 UNL     1      15.957  11.090  24.359  1.00  0.00     0.009 C 
HETATM   26  C26 UNL     1      16.813   9.856  24.702  1.00  0.00     0.012 C 
HETATM   27  C27 UNL     1      15.968  11.303  22.870  1.00  0.00     0.012 C 
ENDBRANCH   5  25
ENDBRANCH   3   5
BRANCH   1  28
HETATM   28  C11 UNL     1      19.662  12.299  27.173  1.00  0.00     0.180 C 
BRANCH  28  29
HETATM   29  C10 UNL     1      20.357  11.062  26.729  1.00  0.00     0.243 C 
HETATM   30  N2  UNL     1      21.215  10.918  25.626  1.00  0.00    -0.348 N 
HETATM   31  C9  UNL     1      21.837   9.623  25.274  1.00  0.00     0.128 C 
HETATM   32  C31 UNL     1      21.676  11.918  24.642  1.00  0.00     0.151 C 
HETATM   33  C8  UNL     1      22.809   9.934  24.163  1.00  0.00     0.047 C 
HETATM   34  C7  UNL     1      21.998  11.074  23.474  1.00  0.00     0.105 C 
HETATM   35  O2  UNL     1      20.159   9.993  27.415  1.00  0.00    -0.271 OA
BRANCH  34  36
HETATM   36  N1  UNL     1      22.738  11.620  22.404  1.00  0.00    -0.363 N 
HETATM   37  C6  UNL     1      23.364  12.950  22.696  1.00  0.00     0.152 C 
BRANCH  36  38
HETATM   38  C5  UNL     1      22.930  11.136  21.089  1.00  0.00     0.113 C 
BRANCH  38  39
HETATM   39  C4  UNL     1      23.578  11.776  19.955  1.00  0.00     0.087 C 
BRANCH  39  40
HETATM   40  C2  UNL     1      24.690  10.940  19.338  1.00  0.00    -0.015 C 
HETATM   41  C1  UNL     1      25.148  11.487  18.016  1.00  0.00     0.010 C 
HETATM   42  C3  UNL     1      25.858  10.718  20.233  1.00  0.00     0.010 C 
ENDBRANCH  39  40
ENDBRANCH  38  39
BRANCH  38  43
HETATM   43  O1  UNL     1      22.460   9.943  20.838  1.00  0.00    -0.349 OA
ATOM     44  H1  UNL     1      22.712   9.280  21.471  1.00  0.00     0.219 HD
ENDBRANCH  38  43
ENDBRANCH  36  38
ENDBRANCH  34  36
ENDBRANCH  28  29
BRANCH  28  45
HETATM   45  C28 UNL     1      19.729  12.368  28.676  1.00  0.00     0.009 C 
HETATM   46  C29 UNL     1      20.944  13.206  29.058  1.00  0.00     0.012 C 
HETATM   47  C30 UNL     1      18.501  13.003  29.243  1.00  0.00     0.012 C 
ENDBRANCH  28  45
ENDBRANCH   1  28
TORSDOF 15
ENDMDL
MODEL 2
REMARK VINA RESULT: -8.548888570      5.051     11.974
REMARK  15 active torsions:
REMARK  status: ('A' for Active; 'I' for Inactive)
REMARK    1  A    between atoms: C2_2  and  C4_4 
REMARK    2  A    between atoms: C4_4  and  C5_5 
REMARK    3  A    between atoms: C5_5  and  O1_6 
REMARK    4  A    between atoms: C5_5  and  N1_8 
REMARK    5  A    between atoms: N1_8  and  C7_10 
REMARK       I    between atoms: N2_13  and  C10_14 
REMARK    6  A    between atoms: C10_14  and  C11_16 
REMARK    7  A    between atoms: C11_16  and  N3_17 
REMARK    8  A    between atoms: C11_16  and  C28_44 
REMARK       I    between atoms: N3_17  and  C12_19 
REMARK    9  A    between atoms: C12_19  and  C13_21 
REMARK   10  A    between atoms: C13_21  and  N4_22 
REMARK   11  A    between atoms: C13_21  and  C25_41 
REMARK       I    between atoms: N4_22  and  C14_24 
REMARK   12  A    between atoms: C14_24  and  C15_26 
REMARK   13  A    between atoms: C15_26  and  N5_27 
REMARK   14  A    between atoms: C15_26  and  C21_37 
REMARK       I    between atoms: N5_27  and  C16_29 
REMARK   15  A    between atoms: C16_29  and  C17_31 
ROOT
HETATM    1  N3  UNL     1      23.609  12.598  24.278  1.00  0.00    -0.346 N 
ATOM      2  H3  UNL     1      24.302  11.879  24.485  1.00  0.00     0.163 HD
HETATM    3  C12 UNL     1      24.063  13.941  24.152  1.00  0.00     0.241 C 
HETATM    4  O3  UNL     1      23.172  14.770  23.863  1.00  0.00    -0.271 OA
ENDROOT
BRANCH   3   5
HETATM    5  C13 UNL     1      25.485  14.257  24.367  1.00  0.00     0.180 C 
BRANCH   5   6
HETATM    6  N4  UNL     1      26.366  13.246  23.760  1.00  0.00    -0.342 N 
HETATM    7  C14 UNL     1      26.950  13.421  22.489  1.00  0.00     0.265 C 
HETATM    8  O4  UNL     1      26.636  14.543  21.946  1.00  0.00    -0.266 OA
ATOM      9  H4  UNL     1      26.562  12.390  24.278  1.00  0.00     0.163 HD
BRANCH   7  10
HETATM   10  C15 UNL     1      27.822  12.542  21.729  1.00  0.00     0.087 C 
BRANCH  10  11
HETATM   11  N5  UNL     1      27.292  11.861  20.582  1.00  0.00    -0.325 N 
HETATM   12  C16 UNL     1      26.686  12.251  19.431  1.00  0.00     0.226 C 
HETATM   13  O5  UNL     1      26.426  13.366  18.981  1.00  0.00    -0.273 OA
ATOM     14  H5  UNL     1      27.395  10.848  20.646  1.00  0.00     0.169 HD
BRANCH  12  15
HETATM   15  C17 UNL     1      26.194  11.118  18.490  1.00  0.00     0.089 C 
HETATM   16  C18 UNL     1      25.559  10.106  19.469  1.00  0.00     0.093 C 
HETATM   17  C19 UNL     1      24.331  10.022  18.562  1.00  0.00     0.245 C 
HETATM   18  F1  UNL     1      23.123  10.162  19.202  1.00  0.00    -0.206 F 
HETATM   19  F2  UNL     1      24.328   8.924  17.746  1.00  0.00    -0.206 F 
HETATM   20  C20 UNL     1      24.846  11.314  17.927  1.00  0.00     0.093 C 
ENDBRANCH  12  15
ENDBRANCH  10  11
BRANCH  10  21
HETATM   21  C21 UNL     1      29.233  12.979  21.537  1.00  0.00    -0.003 C 
HETATM   22  C22 UNL     1      29.768  13.721  22.769  1.00  0.00     0.021 C 
HETATM   23  C23 UNL     1      29.463  13.853  20.350  1.00  0.00     0.021 C 
HETATM   24  C24 UNL     1      30.157  11.764  21.414  1.00  0.00     0.021 C 
ENDBRANCH  10  21
ENDBRANCH   7  10
ENDBRANCH   5   6
BRANCH   5  25
HETATM   25  C25 UNL     1      25.866  14.666  25.742  1.00  0.00     0.009 C 
HETATM   26  C26 UNL     1      24.658  15.169  26.555  1.00  0.00     0.012 C 
HETATM   27  C27 UNL     1      26.977  15.677  25.826  1.00  0.00     0.012 C 
ENDBRANCH   5  25
ENDBRANCH   3   5
BRANCH   1  28
HETATM   28  C11 UNL     1      22.212  12.174  24.131  1.00  0.00     0.180 C 
BRANCH  28  29
HETATM   29  C10 UNL     1      21.604  12.072  25.483  1.00  0.00     0.243 C 
HETATM   30  N2  UNL     1      20.241  11.926  25.794  1.00  0.00    -0.348 N 
HETATM   31  C9  UNL     1      19.754  11.851  27.188  1.00  0.00     0.128 C 
HETATM   32  C31 UNL     1      19.068  11.814  24.903  1.00  0.00     0.151 C 
HETATM   33  C8  UNL     1      18.286  11.517  27.082  1.00  0.00     0.047 C 
HETATM   34  C7  UNL     1      17.977  12.301  25.770  1.00  0.00     0.105 C 
HETATM   35  O2  UNL     1      22.395  12.124  26.494  1.00  0.00    -0.271 OA
BRANCH  34  36
HETATM   36  N1  UNL     1      16.636  12.093  25.383  1.00  0.00    -0.363 N 
HETATM   37  C6  UNL     1      15.826  13.348  25.247  1.00  0.00     0.152 C 
BRANCH  36  38
HETATM   38  C5  UNL     1      15.929  10.889  25.160  1.00  0.00     0.113 C 
BRANCH  38  39
HETATM   39  C4  UNL     1      16.341   9.696  24.438  1.00  0.00     0.087 C 
BRANCH  39  40
HETATM   40  C2  UNL     1      16.107   9.782  22.936  1.00  0.00    -0.015 C 
HETATM   41  C1  UNL     1      15.278   8.640  22.422  1.00  0.00     0.010 C 
HETATM   42  C3  UNL     1      15.537  11.078  22.478  1.00  0.00     0.010 C 
ENDBRANCH  39  40
ENDBRANCH  38  39
BRANCH  38  43
HETATM   43  O1  UNL     1      14.726  10.823  25.668  1.00  0.00    -0.349 OA
ATOM     44  H1  UNL     1      14.664  11.123  26.567  1.00  0.00     0.219 HD
ENDBRANCH  38  43
ENDBRANCH  36  38
ENDBRANCH  34  36
ENDBRANCH  28  29
BRANCH  28  45
HETATM   45  C28 UNL     1      22.198  10.807  23.498  1.00  0.00     0.009 C 
HETATM   46  C29 UNL     1      23.060  10.859  22.242  1.00  0.00     0.012 C 
HETATM   47  C30 UNL     1      22.752   9.777  24.427  1.00  0.00     0.012 C 
ENDBRANCH  28  45
ENDBRANCH   1  28
TORSDOF 15
ENDMDL
MODEL 3
REMARK VINA RESULT: -8.520690358      7.677     14.195
REMARK  15 active torsions:
REMARK  status: ('A' for Active; 'I' for Inactive)
REMARK    1  A    between atoms: C2_2  and  C4_4 
REMARK    2  A    between atoms: C4_4  and  C5_5 
REMARK    3  A    between atoms: C5_5  and  O1_6 
REMARK    4  A    between atoms: C5_5  and  N1_8 
REMARK    5  A    between atoms: N1_8  and  C7_10 
REMARK       I    between atoms: N2_13  and  C10_14 
REMARK    6  A    between atoms: C10_14  and  C11_16 
REMARK    7  A    between atoms: C11_16  and  N3_17 
REMARK    8  A    between atoms: C11_16  and  C28_44 
REMARK       I    between atoms: N3_17  and  C12_19 
REMARK    9  A    between atoms: C12_19  and  C13_21 
REMARK   10  A    between atoms: C13_21  and  N4_22 
REMARK   11  A    between atoms: C13_21  and  C25_41 
REMARK       I    between atoms: N4_22  and  C14_24 
REMARK   12  A    between atoms: C14_24  and  C15_26 
REMARK   13  A    between atoms: C15_26  and  N5_27 
REMARK   14  A    between atoms: C15_26  and  C21_37 
REMARK       I    between atoms: N5_27  and  C16_29 
REMARK   15  A    between atoms: C16_29  and  C17_31 
ROOT
HETATM    1  N3  UNL     1      26.187  12.282  20.315  1.00  0.00    -0.346 N 
ATOM      2  H3  UNL     1      26.798  11.567  19.920  1.00  0.00     0.163 HD
HETATM    3  C12 UNL     1      26.776  13.260  21.164  1.00  0.00     0.241 C 
HETATM    4  O3  UNL     1      25.983  14.129  21.589  1.00  0.00    -0.271 OA
ENDROOT
BRANCH   3   5
HETATM    5  C13 UNL     1      28.212  13.186  21.483  1.00  0.00     0.180 C 
BRANCH   5   6
HETATM    6  N4  UNL     1      28.653  14.343  22.279  1.00  0.00    -0.342 N 
HETATM    7  C14 UNL     1      29.010  14.230  23.639  1.00  0.00     0.265 C 
HETATM    8  O4  UNL     1      28.915  13.027  24.081  1.00  0.00    -0.266 OA
ATOM      9  H4  UNL     1      28.703  15.258  21.832  1.00  0.00     0.163 HD
BRANCH   7  10
HETATM   10  C15 UNL     1      29.449  15.246  24.580  1.00  0.00     0.087 C 
BRANCH  10  11
HETATM   11  N5  UNL     1      30.749  15.832  24.411  1.00  0.00    -0.325 N 
HETATM   12  C16 UNL     1      31.811  15.591  23.600  1.00  0.00     0.226 C 
HETATM   13  O5  UNL     1      31.977  14.779  22.690  1.00  0.00    -0.273 OA
ATOM     14  H5  UNL     1      30.913  16.611  25.048  1.00  0.00     0.169 HD
BRANCH  12  15
HETATM   15  C17 UNL     1      33.076  16.458  23.840  1.00  0.00     0.089 C 
HETATM   16  C18 UNL     1      32.531  17.900  23.738  1.00  0.00     0.093 C 
HETATM   17  C19 UNL     1      33.271  18.255  25.028  1.00  0.00     0.245 C 
HETATM   18  F1  UNL     1      32.514  18.904  25.974  1.00  0.00    -0.206 F 
HETATM   19  F2  UNL     1      34.456  18.906  24.819  1.00  0.00    -0.206 F 
HETATM   20  C20 UNL     1      33.378  16.746  25.253  1.00  0.00     0.093 C 
ENDBRANCH  12  15
ENDBRANCH  10  11
BRANCH  10  21
HETATM   21  C21 UNL     1      28.432  16.229  25.049  1.00  0.00    -0.003 C 
HETATM   22  C22 UNL     1      28.457  16.382  26.576  1.00  0.00     0.021 C 
HETATM   23  C23 UNL     1      27.029  15.918  24.651  1.00  0.00     0.021 C 
HETATM   24  C24 UNL     1      28.768  17.632  24.536  1.00  0.00     0.021 C 
ENDBRANCH  10  21
ENDBRANCH   7  10
ENDBRANCH   5   6
BRANCH   5  25
HETATM   25  C25 UNL     1      29.116  12.825  20.363  1.00  0.00     0.009 C 
HETATM   26  C26 UNL     1      30.004  11.613  20.700  1.00  0.00     0.012 C 
HETATM   27  C27 UNL     1      29.978  13.945  19.847  1.00  0.00     0.012 C 
ENDBRANCH   5  25
ENDBRANCH   3   5
BRANCH   1  28
HETATM   28  C11 UNL     1      24.763  12.230  19.967  1.00  0.00     0.180 C 
BRANCH  28  29
HETATM   29  C10 UNL     1      24.149  11.066  20.657  1.00  0.00     0.243 C 
HETATM   30  N2  UNL     1      23.381  11.084  21.834  1.00  0.00    -0.348 N 
HETATM   31  C9  UNL     1      22.835   9.849  22.438  1.00  0.00     0.128 C 
HETATM   32  C31 UNL     1      22.959  12.220  22.678  1.00  0.00     0.151 C 
HETATM   33  C8  UNL     1      21.938  10.314  23.559  1.00  0.00     0.047 C 
HETATM   34  C7  UNL     1      22.756  11.570  23.988  1.00  0.00     0.105 C 
HETATM   35  O2  UNL     1      24.333   9.905  20.139  1.00  0.00    -0.271 OA
BRANCH  34  36
HETATM   36  N1  UNL     1      22.080  12.266  25.012  1.00  0.00    -0.363 N 
HETATM   37  C6  UNL     1      22.866  13.382  25.631  1.00  0.00     0.152 C 
BRANCH  36  38
HETATM   38  C5  UNL     1      20.805  12.037  25.580  1.00  0.00     0.113 C 
BRANCH  38  39
HETATM   39  C4  UNL     1      20.452  11.335  26.804  1.00  0.00     0.087 C 
BRANCH  39  40
HETATM   40  C2  UNL     1      20.330  12.249  28.016  1.00  0.00    -0.015 C 
HETATM   41  C1  UNL     1      19.165  11.882  28.891  1.00  0.00     0.010 C 
HETATM   42  C3  UNL     1      21.570  12.356  28.830  1.00  0.00     0.010 C 
ENDBRANCH  39  40
ENDBRANCH  38  39
BRANCH  38  43
HETATM   43  O1  UNL     1      19.783  12.515  24.921  1.00  0.00    -0.349 OA
ATOM     44  H1  UNL     1      19.979  12.770  24.026  1.00  0.00     0.219 HD
ENDBRANCH  38  43
ENDBRANCH  36  38
ENDBRANCH  34  36
ENDBRANCH  28  29
BRANCH  28  45
HETATM   45  C28 UNL     1      24.649  12.014  18.480  1.00  0.00     0.009 C 
HETATM   46  C29 UNL     1      23.938  13.223  17.881  1.00  0.00     0.012 C 
HETATM   47  C30 UNL     1      25.995  11.879  17.848  1.00  0.00     0.012 C 
ENDBRANCH  28  45
ENDBRANCH   1  28
TORSDOF 15
ENDMDL
MODEL 4
REMARK VINA RESULT: -8.516560553      9.436     14.488
REMARK  15 active torsions:
REMARK  status: ('A' for Active; 'I' for Inactive)
REMARK    1  A    between atoms: C2_2  and  C4_4 
REMARK    2  A    between atoms: C4_4  and  C5_5 
REMARK    3  A    between atoms: C5_5  and  O1_6 
REMARK    4  A    between atoms: C5_5  and  N1_8 
REMARK    5  A    between atoms: N1_8  and  C7_10 
REMARK       I    between atoms: N2_13  and  C10_14 
REMARK    6  A    between atoms: C10_14  and  C11_16 
REMARK    7  A    between atoms: C11_16  and  N3_17 
REMARK    8  A    between atoms: C11_16  and  C28_44 
REMARK       I    between atoms: N3_17  and  C12_19 
REMARK    9  A    between atoms: C12_19  and  C13_21 
REMARK   10  A    between atoms: C13_21  and  N4_22 
REMARK   11  A    between atoms: C13_21  and  C25_41 
REMARK       I    between atoms: N4_22  and  C14_24 
REMARK   12  A    between atoms: C14_24  and  C15_26 
REMARK   13  A    between atoms: C15_26  and  N5_27 
REMARK   14  A    between atoms: C15_26  and  C21_37 
REMARK       I    between atoms: N5_27  and  C16_29 
REMARK   15  A    between atoms: C16_29  and  C17_31 
ROOT
HETATM    1  N3  UNL     1      25.317  11.579  21.420  1.00  0.00    -0.346 N 
ATOM      2  H3  UNL     1      25.610  10.873  22.094  1.00  0.00     0.163 HD
HETATM    3  C12 UNL     1      26.328  12.226  20.655  1.00  0.00     0.241 C 
HETATM    4  O3  UNL     1      25.902  13.057  19.823  1.00  0.00    -0.271 OA
ENDROOT
BRANCH   3   5
HETATM    5  C13 UNL     1      27.745  11.899  20.887  1.00  0.00     0.180 C 
BRANCH   5   6
HETATM    6  N4  UNL     1      28.636  12.710  20.041  1.00  0.00    -0.342 N 
HETATM    7  C14 UNL     1      29.075  13.995  20.423  1.00  0.00     0.265 C 
HETATM    8  O4  UNL     1      28.623  14.355  21.571  1.00  0.00    -0.266 OA
ATOM      9  H4  UNL     1      28.947  12.329  19.148  1.00  0.00     0.163 HD
BRANCH   7  10
HETATM   10  C15 UNL     1      29.932  14.937  19.725  1.00  0.00     0.087 C 
BRANCH  10  11
HETATM   11  N5  UNL     1      29.377  15.719  18.656  1.00  0.00    -0.325 N 
HETATM   12  C16 UNL     1      28.356  15.552  17.777  1.00  0.00     0.226 C 
HETATM   13  O5  UNL     1      27.529  14.651  17.646  1.00  0.00    -0.273 OA
ATOM     14  H5  UNL     1      29.864  16.605  18.526  1.00  0.00     0.169 HD
BRANCH  12  15
HETATM   15  C17 UNL     1      28.173  16.664  16.709  1.00  0.00     0.089 C 
HETATM   16  C18 UNL     1      29.615  16.901  16.207  1.00  0.00     0.093 C 
HETATM   17  C19 UNL     1      29.108  16.832  14.766  1.00  0.00     0.245 C 
HETATM   18  F1  UNL     1      29.824  16.003  13.936  1.00  0.00    -0.206 F 
HETATM   19  F2  UNL     1      28.923  18.059  14.191  1.00  0.00    -0.206 F 
HETATM   20  C20 UNL     1      27.854  16.183  15.353  1.00  0.00     0.093 C 
ENDBRANCH  12  15
ENDBRANCH  10  11
BRANCH  10  21
HETATM   21  C21 UNL     1      30.917  15.700  20.543  1.00  0.00    -0.003 C 
HETATM   22  C22 UNL     1      32.175  16.045  19.734  1.00  0.00     0.021 C 
HETATM   23  C23 UNL     1      31.359  15.015  21.792  1.00  0.00     0.021 C 
HETATM   24  C24 UNL     1      30.346  17.066  20.931  1.00  0.00     0.021 C 
ENDBRANCH  10  21
ENDBRANCH   7  10
ENDBRANCH   5   6
BRANCH   5  25
HETATM   25  C25 UNL     1      28.086  10.456  20.941  1.00  0.00     0.009 C 
HETATM   26  C26 UNL     1      29.225  10.164  21.936  1.00  0.00     0.012 C 
HETATM   27  C27 UNL     1      28.410   9.824  19.615  1.00  0.00     0.012 C 
ENDBRANCH   5  25
ENDBRANCH   3   5
BRANCH   1  28
HETATM   28  C11 UNL     1      23.880  11.858  21.307  1.00  0.00     0.180 C 
BRANCH  28  29
HETATM   29  C10 UNL     1      23.378  12.301  22.634  1.00  0.00     0.243 C 
HETATM   30  N2  UNL     1      23.937  13.281  23.471  1.00  0.00    -0.348 N 
HETATM   31  C9  UNL     1      23.352  13.624  24.785  1.00  0.00     0.128 C 
HETATM   32  C31 UNL     1      25.125  14.137  23.273  1.00  0.00     0.151 C 
HETATM   33  C8  UNL     1      24.128  14.825  25.269  1.00  0.00     0.047 C 
HETATM   34  C7  UNL     1      25.515  14.448  24.662  1.00  0.00     0.105 C 
HETATM   35  O2  UNL     1      22.318  11.733  23.086  1.00  0.00    -0.271 OA
BRANCH  34  36
HETATM   36  N1  UNL     1      26.449  15.476  24.909  1.00  0.00    -0.363 N 
HETATM   37  C6  UNL     1      25.870  16.704  25.543  1.00  0.00     0.152 C 
BRANCH  36  38
HETATM   38  C5  UNL     1      27.827  15.547  24.600  1.00  0.00     0.113 C 
BRANCH  38  39
HETATM   39  C4  UNL     1      28.935  14.772  25.137  1.00  0.00     0.087 C 
BRANCH  39  40
HETATM   40  C2  UNL     1      29.850  15.573  26.053  1.00  0.00    -0.015 C 
HETATM   41  C1  UNL     1      31.021  16.160  25.317  1.00  0.00     0.010 C 
HETATM   42  C3  UNL     1      29.158  16.627  26.841  1.00  0.00     0.010 C 
ENDBRANCH  39  40
ENDBRANCH  38  39
BRANCH  38  43
HETATM   43  O1  UNL     1      28.175  16.434  23.706  1.00  0.00    -0.349 OA
ATOM     44  H1  UNL     1      27.737  17.273  23.796  1.00  0.00     0.219 HD
ENDBRANCH  38  43
ENDBRANCH  36  38
ENDBRANCH  34  36
ENDBRANCH  28  29
BRANCH  28  45
HETATM   45  C28 UNL     1      23.180  10.577  20.937  1.00  0.00     0.009 C 
HETATM   46  C29 UNL     1      22.887  10.613  19.441  1.00  0.00     0.012 C 
HETATM   47  C30 UNL     1      24.032   9.388  21.238  1.00  0.00     0.012 C 
ENDBRANCH  28  45
ENDBRANCH   1  28
TORSDOF 15
ENDMDL
MODEL 5
REMARK VINA RESULT: -8.446543518      1.592      2.192
REMARK  15 active torsions:
REMARK  status: ('A' for Active; 'I' for Inactive)
REMARK    1  A    between atoms: C2_2  and  C4_4 
REMARK    2  A    between atoms: C4_4  and  C5_5 
REMARK    3  A    between atoms: C5_5  and  O1_6 
REMARK    4  A    between atoms: C5_5  and  N1_8 
REMARK    5  A    between atoms: N1_8  and  C7_10 
REMARK       I    between atoms: N2_13  and  C10_14 
REMARK    6  A    between atoms: C10_14  and  C11_16 
REMARK    7  A    between atoms: C11_16  and  N3_17 
REMARK    8  A    between atoms: C11_16  and  C28_44 
REMARK       I    between atoms: N3_17  and  C12_19 
REMARK    9  A    between atoms: C12_19  and  C13_21 
REMARK   10  A    between atoms: C13_21  and  N4_22 
REMARK   11  A    between atoms: C13_21  and  C25_41 
REMARK       I    between atoms: N4_22  and  C14_24 
REMARK   12  A    between atoms: C14_24  and  C15_26 
REMARK   13  A    between atoms: C15_26  and  N5_27 
REMARK   14  A    between atoms: C15_26  and  C21_37 
REMARK       I    between atoms: N5_27  and  C16_29 
REMARK   15  A    between atoms: C16_29  and  C17_31 
ROOT
HETATM    1  N3  UNL     1      19.026  11.011  24.930  1.00  0.00    -0.346 N 
ATOM      2  H3  UNL     1      18.776  10.023  24.937  1.00  0.00     0.163 HD
HETATM    3  C12 UNL     1      17.967  11.963  24.918  1.00  0.00     0.241 C 
HETATM    4  O3  UNL     1      18.337  13.157  24.945  1.00  0.00    -0.271 OA
ENDROOT
BRANCH   3   5
HETATM    5  C13 UNL     1      16.569  11.503  24.867  1.00  0.00     0.180 C 
BRANCH   5   6
HETATM    6  N4  UNL     1      15.821  11.898  26.072  1.00  0.00    -0.342 N 
HETATM    7  C14 UNL     1      14.886  12.954  26.066  1.00  0.00     0.265 C 
HETATM    8  O4  UNL     1      14.763  13.505  24.911  1.00  0.00    -0.266 OA
ATOM      9  H4  UNL     1      15.985  11.391  26.941  1.00  0.00     0.163 HD
BRANCH   7  10
HETATM   10  C15 UNL     1      14.074  13.492  27.144  1.00  0.00     0.087 C 
BRANCH  10  11
HETATM   11  N5  UNL     1      13.334  12.584  27.974  1.00  0.00    -0.325 N 
HETATM   12  C16 UNL     1      12.837  11.330  27.817  1.00  0.00     0.226 C 
HETATM   13  O5  UNL     1      12.905  10.534  26.881  1.00  0.00    -0.273 OA
ATOM     14  H5  UNL     1      13.136  12.970  28.896  1.00  0.00     0.169 HD
BRANCH  12  15
HETATM   15  C17 UNL     1      12.007  10.762  28.999  1.00  0.00     0.089 C 
HETATM   16  C18 UNL     1      11.734  12.013  29.863  1.00  0.00     0.093 C 
HETATM   17  C19 UNL     1      10.260  11.613  29.950  1.00  0.00     0.245 C 
HETATM   18  F1  UNL     1       9.367  12.616  29.663  1.00  0.00    -0.206 F 
HETATM   19  F2  UNL     1       9.932  10.985  31.120  1.00  0.00    -0.206 F 
HETATM   20  C20 UNL     1      10.554  10.690  28.766  1.00  0.00     0.093 C 
ENDBRANCH  12  15
ENDBRANCH  10  11
BRANCH  10  21
HETATM   21  C21 UNL     1      14.627  14.646  27.906  1.00  0.00    -0.003 C 
HETATM   22  C22 UNL     1      13.725  15.883  27.791  1.00  0.00     0.021 C 
HETATM   23  C23 UNL     1      16.005  15.057  27.510  1.00  0.00     0.021 C 
HETATM   24  C24 UNL     1      14.638  14.341  29.406  1.00  0.00     0.021 C 
ENDBRANCH  10  21
ENDBRANCH   7  10
ENDBRANCH   5   6
BRANCH   5  25
HETATM   25  C25 UNL     1      16.354  10.099  24.437  1.00  0.00     0.009 C 
HETATM   26  C26 UNL     1      15.728  10.009  23.033  1.00  0.00     0.012 C 
HETATM   27  C27 UNL     1      15.558   9.251  25.392  1.00  0.00     0.012 C 
ENDBRANCH   5  25
ENDBRANCH   3   5
BRANCH   1  28
HETATM   28  C11 UNL     1      20.453  11.354  24.934  1.00  0.00     0.180 C 
BRANCH  28  29
HETATM   29  C10 UNL     1      21.152  10.479  23.958  1.00  0.00     0.243 C 
HETATM   30  N2  UNL     1      22.287  10.795  23.193  1.00  0.00    -0.348 N 
HETATM   31  C9  UNL     1      22.886   9.839  22.236  1.00  0.00     0.128 C 
HETATM   32  C31 UNL     1      23.096  12.030  23.157  1.00  0.00     0.151 C 
HETATM   33  C8  UNL     1      24.167  10.487  21.770  1.00  0.00     0.047 C 
HETATM   34  C7  UNL     1      23.687  11.971  21.805  1.00  0.00     0.105 C 
HETATM   35  O2  UNL     1      20.678   9.298  23.774  1.00  0.00    -0.271 OA
BRANCH  34  36
HETATM   36  N1  UNL     1      24.752  12.835  21.473  1.00  0.00    -0.363 N 
HETATM   37  C6  UNL     1      25.138  13.792  22.561  1.00  0.00     0.152 C 
BRANCH  36  38
HETATM   38  C5  UNL     1      25.468  12.974  20.262  1.00  0.00     0.113 C 
BRANCH  38  39
HETATM   39  C4  UNL     1      26.904  13.013  20.037  1.00  0.00     0.087 C 
BRANCH  39  40
HETATM   40  C2  UNL     1      27.615  11.722  20.417  1.00  0.00    -0.015 C 
HETATM   41  C1  UNL     1      27.235  10.577  19.521  1.00  0.00     0.010 C 
HETATM   42  C3  UNL     1      29.096  11.839  20.499  1.00  0.00     0.010 C 
ENDBRANCH  39  40
ENDBRANCH  38  39
BRANCH  38  43
HETATM   43  O1  UNL     1      24.750  13.089  19.176  1.00  0.00    -0.349 OA
ATOM     44  H1  UNL     1      24.182  13.851  19.161  1.00  0.00     0.219 HD
ENDBRANCH  38  43
ENDBRANCH  36  38
ENDBRANCH  34  36
ENDBRANCH  28  29
BRANCH  28  45
HETATM   45  C28 UNL     1      21.002  11.067  26.307  1.00  0.00     0.009 C 
HETATM   46  C29 UNL     1      21.758  12.303  26.781  1.00  0.00     0.012 C 
HETATM   47  C30 UNL     1      19.906  10.766  27.276  1.00  0.00     0.012 C 
ENDBRANCH  28  45
ENDBRANCH   1  28
TORSDOF 15
ENDMDL
