MODEL 1
REMARK VINA RESULT: -9.435369919      0.000      0.000
REMARK  10 active torsions:
REMARK  status: ('A' for Active; 'I' for Inactive)
REMARK    1  A    between atoms: C2_2  and  C3_3 
REMARK    2  A    between atoms: N1_7  and  C7_8 
REMARK    3  A    between atoms: N2_10  and  C9_11 
REMARK    4  A    between atoms: C9_11  and  C10_12 
REMARK    5  A    between atoms: C10_12  and  C11_13 
REMARK    6  A    between atoms: C13_15  and  N3_16 
REMARK    7  A    between atoms: N3_16  and  C14_18 
REMARK    8  A    between atoms: C14_18  and  C15_19 
REMARK    9  A    between atoms: C15_19  and  C16_21 
REMARK   10  A    between atoms: C16_21  and  C17_22 
ROOT
HETATM    1  C9  UNL     1     -16.068  21.919  -4.389  1.00  0.00     0.273 C 
ENDROOT
BRANCH   1   2
HETATM    2  N2  UNL     1     -17.394  21.317  -4.609  1.00  0.00     0.094 N 
HETATM    3  C8  UNL     1     -17.218  20.534  -5.825  1.00  0.00     0.338 C 
HETATM    4  C7  UNL     1     -18.375  19.595  -6.101  1.00  0.00     0.452 C 
HETATM    5  N4  UNL     1     -18.927  19.051  -4.886  1.00  0.00     0.119 N 
HETATM    6  C24 UNL     1     -18.012  19.107  -3.772  1.00  0.00     0.304 C 
HETATM    7  C25 UNL     1     -20.107  19.814  -4.431  1.00  0.00     0.312 C 
HETATM    8  C23 UNL     1     -17.710  20.551  -3.456  1.00  0.00     0.302 C 
BRANCH   4   9
HETATM    9  N1  UNL     1     -18.091  18.662  -7.136  1.00  0.00    -0.029 N 
HETATM   10  C6  UNL     1     -17.617  19.334  -8.357  1.00  0.00     0.241 C 
HETATM   11  C5  UNL     1     -17.655  18.437  -9.561  1.00  0.00     0.033 C 
HETATM   12  C4  UNL     1     -17.532  16.998  -9.028  1.00  0.00    -0.005 C 
HETATM   13  C3  UNL     1     -18.728  16.622  -8.204  1.00  0.00     0.020 C 
HETATM   14  C27 UNL     1     -16.361  17.138  -8.045  1.00  0.00     0.033 C 
HETATM   15  C28 UNL     1     -19.255  17.831  -7.528  1.00  0.00     0.193 C 
HETATM   16  C29 UNL     1     -20.294  18.633  -8.203  1.00  0.00     0.041 C 
HETATM   17  C26 UNL     1     -16.997  17.759  -6.795  1.00  0.00     0.241 C 
BRANCH  13  18
HETATM   18  C2  UNL     1     -19.640  15.629  -8.782  1.00  0.00     0.002 C 
HETATM   19  C1  UNL     1     -20.578  14.885  -7.911  1.00  0.00     0.005 C 
ENDBRANCH  13  18
ENDBRANCH   4   9
ENDBRANCH   1   2
BRANCH   1  20
HETATM   20  C10 UNL     1     -15.439  21.566  -3.100  1.00  0.00     0.037 C 
BRANCH  20  21
HETATM   21  C11 UNL     1     -14.906  22.707  -2.268  1.00  0.00     0.012 A 
HETATM   22  C12 UNL     1     -15.782  23.706  -1.651  1.00  0.00     0.032 A 
HETATM   23  C13 UNL     1     -14.929  24.053  -2.829  1.00  0.00     0.085 A 
BRANCH  23  24
HETATM   24  N3  UNL     1     -14.012  25.087  -2.867  1.00  0.00    -0.391 N 
ATOM     25  H3  UNL     1     -14.057  25.776  -2.116  1.00  0.00     0.159 HD
BRANCH  24  26
HETATM   26  C14 UNL     1     -13.035  25.273  -3.834  1.00  0.00     0.134 C 
BRANCH  26  27
HETATM   27  C15 UNL     1     -11.890  24.342  -3.796  1.00  0.00     0.168 C 
HETATM   28  O1  UNL     1     -10.833  24.585  -3.276  1.00  0.00    -0.291 OA
BRANCH  27  29
HETATM   29  C16 UNL     1     -12.017  22.987  -4.438  1.00  0.00     0.123 C 
BRANCH  29  30
HETATM   30  C17 UNL     1     -12.048  23.088  -5.904  1.00  0.00    -0.048 A 
HETATM   31  C18 UNL     1     -13.080  22.497  -6.598  1.00  0.00     0.026 A 
HETATM   32  C19 UNL     1     -13.140  22.578  -7.980  1.00  0.00     0.012 A 
HETATM   33 BR1  UNL     1     -14.599  21.742  -8.877  1.00  0.00    -0.051 Br
HETATM   34  C20 UNL     1     -12.161  23.255  -8.684  1.00  0.00     0.038 A 
HETATM   35  C21 UNL     1     -11.127  23.848  -7.998  1.00  0.00     0.012 A 
HETATM   36 BR2  UNL     1      -9.740  24.799  -8.912  1.00  0.00    -0.051 Br
HETATM   37  C22 UNL     1     -11.066  23.769  -6.624  1.00  0.00     0.026 A 
ENDBRANCH  29  30
ENDBRANCH  27  29
ENDBRANCH  26  27
ENDBRANCH  24  26
ENDBRANCH  23  24
ENDBRANCH  20  21
ENDBRANCH   1  20
TORSDOF 10
ENDMDL
MODEL 2
REMARK VINA RESULT: -9.378923268      2.260      2.796
REMARK  10 active torsions:
REMARK  status: ('A' for Active; 'I' for Inactive)
REMARK    1  A    between atoms: C2_2  and  C3_3 
REMARK    2  A    between atoms: N1_7  and  C7_8 
REMARK    3  A    between atoms: N2_10  and  C9_11 
REMARK    4  A    between atoms: C9_11  and  C10_12 
REMARK    5  A    between atoms: C10_12  and  C11_13 
REMARK    6  A    between atoms: C13_15  and  N3_16 
REMARK    7  A    between atoms: N3_16  and  C14_18 
REMARK    8  A    between atoms: C14_18  and  C15_19 
REMARK    9  A    between atoms: C15_19  and  C16_21 
REMARK   10  A    between atoms: C16_21  and  C17_22 
ROOT
HETATM    1  C9  UNL     1     -17.462  22.367  -4.343  1.00  0.00     0.273 C 
ENDROOT
BRANCH   1   2
HETATM    2  N2  UNL     1     -18.516  21.348  -4.480  1.00  0.00     0.094 N 
HETATM    3  C8  UNL     1     -18.160  20.648  -5.707  1.00  0.00     0.338 C 
HETATM    4  C7  UNL     1     -18.944  19.367  -5.911  1.00  0.00     0.452 C 
HETATM    5  N4  UNL     1     -19.202  18.691  -4.664  1.00  0.00     0.119 N 
HETATM    6  C24 UNL     1     -18.294  19.075  -3.611  1.00  0.00     0.304 C 
HETATM    7  C25 UNL     1     -20.541  19.017  -4.132  1.00  0.00     0.312 C 
HETATM    8  C23 UNL     1     -18.482  20.542  -3.311  1.00  0.00     0.302 C 
BRANCH   4   9
HETATM    9  N1  UNL     1     -18.424  18.566  -6.965  1.00  0.00    -0.029 N 
HETATM   10  C6  UNL     1     -17.750  19.385  -7.986  1.00  0.00     0.241 C 
HETATM   11  C5  UNL     1     -17.515  18.633  -9.265  1.00  0.00     0.033 C 
HETATM   12  C4  UNL     1     -17.438  17.145  -8.880  1.00  0.00    -0.005 C 
HETATM   13  C3  UNL     1     -18.754  16.652  -8.356  1.00  0.00     0.020 C 
HETATM   14  C27 UNL     1     -16.488  17.193  -7.674  1.00  0.00     0.033 C 
HETATM   15  C28 UNL     1     -19.453  17.764  -7.669  1.00  0.00     0.193 C 
HETATM   16  C29 UNL     1     -20.374  18.619  -8.445  1.00  0.00     0.041 C 
HETATM   17  C26 UNL     1     -17.381  17.652  -6.515  1.00  0.00     0.241 C 
BRANCH  13  18
HETATM   18  C2  UNL     1     -19.493  15.715  -9.209  1.00  0.00     0.002 C 
HETATM   19  C1  UNL     1     -20.568  14.875  -8.634  1.00  0.00     0.005 C 
ENDBRANCH  13  18
ENDBRANCH   4   9
ENDBRANCH   1   2
BRANCH   1  20
HETATM   20  C10 UNL     1     -16.638  22.241  -3.124  1.00  0.00     0.037 C 
BRANCH  20  21
HETATM   21  C11 UNL     1     -15.197  21.835  -3.316  1.00  0.00     0.012 A 
HETATM   22  C12 UNL     1     -14.135  22.811  -3.575  1.00  0.00     0.032 A 
HETATM   23  C13 UNL     1     -14.624  21.900  -4.656  1.00  0.00     0.085 A 
BRANCH  23  24
HETATM   24  N3  UNL     1     -13.826  21.046  -5.395  1.00  0.00    -0.391 N 
ATOM     25  H3  UNL     1     -12.818  21.195  -5.348  1.00  0.00     0.159 HD
BRANCH  24  26
HETATM   26  C14 UNL     1     -14.272  20.004  -6.194  1.00  0.00     0.134 C 
BRANCH  26  27
HETATM   27  C15 UNL     1     -14.187  20.214  -7.652  1.00  0.00     0.168 C 
HETATM   28  O1  UNL     1     -13.879  19.363  -8.445  1.00  0.00    -0.291 OA
BRANCH  27  29
HETATM   29  C16 UNL     1     -14.504  21.569  -8.225  1.00  0.00     0.123 C 
BRANCH  29  30
HETATM   30  C17 UNL     1     -13.288  22.254  -8.687  1.00  0.00    -0.048 A 
HETATM   31  C18 UNL     1     -13.402  23.447  -9.363  1.00  0.00     0.026 A 
HETATM   32  C19 UNL     1     -12.275  24.119  -9.809  1.00  0.00     0.012 A 
HETATM   33 BR1  UNL     1     -12.505  25.769 -10.732  1.00  0.00    -0.051 Br
HETATM   34  C20 UNL     1     -11.015  23.597  -9.579  1.00  0.00     0.038 A 
HETATM   35  C21 UNL     1     -10.892  22.405  -8.905  1.00  0.00     0.012 A 
HETATM   36 BR2  UNL     1      -9.178  21.629  -8.557  1.00  0.00    -0.051 Br
HETATM   37  C22 UNL     1     -12.012  21.736  -8.461  1.00  0.00     0.026 A 
ENDBRANCH  29  30
ENDBRANCH  27  29
ENDBRANCH  26  27
ENDBRANCH  24  26
ENDBRANCH  23  24
ENDBRANCH  20  21
ENDBRANCH   1  20
TORSDOF 10
ENDMDL
MODEL 3
REMARK VINA RESULT: -9.341585236      1.103      1.844
REMARK  10 active torsions:
REMARK  status: ('A' for Active; 'I' for Inactive)
REMARK    1  A    between atoms: C2_2  and  C3_3 
REMARK    2  A    between atoms: N1_7  and  C7_8 
REMARK    3  A    between atoms: N2_10  and  C9_11 
REMARK    4  A    between atoms: C9_11  and  C10_12 
REMARK    5  A    between atoms: C10_12  and  C11_13 
REMARK    6  A    between atoms: C13_15  and  N3_16 
REMARK    7  A    between atoms: N3_16  and  C14_18 
REMARK    8  A    between atoms: C14_18  and  C15_19 
REMARK    9  A    between atoms: C15_19  and  C16_21 
REMARK   10  A    between atoms: C16_21  and  C17_22 
ROOT
HETATM    1  C9  UNL     1     -16.354  20.939  -3.968  1.00  0.00     0.273 C 
ENDROOT
BRANCH   1   2
HETATM    2  N2  UNL     1     -17.728  20.504  -4.269  1.00  0.00     0.094 N 
HETATM    3  C8  UNL     1     -17.601  19.821  -5.549  1.00  0.00     0.338 C 
HETATM    4  C7  UNL     1     -18.841  19.039  -5.933  1.00  0.00     0.452 C 
HETATM    5  N4  UNL     1     -19.481  18.448  -4.784  1.00  0.00     0.119 N 
HETATM    6  C24 UNL     1     -18.597  18.305  -3.653  1.00  0.00     0.304 C 
HETATM    7  C25 UNL     1     -20.588  19.288  -4.282  1.00  0.00     0.312 C 
HETATM    8  C23 UNL     1     -18.156  19.674  -3.198  1.00  0.00     0.302 C 
BRANCH   4   9
HETATM    9  N1  UNL     1     -18.626  18.179  -7.046  1.00  0.00    -0.029 N 
HETATM   10  C6  UNL     1     -18.542  18.934  -8.306  1.00  0.00     0.241 C 
HETATM   11  C5  UNL     1     -18.679  18.055  -9.516  1.00  0.00     0.033 C 
HETATM   12  C4  UNL     1     -18.203  16.656  -9.085  1.00  0.00    -0.005 C 
HETATM   13  C3  UNL     1     -19.116  16.068  -8.050  1.00  0.00     0.020 C 
HETATM   14  C27 UNL     1     -16.892  16.992  -8.359  1.00  0.00     0.033 C 
HETATM   15  C28 UNL     1     -19.687  17.160  -7.226  1.00  0.00     0.193 C 
HETATM   16  C29 UNL     1     -20.967  17.771  -7.636  1.00  0.00     0.041 C 
HETATM   17  C26 UNL     1     -17.347  17.481  -6.978  1.00  0.00     0.241 C 
BRANCH  13  18
HETATM   18  C2  UNL     1     -19.946  14.934  -8.471  1.00  0.00     0.002 C 
HETATM   19  C1  UNL     1     -20.638  14.964  -9.780  1.00  0.00     0.005 C 
ENDBRANCH  13  18
ENDBRANCH   4   9
ENDBRANCH   1   2
BRANCH   1  20
HETATM   20  C10 UNL     1     -16.240  22.332  -3.491  1.00  0.00     0.037 C 
BRANCH  20  21
HETATM   21  C11 UNL     1     -15.082  22.645  -2.575  1.00  0.00     0.012 A 
HETATM   22  C12 UNL     1     -15.239  23.438  -1.353  1.00  0.00     0.032 A 
HETATM   23  C13 UNL     1     -14.553  24.005  -2.555  1.00  0.00     0.085 A 
BRANCH  23  24
HETATM   24  N3  UNL     1     -13.275  24.533  -2.564  1.00  0.00    -0.391 N 
ATOM     25  H3  UNL     1     -12.566  24.039  -2.022  1.00  0.00     0.159 HD
BRANCH  24  26
HETATM   26  C14 UNL     1     -12.870  25.671  -3.244  1.00  0.00     0.134 C 
BRANCH  26  27
HETATM   27  C15 UNL     1     -11.798  25.491  -4.243  1.00  0.00     0.168 C 
HETATM   28  O1  UNL     1     -11.428  26.345  -5.005  1.00  0.00    -0.291 OA
BRANCH  27  29
HETATM   29  C16 UNL     1     -11.093  24.165  -4.341  1.00  0.00     0.123 C 
BRANCH  29  30
HETATM   30  C17 UNL     1     -11.457  23.455  -5.575  1.00  0.00    -0.048 A 
HETATM   31  C18 UNL     1     -10.475  23.150  -6.492  1.00  0.00     0.026 A 
HETATM   32  C19 UNL     1     -10.786  22.478  -7.664  1.00  0.00     0.012 A 
HETATM   33 BR1  UNL     1      -9.378  22.083  -8.885  1.00  0.00    -0.051 Br
HETATM   34  C20 UNL     1     -12.090  22.103  -7.929  1.00  0.00     0.038 A 
HETATM   35  C21 UNL     1     -13.076  22.403  -7.019  1.00  0.00     0.012 A 
HETATM   36 BR2  UNL     1     -14.900  21.914  -7.327  1.00  0.00    -0.051 Br
HETATM   37  C22 UNL     1     -12.769  23.072  -5.854  1.00  0.00     0.026 A 
ENDBRANCH  29  30
ENDBRANCH  27  29
ENDBRANCH  26  27
ENDBRANCH  24  26
ENDBRANCH  23  24
ENDBRANCH  20  21
ENDBRANCH   1  20
TORSDOF 10
ENDMDL
MODEL 4
REMARK VINA RESULT: -9.335322915      2.247      2.828
REMARK  10 active torsions:
REMARK  status: ('A' for Active; 'I' for Inactive)
REMARK    1  A    between atoms: C2_2  and  C3_3 
REMARK    2  A    between atoms: N1_7  and  C7_8 
REMARK    3  A    between atoms: N2_10  and  C9_11 
REMARK    4  A    between atoms: C9_11  and  C10_12 
REMARK    5  A    between atoms: C10_12  and  C11_13 
REMARK    6  A    between atoms: C13_15  and  N3_16 
REMARK    7  A    between atoms: N3_16  and  C14_18 
REMARK    8  A    between atoms: C14_18  and  C15_19 
REMARK    9  A    between atoms: C15_19  and  C16_21 
REMARK   10  A    between atoms: C16_21  and  C17_22 
ROOT
HETATM    1  C9  UNL     1     -17.438  22.382  -4.369  1.00  0.00     0.273 C 
ENDROOT
BRANCH   1   2
HETATM    2  N2  UNL     1     -18.487  21.357  -4.502  1.00  0.00     0.094 N 
HETATM    3  C8  UNL     1     -18.132  20.660  -5.731  1.00  0.00     0.338 C 
HETATM    4  C7  UNL     1     -18.911  19.375  -5.932  1.00  0.00     0.452 C 
HETATM    5  N4  UNL     1     -19.160  18.697  -4.684  1.00  0.00     0.119 N 
HETATM    6  C24 UNL     1     -18.250  19.086  -3.635  1.00  0.00     0.304 C 
HETATM    7  C25 UNL     1     -20.499  19.016  -4.147  1.00  0.00     0.312 C 
HETATM    8  C23 UNL     1     -18.444  20.551  -3.334  1.00  0.00     0.302 C 
BRANCH   4   9
HETATM    9  N1  UNL     1     -18.391  18.577  -6.989  1.00  0.00    -0.029 N 
HETATM   10  C6  UNL     1     -17.727  19.399  -8.013  1.00  0.00     0.241 C 
HETATM   11  C5  UNL     1     -17.493  18.649  -9.293  1.00  0.00     0.033 C 
HETATM   12  C4  UNL     1     -17.405  17.162  -8.908  1.00  0.00    -0.005 C 
HETATM   13  C3  UNL     1     -18.716  16.661  -8.378  1.00  0.00     0.020 C 
HETATM   14  C27 UNL     1     -16.449  17.215  -7.707  1.00  0.00     0.033 C 
HETATM   15  C28 UNL     1     -19.419  17.768  -7.688  1.00  0.00     0.193 C 
HETATM   16  C29 UNL     1     -20.348  18.617  -8.459  1.00  0.00     0.041 C 
HETATM   17  C26 UNL     1     -17.340  17.669  -6.543  1.00  0.00     0.241 C 
BRANCH  13  18
HETATM   18  C2  UNL     1     -19.453  15.719  -9.227  1.00  0.00     0.002 C 
HETATM   19  C1  UNL     1     -20.523  14.875  -8.648  1.00  0.00     0.005 C 
ENDBRANCH  13  18
ENDBRANCH   4   9
ENDBRANCH   1   2
BRANCH   1  20
HETATM   20  C10 UNL     1     -16.618  22.269  -3.146  1.00  0.00     0.037 C 
BRANCH  20  21
HETATM   21  C11 UNL     1     -15.177  21.860  -3.328  1.00  0.00     0.012 A 
HETATM   22  C12 UNL     1     -14.111  22.832  -3.585  1.00  0.00     0.032 A 
HETATM   23  C13 UNL     1     -14.596  21.919  -4.665  1.00  0.00     0.085 A 
BRANCH  23  24
HETATM   24  N3  UNL     1     -13.796  21.060  -5.397  1.00  0.00    -0.391 N 
ATOM     25  H3  UNL     1     -12.788  21.203  -5.339  1.00  0.00     0.159 HD
BRANCH  24  26
HETATM   26  C14 UNL     1     -14.240  20.023  -6.203  1.00  0.00     0.134 C 
BRANCH  26  27
HETATM   27  C15 UNL     1     -14.119  20.228  -7.660  1.00  0.00     0.168 C 
HETATM   28  O1  UNL     1     -13.741  19.389  -8.435  1.00  0.00    -0.291 OA
BRANCH  27  29
HETATM   29  C16 UNL     1     -14.487  21.561  -8.254  1.00  0.00     0.123 C 
BRANCH  29  30
HETATM   30  C17 UNL     1     -13.296  22.292  -8.709  1.00  0.00    -0.048 A 
HETATM   31  C18 UNL     1     -12.048  21.774  -8.450  1.00  0.00     0.026 A 
HETATM   32  C19 UNL     1     -10.905  22.438  -8.869  1.00  0.00     0.012 A 
HETATM   33 BR1  UNL     1      -9.209  21.662  -8.482  1.00  0.00    -0.051 Br
HETATM   34  C20 UNL     1     -11.004  23.634  -9.556  1.00  0.00     0.038 A 
HETATM   35  C21 UNL     1     -12.248  24.158  -9.819  1.00  0.00     0.012 A 
HETATM   36 BR2  UNL     1     -12.455  25.809 -10.764  1.00  0.00    -0.051 Br
HETATM   37  C22 UNL     1     -13.385  23.499  -9.403  1.00  0.00     0.026 A 
ENDBRANCH  29  30
ENDBRANCH  27  29
ENDBRANCH  26  27
ENDBRANCH  24  26
ENDBRANCH  23  24
ENDBRANCH  20  21
ENDBRANCH   1  20
TORSDOF 10
ENDMDL
MODEL 5
REMARK VINA RESULT: -9.319171671      1.731      2.491
REMARK  10 active torsions:
REMARK  status: ('A' for Active; 'I' for Inactive)
REMARK    1  A    between atoms: C2_2  and  C3_3 
REMARK    2  A    between atoms: N1_7  and  C7_8 
REMARK    3  A    between atoms: N2_10  and  C9_11 
REMARK    4  A    between atoms: C9_11  and  C10_12 
REMARK    5  A    between atoms: C10_12  and  C11_13 
REMARK    6  A    between atoms: C13_15  and  N3_16 
REMARK    7  A    between atoms: N3_16  and  C14_18 
REMARK    8  A    between atoms: C14_18  and  C15_19 
REMARK    9  A    between atoms: C15_19  and  C16_21 
REMARK   10  A    between atoms: C16_21  and  C17_22 
ROOT
HETATM    1  C9  UNL     1     -17.582  22.384  -4.955  1.00  0.00     0.273 C 
ENDROOT
BRANCH   1   2
HETATM    2  N2  UNL     1     -18.680  21.404  -4.892  1.00  0.00     0.094 N 
HETATM    3  C8  UNL     1     -18.449  20.554  -6.052  1.00  0.00     0.338 C 
HETATM    4  C7  UNL     1     -19.294  19.295  -6.045  1.00  0.00     0.452 C 
HETATM    5  N4  UNL     1     -19.475  18.778  -4.712  1.00  0.00     0.119 N 
HETATM    6  C24 UNL     1     -18.472  19.237  -3.783  1.00  0.00     0.304 C 
HETATM    7  C25 UNL     1     -20.754  19.223  -4.122  1.00  0.00     0.312 C 
HETATM    8  C23 UNL     1     -18.581  20.735  -3.643  1.00  0.00     0.302 C 
BRANCH   4   9
HETATM    9  N1  UNL     1     -18.890  18.357  -7.035  1.00  0.00    -0.029 N 
HETATM   10  C6  UNL     1     -18.623  19.012  -8.326  1.00  0.00     0.241 C 
HETATM   11  C5  UNL     1     -18.552  18.035  -9.464  1.00  0.00     0.033 C 
HETATM   12  C4  UNL     1     -18.122  16.691  -8.850  1.00  0.00    -0.005 C 
HETATM   13  C3  UNL     1     -19.175  16.158  -7.924  1.00  0.00     0.020 C 
HETATM   14  C27 UNL     1     -16.948  17.126  -7.960  1.00  0.00     0.033 C 
HETATM   15  C28 UNL     1     -19.889  17.293  -7.292  1.00  0.00     0.193 C 
HETATM   16  C29 UNL     1     -21.100  17.829  -7.945  1.00  0.00     0.041 C 
HETATM   17  C26 UNL     1     -17.624  17.708  -6.712  1.00  0.00     0.241 C 
BRANCH  13  18
HETATM   18  C2  UNL     1     -19.906  14.968  -8.373  1.00  0.00     0.002 C 
HETATM   19  C1  UNL     1     -20.458  14.908  -9.745  1.00  0.00     0.005 C 
ENDBRANCH  13  18
ENDBRANCH   4   9
ENDBRANCH   1   2
BRANCH   1  20
HETATM   20  C10 UNL     1     -16.360  21.896  -5.626  1.00  0.00     0.037 C 
BRANCH  20  21
HETATM   21  C11 UNL     1     -15.102  21.841  -4.794  1.00  0.00     0.012 A 
HETATM   22  C12 UNL     1     -14.501  20.577  -4.361  1.00  0.00     0.032 A 
HETATM   23  C13 UNL     1     -15.208  21.465  -3.388  1.00  0.00     0.085 A 
BRANCH  23  24
HETATM   24  N3  UNL     1     -14.656  21.964  -2.222  1.00  0.00    -0.391 N 
ATOM     25  H3  UNL     1     -14.006  21.359  -1.721  1.00  0.00     0.159 HD
BRANCH  24  26
HETATM   26  C14 UNL     1     -14.907  23.212  -1.673  1.00  0.00     0.134 C 
BRANCH  26  27
HETATM   27  C15 UNL     1     -14.154  24.344  -2.247  1.00  0.00     0.168 C 
HETATM   28  O1  UNL     1     -14.653  25.256  -2.853  1.00  0.00    -0.291 OA
BRANCH  27  29
HETATM   29  C16 UNL     1     -12.659  24.399  -2.081  1.00  0.00     0.123 C 
BRANCH  29  30
HETATM   30  C17 UNL     1     -11.988  24.695  -3.355  1.00  0.00    -0.048 A 
HETATM   31  C18 UNL     1     -12.062  23.782  -4.383  1.00  0.00     0.026 A 
HETATM   32  C19 UNL     1     -11.443  24.033  -5.597  1.00  0.00     0.012 A 
HETATM   33 BR1  UNL     1     -11.590  22.729  -6.979  1.00  0.00    -0.051 Br
HETATM   34  C20 UNL     1     -10.740  25.208  -5.794  1.00  0.00     0.038 A 
HETATM   35  C21 UNL     1     -10.662  26.125  -4.772  1.00  0.00     0.012 A 
HETATM   36 BR2  UNL     1      -9.704  27.769  -4.979  1.00  0.00    -0.051 Br
HETATM   37  C22 UNL     1     -11.277  25.877  -3.564  1.00  0.00     0.026 A 
ENDBRANCH  29  30
ENDBRANCH  27  29
ENDBRANCH  26  27
ENDBRANCH  24  26
ENDBRANCH  23  24
ENDBRANCH  20  21
ENDBRANCH   1  20
TORSDOF 10
ENDMDL
