MODEL 1
REMARK VINA RESULT: -9.396008311      0.000      0.000
REMARK  10 active torsions:
REMARK  status: ('A' for Active; 'I' for Inactive)
REMARK    1  A    between atoms: C2_2  and  C3_3 
REMARK    2  A    between atoms: N1_5  and  C5_6 
REMARK       I    between atoms: N2_11  and  C10_12 
REMARK    3  A    between atoms: C10_12  and  C11_14 
REMARK    4  A    between atoms: C11_14  and  C12_15 
REMARK    5  A    between atoms: C11_14  and  N3_19 
REMARK    6  A    between atoms: C12_15  and  C13_16 
REMARK       I    between atoms: N3_19  and  C16_21 
REMARK    7  A    between atoms: C16_21  and  C17_23 
REMARK    8  A    between atoms: C17_23  and  C18_24 
REMARK    9  A    between atoms: N4_31  and  C24_32 
REMARK   10  A    between atoms: C24_32  and  C25_33 
ROOT
HETATM    1  N3  UNL     1     -17.123  21.769  -4.931  1.00  0.00    -0.348 N 
ATOM      2  H3  UNL     1     -17.853  22.078  -5.574  1.00  0.00     0.163 HD
HETATM    3  C16 UNL     1     -17.460  20.939  -3.845  1.00  0.00     0.219 C 
HETATM    4  O2  UNL     1     -16.560  20.572  -3.069  1.00  0.00    -0.274 OA
ENDROOT
BRANCH   1   5
HETATM    5  C11 UNL     1     -15.703  22.204  -5.155  1.00  0.00     0.177 C 
BRANCH   5   6
HETATM    6  C10 UNL     1     -15.383  22.069  -6.578  1.00  0.00     0.243 C 
HETATM    7  N2  UNL     1     -14.130  22.237  -7.132  1.00  0.00    -0.339 N 
HETATM    8  C3  UNL     1     -13.816  22.177  -8.549  1.00  0.00     0.137 C 
HETATM    9  C9  UNL     1     -12.971  22.435  -6.296  1.00  0.00     0.157 C 
HETATM   10  C4  UNL     1     -12.683  21.217  -8.760  1.00  0.00     0.302 C 
HETATM   11  N1  UNL     1     -11.523  21.637  -8.026  1.00  0.00     0.096 N 
HETATM   12  C8  UNL     1     -11.759  22.751  -7.160  1.00  0.00     0.292 C 
HETATM   13  O1  UNL     1     -16.342  21.771  -7.340  1.00  0.00    -0.271 OA
BRANCH   8  14
HETATM   14  C2  UNL     1     -14.952  21.945  -9.441  1.00  0.00    -0.010 C 
HETATM   15  C1  UNL     1     -15.018  20.963 -10.332  1.00  0.00     0.009 C 
ENDBRANCH   8  14
BRANCH  11  16
HETATM   16  C5  UNL     1     -10.356  21.809  -8.863  1.00  0.00     0.215 C 
HETATM   17  C6  UNL     1      -9.085  21.639  -8.059  1.00  0.00     0.042 C 
HETATM   18  C7  UNL     1     -10.296  23.173  -9.506  1.00  0.00     0.042 C 
ENDBRANCH  11  16
ENDBRANCH   5   6
BRANCH   5  19
HETATM   19  C12 UNL     1     -15.677  23.620  -4.659  1.00  0.00     0.038 C 
BRANCH  19  20
HETATM   20  C13 UNL     1     -14.774  24.010  -3.579  1.00  0.00    -0.020 C 
HETATM   21  C14 UNL     1     -14.594  25.553  -3.682  1.00  0.00     0.009 C 
HETATM   22  C15 UNL     1     -15.426  23.873  -2.183  1.00  0.00     0.009 C 
ENDBRANCH  19  20
ENDBRANCH   5  19
ENDBRANCH   1   5
BRANCH   3  23
HETATM   23  C17 UNL     1     -18.849  20.521  -3.639  1.00  0.00     0.117 C 
BRANCH  23  24
HETATM   24  C18 UNL     1     -18.997  19.059  -3.952  1.00  0.00     0.001 C 
HETATM   25  C19 UNL     1     -18.686  18.293  -2.709  1.00  0.00    -0.020 C 
HETATM   26  C20 UNL     1     -19.789  18.045  -2.004  1.00  0.00    -0.029 C 
HETATM   27  C21 UNL     1     -20.941  18.638  -2.739  1.00  0.00     0.042 C 
HETATM   28  C22 UNL     1     -20.442  18.690  -4.195  1.00  0.00     0.094 C 
HETATM   29  C23 UNL     1     -20.472  17.312  -4.751  1.00  0.00     0.227 C 
HETATM   30  O3  UNL     1     -21.222  16.433  -4.252  1.00  0.00    -0.273 OA
HETATM   31  N4  UNL     1     -19.620  17.055  -5.856  1.00  0.00    -0.323 N 
HETATM   32  C27 UNL     1     -18.755  18.121  -6.288  1.00  0.00     0.152 C 
HETATM   33 BR1  UNL     1     -19.717  19.469  -7.299  1.00  0.00    -0.049 Br
HETATM   34 BR2  UNL     1     -17.376  17.424  -7.467  1.00  0.00    -0.049 Br
HETATM   35  C28 UNL     1     -18.080  18.702  -5.093  1.00  0.00     0.070 C 
BRANCH  31  36
HETATM   36  C24 UNL     1     -19.665  15.756  -6.482  1.00  0.00     0.128 C 
BRANCH  36  37
HETATM   37  C25 UNL     1     -20.712  15.718  -7.587  1.00  0.00     0.015 C 
HETATM   38  C26 UNL     1     -20.089  14.993  -8.774  1.00  0.00     0.006 C 
ENDBRANCH  36  37
ENDBRANCH  31  36
ENDBRANCH  23  24
ENDBRANCH   3  23
TORSDOF 10
ENDMDL
MODEL 2
REMARK VINA RESULT: -8.919721572      3.392      6.412
REMARK  10 active torsions:
REMARK  status: ('A' for Active; 'I' for Inactive)
REMARK    1  A    between atoms: C2_2  and  C3_3 
REMARK    2  A    between atoms: N1_5  and  C5_6 
REMARK       I    between atoms: N2_11  and  C10_12 
REMARK    3  A    between atoms: C10_12  and  C11_14 
REMARK    4  A    between atoms: C11_14  and  C12_15 
REMARK    5  A    between atoms: C11_14  and  N3_19 
REMARK    6  A    between atoms: C12_15  and  C13_16 
REMARK       I    between atoms: N3_19  and  C16_21 
REMARK    7  A    between atoms: C16_21  and  C17_23 
REMARK    8  A    between atoms: C17_23  and  C18_24 
REMARK    9  A    between atoms: N4_31  and  C24_32 
REMARK   10  A    between atoms: C24_32  and  C25_33 
ROOT
HETATM    1  N3  UNL     1     -12.237  21.327  -7.452  1.00  0.00    -0.348 N 
ATOM      2  H3  UNL     1     -12.040  20.716  -6.660  1.00  0.00     0.163 HD
HETATM    3  C16 UNL     1     -13.257  20.982  -8.359  1.00  0.00     0.219 C 
HETATM    4  O2  UNL     1     -13.484  21.737  -9.321  1.00  0.00    -0.274 OA
ENDROOT
BRANCH   1   5
HETATM    5  C11 UNL     1     -11.437  22.586  -7.637  1.00  0.00     0.177 C 
BRANCH   5   6
HETATM    6  C10 UNL     1     -11.393  23.312  -6.365  1.00  0.00     0.243 C 
HETATM    7  N2  UNL     1     -10.740  24.509  -6.155  1.00  0.00    -0.339 N 
HETATM    8  C3  UNL     1     -10.629  25.201  -4.882  1.00  0.00     0.137 C 
HETATM    9  C9  UNL     1     -10.140  25.229  -7.252  1.00  0.00     0.157 C 
HETATM   10  C4  UNL     1     -11.075  26.622  -5.055  1.00  0.00     0.302 C 
HETATM   11  N1  UNL     1     -10.267  27.287  -6.037  1.00  0.00     0.096 N 
HETATM   12  C8  UNL     1      -9.356  26.420  -6.721  1.00  0.00     0.292 C 
HETATM   13  O1  UNL     1     -12.011  22.786  -5.401  1.00  0.00    -0.271 OA
BRANCH   8  14
HETATM   14  C2  UNL     1     -11.250  24.529  -3.740  1.00  0.00    -0.010 C 
HETATM   15  C1  UNL     1     -11.723  25.154  -2.668  1.00  0.00     0.009 C 
ENDBRANCH   8  14
BRANCH  11  16
HETATM   16  C5  UNL     1      -9.634  28.486  -5.532  1.00  0.00     0.215 C 
HETATM   17  C6  UNL     1      -9.333  29.453  -6.656  1.00  0.00     0.042 C 
HETATM   18  C7  UNL     1      -8.328  28.203  -4.828  1.00  0.00     0.042 C 
ENDBRANCH  11  16
ENDBRANCH   5   6
BRANCH   5  19
HETATM   19  C12 UNL     1     -10.097  22.095  -8.102  1.00  0.00     0.038 C 
BRANCH  19  20
HETATM   20  C13 UNL     1      -9.878  21.762  -9.508  1.00  0.00    -0.020 C 
HETATM   21  C14 UNL     1      -9.653  23.109 -10.256  1.00  0.00     0.009 C 
HETATM   22  C15 UNL     1      -8.523  21.054  -9.743  1.00  0.00     0.009 C 
ENDBRANCH  19  20
ENDBRANCH   5  19
ENDBRANCH   1   5
BRANCH   3  23
HETATM   23  C17 UNL     1     -14.031  19.753  -8.167  1.00  0.00     0.117 C 
BRANCH  23  24
HETATM   24  C18 UNL     1     -15.405  20.086  -7.659  1.00  0.00     0.001 C 
HETATM   25  C19 UNL     1     -16.322  20.153  -8.835  1.00  0.00    -0.020 C 
HETATM   26  C20 UNL     1     -16.910  18.978  -9.057  1.00  0.00    -0.029 C 
HETATM   27  C21 UNL     1     -16.421  18.021  -8.026  1.00  0.00     0.042 C 
HETATM   28  C22 UNL     1     -15.993  18.941  -6.866  1.00  0.00     0.094 C 
HETATM   29  C23 UNL     1     -17.217  19.440  -6.187  1.00  0.00     0.227 C 
HETATM   30  O3  UNL     1     -18.304  18.813  -6.276  1.00  0.00    -0.273 OA
HETATM   31  N4  UNL     1     -17.085  20.644  -5.446  1.00  0.00    -0.323 N 
HETATM   32  C27 UNL     1     -15.808  21.308  -5.482  1.00  0.00     0.152 C 
HETATM   33 BR1  UNL     1     -14.502  20.427  -4.349  1.00  0.00    -0.049 Br
HETATM   34 BR2  UNL     1     -15.983  23.125  -4.815  1.00  0.00    -0.049 Br
HETATM   35  C28 UNL     1     -15.350  21.386  -6.898  1.00  0.00     0.070 C 
BRANCH  31  36
HETATM   36  C24 UNL     1     -18.222  21.133  -4.704  1.00  0.00     0.128 C 
BRANCH  36  37
HETATM   37  C25 UNL     1     -18.176  20.657  -3.259  1.00  0.00     0.015 C 
HETATM   38  C26 UNL     1     -19.265  19.602  -3.097  1.00  0.00     0.006 C 
ENDBRANCH  36  37
ENDBRANCH  31  36
ENDBRANCH  23  24
ENDBRANCH   3  23
TORSDOF 10
ENDMDL
MODEL 3
REMARK VINA RESULT: -8.899100092      2.098      5.103
REMARK  10 active torsions:
REMARK  status: ('A' for Active; 'I' for Inactive)
REMARK    1  A    between atoms: C2_2  and  C3_3 
REMARK    2  A    between atoms: N1_5  and  C5_6 
REMARK       I    between atoms: N2_11  and  C10_12 
REMARK    3  A    between atoms: C10_12  and  C11_14 
REMARK    4  A    between atoms: C11_14  and  C12_15 
REMARK    5  A    between atoms: C11_14  and  N3_19 
REMARK    6  A    between atoms: C12_15  and  C13_16 
REMARK       I    between atoms: N3_19  and  C16_21 
REMARK    7  A    between atoms: C16_21  and  C17_23 
REMARK    8  A    between atoms: C17_23  and  C18_24 
REMARK    9  A    between atoms: N4_31  and  C24_32 
REMARK   10  A    between atoms: C24_32  and  C25_33 
ROOT
HETATM    1  N3  UNL     1     -15.234  19.466  -7.184  1.00  0.00    -0.348 N 
ATOM      2  H3  UNL     1     -15.047  18.728  -6.505  1.00  0.00     0.163 HD
HETATM    3  C16 UNL     1     -16.146  19.233  -8.231  1.00  0.00     0.219 C 
HETATM    4  O2  UNL     1     -16.361  20.142  -9.052  1.00  0.00    -0.274 OA
ENDROOT
BRANCH   1   5
HETATM    5  C11 UNL     1     -14.532  20.788  -7.056  1.00  0.00     0.177 C 
BRANCH   5   6
HETATM    6  C10 UNL     1     -14.742  21.308  -5.702  1.00  0.00     0.243 C 
HETATM    7  N2  UNL     1     -13.913  22.201  -5.055  1.00  0.00    -0.339 N 
HETATM    8  C3  UNL     1     -14.072  22.667  -3.688  1.00  0.00     0.137 C 
HETATM    9  C9  UNL     1     -12.804  22.815  -5.743  1.00  0.00     0.157 C 
HETATM   10  C4  UNL     1     -14.041  24.166  -3.674  1.00  0.00     0.302 C 
HETATM   11  N1  UNL     1     -12.798  24.649  -4.206  1.00  0.00     0.096 N 
HETATM   12  C8  UNL     1     -11.969  23.623  -4.761  1.00  0.00     0.292 C 
HETATM   13  O1  UNL     1     -15.770  20.897  -5.100  1.00  0.00    -0.271 OA
BRANCH   8  14
HETATM   14  C2  UNL     1     -15.203  22.099  -2.953  1.00  0.00    -0.010 C 
HETATM   15  C1  UNL     1     -16.174  22.816  -2.400  1.00  0.00     0.009 C 
ENDBRANCH   8  14
BRANCH  11  16
HETATM   16  C5  UNL     1     -12.089  25.515  -3.290  1.00  0.00     0.215 C 
HETATM   17  C6  UNL     1     -10.620  25.588  -3.644  1.00  0.00     0.042 C 
HETATM   18  C7  UNL     1     -12.178  25.046  -1.857  1.00  0.00     0.042 C 
ENDBRANCH  11  16
ENDBRANCH   5   6
BRANCH   5  19
HETATM   19  C12 UNL     1     -13.099  20.467  -7.367  1.00  0.00     0.038 C 
BRANCH  19  20
HETATM   20  C13 UNL     1     -12.528  20.813  -8.666  1.00  0.00    -0.020 C 
HETATM   21  C14 UNL     1     -13.357  22.011  -9.215  1.00  0.00     0.009 C 
HETATM   22  C15 UNL     1     -11.122  21.446  -8.546  1.00  0.00     0.009 C 
ENDBRANCH  19  20
ENDBRANCH   5  19
ENDBRANCH   1   5
BRANCH   3  23
HETATM   23  C17 UNL     1     -16.824  17.939  -8.344  1.00  0.00     0.117 C 
BRANCH  23  24
HETATM   24  C18 UNL     1     -18.226  18.047  -7.813  1.00  0.00     0.001 C 
HETATM   25  C19 UNL     1     -19.144  18.207  -8.980  1.00  0.00    -0.020 C 
HETATM   26  C20 UNL     1     -19.609  17.029  -9.395  1.00  0.00    -0.029 C 
HETATM   27  C21 UNL     1     -19.025  15.975  -8.519  1.00  0.00     0.042 C 
HETATM   28  C22 UNL     1     -18.694  16.737  -7.222  1.00  0.00     0.094 C 
HETATM   29  C23 UNL     1     -19.963  16.996  -6.493  1.00  0.00     0.227 C 
HETATM   30  O3  UNL     1     -20.980  16.284  -6.699  1.00  0.00    -0.273 OA
HETATM   31  N4  UNL     1     -19.956  18.073  -5.569  1.00  0.00    -0.323 N 
HETATM   32  C27 UNL     1     -18.754  18.860  -5.478  1.00  0.00     0.152 C 
HETATM   33 BR1  UNL     1     -17.366  17.946  -4.476  1.00  0.00    -0.049 Br
HETATM   34 BR2  UNL     1     -19.114  20.521  -4.535  1.00  0.00    -0.049 Br
HETATM   35  C28 UNL     1     -18.305  19.208  -6.856  1.00  0.00     0.070 C 
BRANCH  31  36
HETATM   36  C24 UNL     1     -21.137  18.321  -4.779  1.00  0.00     0.128 C 
BRANCH  36  37
HETATM   37  C25 UNL     1     -21.173  17.419  -3.553  1.00  0.00     0.015 C 
HETATM   38  C26 UNL     1     -21.422  18.313  -2.343  1.00  0.00     0.006 C 
ENDBRANCH  36  37
ENDBRANCH  31  36
ENDBRANCH  23  24
ENDBRANCH   3  23
TORSDOF 10
ENDMDL
MODEL 4
REMARK VINA RESULT: -8.821244561      2.597      9.158
REMARK  10 active torsions:
REMARK  status: ('A' for Active; 'I' for Inactive)
REMARK    1  A    between atoms: C2_2  and  C3_3 
REMARK    2  A    between atoms: N1_5  and  C5_6 
REMARK       I    between atoms: N2_11  and  C10_12 
REMARK    3  A    between atoms: C10_12  and  C11_14 
REMARK    4  A    between atoms: C11_14  and  C12_15 
REMARK    5  A    between atoms: C11_14  and  N3_19 
REMARK    6  A    between atoms: C12_15  and  C13_16 
REMARK       I    between atoms: N3_19  and  C16_21 
REMARK    7  A    between atoms: C16_21  and  C17_23 
REMARK    8  A    between atoms: C17_23  and  C18_24 
REMARK    9  A    between atoms: N4_31  and  C24_32 
REMARK   10  A    between atoms: C24_32  and  C25_33 
ROOT
HETATM    1  N3  UNL     1     -16.947  18.992  -6.745  1.00  0.00    -0.348 N 
ATOM      2  H3  UNL     1     -16.180  18.335  -6.891  1.00  0.00     0.163 HD
HETATM    3  C16 UNL     1     -16.871  20.284  -7.300  1.00  0.00     0.219 C 
HETATM    4  O2  UNL     1     -17.812  21.074  -7.111  1.00  0.00    -0.274 OA
ENDROOT
BRANCH   1   5
HETATM    5  C11 UNL     1     -18.143  18.570  -5.939  1.00  0.00     0.177 C 
BRANCH   5   6
HETATM    6  C10 UNL     1     -18.817  17.469  -6.631  1.00  0.00     0.243 C 
HETATM    7  N2  UNL     1     -20.118  17.067  -6.408  1.00  0.00    -0.339 N 
HETATM    8  C3  UNL     1     -20.773  15.932  -7.036  1.00  0.00     0.137 C 
HETATM    9  C9  UNL     1     -20.988  17.819  -5.537  1.00  0.00     0.157 C 
HETATM   10  C4  UNL     1     -22.072  16.384  -7.636  1.00  0.00     0.302 C 
HETATM   11  N1  UNL     1     -22.928  16.936  -6.625  1.00  0.00     0.096 N 
HETATM   12  C8  UNL     1     -22.300  17.073  -5.346  1.00  0.00     0.292 C 
HETATM   13  O1  UNL     1     -18.138  16.855  -7.498  1.00  0.00    -0.271 OA
BRANCH   8  14
HETATM   14  C2  UNL     1     -19.945  15.152  -7.957  1.00  0.00    -0.010 C 
HETATM   15  C1  UNL     1     -20.250  14.922  -9.228  1.00  0.00     0.009 C 
ENDBRANCH   8  14
BRANCH  11  16
HETATM   16  C5  UNL     1     -24.215  16.282  -6.554  1.00  0.00     0.215 C 
HETATM   17  C6  UNL     1     -24.316  15.175  -7.581  1.00  0.00     0.042 C 
HETATM   18  C7  UNL     1     -25.365  17.228  -6.807  1.00  0.00     0.042 C 
ENDBRANCH  11  16
ENDBRANCH   5   6
BRANCH   5  19
HETATM   19  C12 UNL     1     -17.565  18.187  -4.609  1.00  0.00     0.038 C 
BRANCH  19  20
HETATM   20  C13 UNL     1     -17.861  18.979  -3.417  1.00  0.00    -0.020 C 
HETATM   21  C14 UNL     1     -18.682  20.213  -3.893  1.00  0.00     0.009 C 
HETATM   22  C15 UNL     1     -18.876  18.282  -2.481  1.00  0.00     0.009 C 
ENDBRANCH  19  20
ENDBRANCH   5  19
ENDBRANCH   1   5
BRANCH   3  23
HETATM   23  C17 UNL     1     -15.699  20.682  -8.084  1.00  0.00     0.117 C 
BRANCH  23  24
HETATM   24  C18 UNL     1     -14.550  20.995  -7.167  1.00  0.00     0.001 C 
HETATM   25  C19 UNL     1     -13.444  20.043  -7.481  1.00  0.00    -0.020 C 
HETATM   26  C20 UNL     1     -12.603  20.557  -8.378  1.00  0.00    -0.029 C 
HETATM   27  C21 UNL     1     -13.095  21.917  -8.736  1.00  0.00     0.042 C 
HETATM   28  C22 UNL     1     -13.923  22.328  -7.504  1.00  0.00     0.094 C 
HETATM   29  C23 UNL     1     -12.986  22.680  -6.405  1.00  0.00     0.227 C 
HETATM   30  O3  UNL     1     -11.802  23.025  -6.654  1.00  0.00    -0.273 OA
HETATM   31  N4  UNL     1     -13.501  22.605  -5.084  1.00  0.00    -0.323 N 
HETATM   32  C27 UNL     1     -14.848  22.125  -4.924  1.00  0.00     0.152 C 
HETATM   33 BR1  UNL     1     -16.158  23.477  -5.395  1.00  0.00    -0.049 Br
HETATM   34 BR2  UNL     1     -15.174  21.661  -3.065  1.00  0.00    -0.049 Br
HETATM   35  C28 UNL     1     -15.014  20.887  -5.737  1.00  0.00     0.070 C 
BRANCH  31  36
HETATM   36  C24 UNL     1     -12.658  23.008  -3.985  1.00  0.00     0.128 C 
BRANCH  36  37
HETATM   37  C25 UNL     1     -12.856  24.482  -3.658  1.00  0.00     0.015 C 
HETATM   38  C26 UNL     1     -12.599  24.650  -2.164  1.00  0.00     0.006 C 
ENDBRANCH  36  37
ENDBRANCH  31  36
ENDBRANCH  23  24
ENDBRANCH   3  23
TORSDOF 10
ENDMDL
MODEL 5
REMARK VINA RESULT: -8.691694386      2.054      3.724
REMARK  10 active torsions:
REMARK  status: ('A' for Active; 'I' for Inactive)
REMARK    1  A    between atoms: C2_2  and  C3_3 
REMARK    2  A    between atoms: N1_5  and  C5_6 
REMARK       I    between atoms: N2_11  and  C10_12 
REMARK    3  A    between atoms: C10_12  and  C11_14 
REMARK    4  A    between atoms: C11_14  and  C12_15 
REMARK    5  A    between atoms: C11_14  and  N3_19 
REMARK    6  A    between atoms: C12_15  and  C13_16 
REMARK       I    between atoms: N3_19  and  C16_21 
REMARK    7  A    between atoms: C16_21  and  C17_23 
REMARK    8  A    between atoms: C17_23  and  C18_24 
REMARK    9  A    between atoms: N4_31  and  C24_32 
REMARK   10  A    between atoms: C24_32  and  C25_33 
ROOT
HETATM    1  N3  UNL     1     -16.031  21.089  -4.144  1.00  0.00    -0.348 N 
ATOM      2  H3  UNL     1     -15.801  20.563  -3.300  1.00  0.00     0.163 HD
HETATM    3  C16 UNL     1     -17.380  21.279  -4.499  1.00  0.00     0.219 C 
HETATM    4  O2  UNL     1     -17.644  21.919  -5.531  1.00  0.00    -0.274 OA
ENDROOT
BRANCH   1   5
HETATM    5  C11 UNL     1     -14.927  21.650  -4.994  1.00  0.00     0.177 C 
BRANCH   5   6
HETATM    6  C10 UNL     1     -14.114  22.556  -4.178  1.00  0.00     0.243 C 
HETATM    7  N2  UNL     1     -12.968  23.197  -4.604  1.00  0.00    -0.339 N 
HETATM    8  C3  UNL     1     -12.115  24.040  -3.782  1.00  0.00     0.137 C 
HETATM    9  C9  UNL     1     -12.545  23.123  -5.980  1.00  0.00     0.157 C 
HETATM   10  C4  UNL     1     -11.908  25.353  -4.476  1.00  0.00     0.302 C 
HETATM   11  N1  UNL     1     -11.298  25.154  -5.760  1.00  0.00     0.096 N 
HETATM   12  C8  UNL     1     -11.181  23.778  -6.138  1.00  0.00     0.292 C 
HETATM   13  O1  UNL     1     -14.512  22.755  -3.000  1.00  0.00    -0.271 OA
BRANCH   8  14
HETATM   14  C2  UNL     1     -12.519  24.176  -2.382  1.00  0.00    -0.010 C 
HETATM   15  C1  UNL     1     -12.308  25.259  -1.643  1.00  0.00     0.009 C 
ENDBRANCH   8  14
BRANCH  11  16
HETATM   16  C5  UNL     1     -10.064  25.891  -5.919  1.00  0.00     0.215 C 
HETATM   17  C6  UNL     1      -9.979  27.026  -4.923  1.00  0.00     0.042 C 
HETATM   18  C7  UNL     1      -9.920  26.496  -7.296  1.00  0.00     0.042 C 
ENDBRANCH  11  16
ENDBRANCH   5   6
BRANCH   5  19
HETATM   19  C12 UNL     1     -14.187  20.435  -5.471  1.00  0.00     0.038 C 
BRANCH  19  20
HETATM   20  C13 UNL     1     -14.437  19.891  -6.804  1.00  0.00    -0.020 C 
HETATM   21  C14 UNL     1     -15.183  20.999  -7.606  1.00  0.00     0.009 C 
HETATM   22  C15 UNL     1     -13.142  19.737  -7.634  1.00  0.00     0.009 C 
ENDBRANCH  19  20
ENDBRANCH   5  19
ENDBRANCH   1   5
BRANCH   3  23
HETATM   23  C17 UNL     1     -18.448  20.727  -3.661  1.00  0.00     0.117 C 
BRANCH  23  24
HETATM   24  C18 UNL     1     -18.610  19.258  -3.936  1.00  0.00     0.001 C 
HETATM   25  C19 UNL     1     -18.164  18.516  -2.720  1.00  0.00    -0.020 C 
HETATM   26  C20 UNL     1     -19.187  18.267  -1.903  1.00  0.00    -0.029 C 
HETATM   27  C21 UNL     1     -20.415  18.837  -2.524  1.00  0.00     0.042 C 
HETATM   28  C22 UNL     1     -20.068  18.870  -4.025  1.00  0.00     0.094 C 
HETATM   29  C23 UNL     1     -20.137  17.483  -4.554  1.00  0.00     0.227 C 
HETATM   30  O3  UNL     1     -20.821  16.604  -3.968  1.00  0.00    -0.273 OA
HETATM   31  N4  UNL     1     -19.399  17.218  -5.737  1.00  0.00    -0.323 N 
HETATM   32  C27 UNL     1     -18.595  18.286  -6.270  1.00  0.00     0.152 C 
HETATM   33 BR1  UNL     1     -19.671  19.608  -7.197  1.00  0.00    -0.049 Br
HETATM   34 BR2  UNL     1     -17.335  17.585  -7.574  1.00  0.00    -0.049 Br
HETATM   35  C28 UNL     1     -17.809  18.893  -5.159  1.00  0.00     0.070 C 
BRANCH  31  36
HETATM   36  C24 UNL     1     -19.491  15.909  -6.336  1.00  0.00     0.128 C 
BRANCH  36  37
HETATM   37  C25 UNL     1     -20.613  15.857  -7.365  1.00  0.00     0.015 C 
HETATM   38  C26 UNL     1     -20.136  14.964  -8.505  1.00  0.00     0.006 C 
ENDBRANCH  36  37
ENDBRANCH  31  36
ENDBRANCH  23  24
ENDBRANCH   3  23
TORSDOF 10
ENDMDL
