MODEL 1
REMARK VINA RESULT: -8.674588855      0.000      0.000
REMARK  10 active torsions:
REMARK  status: ('A' for Active; 'I' for Inactive)
REMARK    1  A    between atoms: C2_2  and  C3_3 
REMARK    2  A    between atoms: C3_3  and  C4_4 
REMARK    3  A    between atoms: C4_4  and  C5_5 
REMARK    4  A    between atoms: C5_5  and  N1_6 
REMARK    5  A    between atoms: C12_13  and  C13_14 
REMARK    6  A    between atoms: C13_14  and  C14_15 
REMARK    7  A    between atoms: N2_20  and  C16_21 
REMARK    8  A    between atoms: C16_21  and  N3_25 
REMARK    9  A    between atoms: C21_29  and  C22_30 
REMARK   10  A    between atoms: C22_30  and  N4_31 
ROOT
HETATM    1  C1  UNL     1     -17.654  18.659  -4.776  1.00  0.00     0.025 C 
HETATM    2  C2  UNL     1     -18.465  19.178  -5.929  1.00  0.00     0.039 C 
HETATM    3  C11 UNL     1     -18.502  17.976  -6.919  1.00  0.00     0.033 C 
HETATM    4  C12 UNL     1     -17.848  18.306  -8.220  1.00  0.00     0.090 C 
HETATM    5  C15 UNL     1     -16.450  18.808  -7.902  1.00  0.00     0.237 C 
HETATM    6  O3  UNL     1     -15.443  18.222  -8.216  1.00  0.00    -0.272 OA
HETATM    7  N2  UNL     1     -16.466  20.059  -7.180  1.00  0.00    -0.234 N 
HETATM    8  C27 UNL     1     -17.785  20.297  -6.631  1.00  0.00     0.240 C 
HETATM    9  O4  UNL     1     -18.303  21.399  -6.763  1.00  0.00    -0.272 OA
ENDROOT
BRANCH   7  10
HETATM   10  C16 UNL     1     -15.389  20.918  -7.165  1.00  0.00     0.140 C 
HETATM   11  C17 UNL     1     -14.745  21.390  -8.200  1.00  0.00     0.102 C 
HETATM   12 BR1  UNL     1     -13.219  22.588  -7.987  1.00  0.00    -0.039 Br
HETATM   13 BR2  UNL     1     -15.249  21.096 -10.003  1.00  0.00    -0.039 Br
BRANCH  10  14
HETATM   14  N3  UNL     1     -14.831  21.378  -5.879  1.00  0.00    -0.365 N 
HETATM   15  C18 UNL     1     -14.230  20.415  -5.011  1.00  0.00     0.124 C 
HETATM   16  C19 UNL     1     -14.348  20.724  -3.554  1.00  0.00     0.020 C 
HETATM   17  C20 UNL     1     -14.718  22.119  -3.194  1.00  0.00     0.009 C 
HETATM   18  C21 UNL     1     -14.405  23.146  -4.215  1.00  0.00     0.030 C 
HETATM   19  C26 UNL     1     -14.959  22.770  -5.592  1.00  0.00     0.130 C 
BRANCH  18  20
HETATM   20  C22 UNL     1     -12.977  23.506  -4.384  1.00  0.00     0.242 C 
BRANCH  20  21
HETATM   21  N4  UNL     1     -12.488  24.703  -3.808  1.00  0.00    -0.078 N 
HETATM   22  C23 UNL     1     -11.514  25.445  -4.532  1.00  0.00     0.271 C 
HETATM   23  C24 UNL     1     -11.961  24.439  -2.437  1.00  0.00     0.271 C 
HETATM   24  C25 UNL     1     -13.630  25.595  -3.547  1.00  0.00     0.271 C 
ENDBRANCH  20  21
ENDBRANCH  18  20
ENDBRANCH  10  14
ENDBRANCH   7  10
BRANCH   4  25
HETATM   25  C13 UNL     1     -17.763  17.083  -9.090  1.00  0.00     0.127 C 
BRANCH  25  26
HETATM   26  C14 UNL     1     -19.053  16.373  -9.104  1.00  0.00     0.173 C 
HETATM   27  O1  UNL     1     -20.098  17.002  -9.392  1.00  0.00    -0.648 OA
HETATM   28  O2  UNL     1     -19.134  15.029  -8.806  1.00  0.00    -0.648 OA
ENDBRANCH  25  26
ENDBRANCH   4  25
BRANCH   2  29
HETATM   29  C3  UNL     1     -19.867  19.534  -5.664  1.00  0.00     0.020 C 
BRANCH  29  30
HETATM   30  C4  UNL     1     -20.417  19.709  -4.316  1.00  0.00     0.021 C 
BRANCH  30  31
HETATM   31  C5  UNL     1     -21.315  18.629  -3.865  1.00  0.00     0.122 C 
BRANCH  31  32
HETATM   32  N1  UNL     1     -21.439  17.533  -4.805  1.00  0.00    -0.393 N 
HETATM   33  C6  UNL     1     -20.847  16.309  -4.438  1.00  0.00     0.058 C 
HETATM   34  C7  UNL     1     -20.682  15.446  -5.682  1.00  0.00     0.044 C 
HETATM   35  C8  UNL     1     -21.895  15.427  -6.553  1.00  0.00     0.007 C 
HETATM   36  C9  UNL     1     -23.065  15.929  -5.698  1.00  0.00     0.020 C 
HETATM   37  C10 UNL     1     -22.715  17.394  -5.397  1.00  0.00     0.122 C 
ENDBRANCH  31  32
ENDBRANCH  30  31
ENDBRANCH  29  30
ENDBRANCH   2  29
TORSDOF 10
ENDMDL
MODEL 2
REMARK VINA RESULT: -8.597994669      2.542      8.943
REMARK  10 active torsions:
REMARK  status: ('A' for Active; 'I' for Inactive)
REMARK    1  A    between atoms: C2_2  and  C3_3 
REMARK    2  A    between atoms: C3_3  and  C4_4 
REMARK    3  A    between atoms: C4_4  and  C5_5 
REMARK    4  A    between atoms: C5_5  and  N1_6 
REMARK    5  A    between atoms: C12_13  and  C13_14 
REMARK    6  A    between atoms: C13_14  and  C14_15 
REMARK    7  A    between atoms: N2_20  and  C16_21 
REMARK    8  A    between atoms: C16_21  and  N3_25 
REMARK    9  A    between atoms: C21_29  and  C22_30 
REMARK   10  A    between atoms: C22_30  and  N4_31 
ROOT
HETATM    1  C1  UNL     1     -15.711  20.330  -5.037  1.00  0.00     0.025 C 
HETATM    2  C2  UNL     1     -17.075  20.884  -4.734  1.00  0.00     0.039 C 
HETATM    3  C11 UNL     1     -17.473  20.168  -3.409  1.00  0.00     0.033 C 
HETATM    4  C12 UNL     1     -18.690  19.320  -3.578  1.00  0.00     0.090 C 
HETATM    5  C15 UNL     1     -18.421  18.378  -4.738  1.00  0.00     0.237 C 
HETATM    6  O3  UNL     1     -18.323  17.182  -4.617  1.00  0.00    -0.272 OA
HETATM    7  N2  UNL     1     -18.292  19.077  -5.996  1.00  0.00    -0.234 N 
HETATM    8  C27 UNL     1     -18.076  20.489  -5.758  1.00  0.00     0.240 C 
HETATM    9  O4  UNL     1     -18.723  21.312  -6.394  1.00  0.00    -0.272 OA
ENDROOT
BRANCH   7  10
HETATM   10  C16 UNL     1     -18.487  18.456  -7.209  1.00  0.00     0.140 C 
HETATM   11  C17 UNL     1     -17.814  18.655  -8.313  1.00  0.00     0.102 C 
HETATM   12 BR1  UNL     1     -18.248  17.692  -9.955  1.00  0.00    -0.039 Br
HETATM   13 BR2  UNL     1     -16.293  19.775  -8.454  1.00  0.00    -0.039 Br
BRANCH  10  14
HETATM   14  N3  UNL     1     -19.570  17.465  -7.365  1.00  0.00    -0.365 N 
HETATM   15  C18 UNL     1     -19.231  16.077  -7.365  1.00  0.00     0.124 C 
HETATM   16  C19 UNL     1     -20.123  15.214  -8.196  1.00  0.00     0.020 C 
HETATM   17  C20 UNL     1     -21.429  15.798  -8.603  1.00  0.00     0.009 C 
HETATM   18  C21 UNL     1     -21.938  16.889  -7.738  1.00  0.00     0.030 C 
HETATM   19  C26 UNL     1     -20.889  17.985  -7.526  1.00  0.00     0.130 C 
BRANCH  18  20
HETATM   20  C22 UNL     1     -22.459  16.498  -6.406  1.00  0.00     0.242 C 
BRANCH  20  21
HETATM   21  N4  UNL     1     -23.846  16.261  -6.244  1.00  0.00    -0.078 N 
HETATM   22  C23 UNL     1     -24.315  14.925  -6.379  1.00  0.00     0.271 C 
HETATM   23  C24 UNL     1     -24.631  17.136  -7.164  1.00  0.00     0.271 C 
HETATM   24  C25 UNL     1     -24.249  16.747  -4.915  1.00  0.00     0.271 C 
ENDBRANCH  20  21
ENDBRANCH  18  20
ENDBRANCH  10  14
ENDBRANCH   7  10
BRANCH   4  25
HETATM   25  C13 UNL     1     -18.955  18.527  -2.329  1.00  0.00     0.127 C 
BRANCH  25  26
HETATM   26  C14 UNL     1     -20.374  18.144  -2.255  1.00  0.00     0.173 C 
HETATM   27  O1  UNL     1     -21.228  18.826  -2.869  1.00  0.00    -0.648 OA
HETATM   28  O2  UNL     1     -20.783  17.049  -1.524  1.00  0.00    -0.648 OA
ENDBRANCH  25  26
ENDBRANCH   4  25
BRANCH   2  29
HETATM   29  C3  UNL     1     -17.176  22.326  -4.468  1.00  0.00     0.020 C 
BRANCH  29  30
HETATM   30  C4  UNL     1     -16.019  23.226  -4.435  1.00  0.00     0.021 C 
BRANCH  30  31
HETATM   31  C5  UNL     1     -15.414  23.417  -3.102  1.00  0.00     0.122 C 
BRANCH  31  32
HETATM   32  N1  UNL     1     -14.160  24.143  -3.123  1.00  0.00    -0.393 N 
HETATM   33  C6  UNL     1     -13.411  24.154  -1.930  1.00  0.00     0.058 C 
HETATM   34  C7  UNL     1     -12.400  25.291  -1.992  1.00  0.00     0.044 C 
HETATM   35  C8  UNL     1     -11.677  25.368  -3.297  1.00  0.00     0.007 C 
HETATM   36  C9  UNL     1     -11.871  24.017  -3.994  1.00  0.00     0.020 C 
HETATM   37  C10 UNL     1     -13.378  23.951  -4.285  1.00  0.00     0.122 C 
ENDBRANCH  31  32
ENDBRANCH  30  31
ENDBRANCH  29  30
ENDBRANCH   2  29
TORSDOF 10
ENDMDL
MODEL 3
REMARK VINA RESULT: -8.456149617      1.497      3.230
REMARK  10 active torsions:
REMARK  status: ('A' for Active; 'I' for Inactive)
REMARK    1  A    between atoms: C2_2  and  C3_3 
REMARK    2  A    between atoms: C3_3  and  C4_4 
REMARK    3  A    between atoms: C4_4  and  C5_5 
REMARK    4  A    between atoms: C5_5  and  N1_6 
REMARK    5  A    between atoms: C12_13  and  C13_14 
REMARK    6  A    between atoms: C13_14  and  C14_15 
REMARK    7  A    between atoms: N2_20  and  C16_21 
REMARK    8  A    between atoms: C16_21  and  N3_25 
REMARK    9  A    between atoms: C21_29  and  C22_30 
REMARK   10  A    between atoms: C22_30  and  N4_31 
ROOT
HETATM    1  C1  UNL     1     -17.630  18.973  -9.670  1.00  0.00     0.025 C 
HETATM    2  C2  UNL     1     -17.622  18.270  -8.342  1.00  0.00     0.039 C 
HETATM    3  C11 UNL     1     -18.947  18.740  -7.672  1.00  0.00     0.033 C 
HETATM    4  C12 UNL     1     -18.696  19.502  -6.413  1.00  0.00     0.090 C 
HETATM    5  C15 UNL     1     -17.737  20.629  -6.757  1.00  0.00     0.237 C 
HETATM    6  O3  UNL     1     -18.037  21.797  -6.708  1.00  0.00    -0.272 OA
HETATM    7  N2  UNL     1     -16.435  20.144  -7.150  1.00  0.00    -0.234 N 
HETATM    8  C27 UNL     1     -16.509  18.734  -7.474  1.00  0.00     0.240 C 
HETATM    9  O4  UNL     1     -15.667  17.967  -7.023  1.00  0.00    -0.272 OA
ENDROOT
BRANCH   7  10
HETATM   10  C16 UNL     1     -15.303  20.924  -7.079  1.00  0.00     0.140 C 
HETATM   11  C17 UNL     1     -14.562  21.329  -8.078  1.00  0.00     0.102 C 
HETATM   12 BR1  UNL     1     -12.971  22.421  -7.785  1.00  0.00    -0.039 Br
HETATM   13 BR2  UNL     1     -14.970  21.035  -9.904  1.00  0.00    -0.039 Br
BRANCH  10  14
HETATM   14  N3  UNL     1     -14.796  21.370  -5.767  1.00  0.00    -0.365 N 
HETATM   15  C18 UNL     1     -14.301  20.387  -4.856  1.00  0.00     0.124 C 
HETATM   16  C19 UNL     1     -14.487  20.720  -3.412  1.00  0.00     0.020 C 
HETATM   17  C20 UNL     1     -14.800  22.138  -3.087  1.00  0.00     0.009 C 
HETATM   18  C21 UNL     1     -14.371  23.134  -4.098  1.00  0.00     0.030 C 
HETATM   19  C26 UNL     1     -14.864  22.771  -5.502  1.00  0.00     0.130 C 
BRANCH  18  20
HETATM   20  C22 UNL     1     -12.918  23.414  -4.186  1.00  0.00     0.242 C 
BRANCH  20  21
HETATM   21  N4  UNL     1     -12.398  24.589  -3.593  1.00  0.00    -0.078 N 
HETATM   22  C23 UNL     1     -11.911  24.506  -2.260  1.00  0.00     0.271 C 
HETATM   23  C24 UNL     1     -13.402  25.691  -3.665  1.00  0.00     0.271 C 
HETATM   24  C25 UNL     1     -11.305  25.094  -4.440  1.00  0.00     0.271 C 
ENDBRANCH  20  21
ENDBRANCH  18  20
ENDBRANCH  10  14
ENDBRANCH   7  10
BRANCH   4  25
HETATM   25  C13 UNL     1     -19.980  20.071  -5.878  1.00  0.00     0.127 C 
BRANCH  25  26
HETATM   26  C14 UNL     1     -20.121  19.760  -4.446  1.00  0.00     0.173 C 
HETATM   27  O1  UNL     1     -21.140  19.148  -4.048  1.00  0.00    -0.648 OA
HETATM   28  O2  UNL     1     -19.155  20.129  -3.535  1.00  0.00    -0.648 OA
ENDBRANCH  25  26
ENDBRANCH   4  25
BRANCH   2  29
HETATM   29  C3  UNL     1     -17.667  16.801  -8.354  1.00  0.00     0.020 C 
BRANCH  29  30
HETATM   30  C4  UNL     1     -18.700  16.027  -9.049  1.00  0.00     0.021 C 
BRANCH  30  31
HETATM   31  C5  UNL     1     -19.328  14.961  -8.246  1.00  0.00     0.122 C 
BRANCH  31  32
HETATM   32  N1  UNL     1     -20.510  15.385  -7.524  1.00  0.00    -0.393 N 
HETATM   33  C6  UNL     1     -20.314  15.897  -6.226  1.00  0.00     0.058 C 
HETATM   34  C7  UNL     1     -21.639  15.865  -5.476  1.00  0.00     0.044 C 
HETATM   35  C8  UNL     1     -22.787  16.374  -6.285  1.00  0.00     0.007 C 
HETATM   36  C9  UNL     1     -22.192  17.169  -7.453  1.00  0.00     0.020 C 
HETATM   37  C10 UNL     1     -21.447  16.117  -8.289  1.00  0.00     0.122 C 
ENDBRANCH  31  32
ENDBRANCH  30  31
ENDBRANCH  29  30
ENDBRANCH   2  29
TORSDOF 10
ENDMDL
MODEL 4
REMARK VINA RESULT: -8.416096915      1.968      3.469
REMARK  10 active torsions:
REMARK  status: ('A' for Active; 'I' for Inactive)
REMARK    1  A    between atoms: C2_2  and  C3_3 
REMARK    2  A    between atoms: C3_3  and  C4_4 
REMARK    3  A    between atoms: C4_4  and  C5_5 
REMARK    4  A    between atoms: C5_5  and  N1_6 
REMARK    5  A    between atoms: C12_13  and  C13_14 
REMARK    6  A    between atoms: C13_14  and  C14_15 
REMARK    7  A    between atoms: N2_20  and  C16_21 
REMARK    8  A    between atoms: C16_21  and  N3_25 
REMARK    9  A    between atoms: C21_29  and  C22_30 
REMARK   10  A    between atoms: C22_30  and  N4_31 
ROOT
HETATM    1  C1  UNL     1     -16.444  19.902  -9.505  1.00  0.00     0.025 C 
HETATM    2  C2  UNL     1     -16.653  19.034  -8.297  1.00  0.00     0.039 C 
HETATM    3  C11 UNL     1     -18.087  19.411  -7.820  1.00  0.00     0.033 C 
HETATM    4  C12 UNL     1     -18.080  20.003  -6.450  1.00  0.00     0.090 C 
HETATM    5  C15 UNL     1     -17.105  21.167  -6.471  1.00  0.00     0.237 C 
HETATM    6  O3  UNL     1     -17.437  22.318  -6.328  1.00  0.00    -0.272 OA
HETATM    7  N2  UNL     1     -15.741  20.739  -6.684  1.00  0.00    -0.234 N 
HETATM    8  C27 UNL     1     -15.722  19.383  -7.192  1.00  0.00     0.240 C 
HETATM    9  O4  UNL     1     -14.955  18.565  -6.699  1.00  0.00    -0.272 OA
ENDROOT
BRANCH   7  10
HETATM   10  C16 UNL     1     -14.660  21.506  -6.314  1.00  0.00     0.140 C 
HETATM   11  C17 UNL     1     -13.673  21.896  -7.078  1.00  0.00     0.102 C 
HETATM   12 BR1  UNL     1     -12.204  22.970  -6.371  1.00  0.00    -0.039 Br
HETATM   13 BR2  UNL     1     -13.580  21.597  -8.946  1.00  0.00    -0.039 Br
BRANCH  10  14
HETATM   14  N3  UNL     1     -14.518  21.952  -4.914  1.00  0.00    -0.365 N 
HETATM   15  C18 UNL     1     -14.402  20.963  -3.889  1.00  0.00     0.124 C 
HETATM   16  C19 UNL     1     -14.968  21.362  -2.566  1.00  0.00     0.020 C 
HETATM   17  C20 UNL     1     -15.229  22.813  -2.360  1.00  0.00     0.009 C 
HETATM   18  C21 UNL     1     -14.434  23.731  -3.209  1.00  0.00     0.030 C 
HETATM   19  C26 UNL     1     -14.529  23.363  -4.693  1.00  0.00     0.130 C 
BRANCH  18  20
HETATM   20  C22 UNL     1     -12.999  23.881  -2.870  1.00  0.00     0.242 C 
BRANCH  20  21
HETATM   21  N4  UNL     1     -12.379  25.146  -3.012  1.00  0.00    -0.078 N 
HETATM   22  C23 UNL     1     -12.977  26.089  -3.892  1.00  0.00     0.271 C 
HETATM   23  C24 UNL     1     -10.946  24.979  -3.395  1.00  0.00     0.271 C 
HETATM   24  C25 UNL     1     -12.286  25.770  -1.681  1.00  0.00     0.271 C 
ENDBRANCH  20  21
ENDBRANCH  18  20
ENDBRANCH  10  14
ENDBRANCH   7  10
BRANCH   4  25
HETATM   25  C13 UNL     1     -19.453  20.495  -6.084  1.00  0.00     0.127 C 
BRANCH  25  26
HETATM   26  C14 UNL     1     -19.787  20.105  -4.705  1.00  0.00     0.173 C 
HETATM   27  O1  UNL     1     -20.714  19.285  -4.506  1.00  0.00    -0.648 OA
HETATM   28  O2  UNL     1     -19.101  20.625  -3.628  1.00  0.00    -0.648 OA
ENDBRANCH  25  26
ENDBRANCH   4  25
BRANCH   2  29
HETATM   29  C3  UNL     1     -16.658  17.578  -8.503  1.00  0.00     0.020 C 
BRANCH  29  30
HETATM   30  C4  UNL     1     -17.600  16.889  -9.390  1.00  0.00     0.021 C 
BRANCH  30  31
HETATM   31  C5  UNL     1     -18.259  15.706  -8.803  1.00  0.00     0.122 C 
BRANCH  31  32
HETATM   32  N1  UNL     1     -19.534  15.992  -8.177  1.00  0.00    -0.393 N 
HETATM   33  C6  UNL     1     -19.513  16.312  -6.805  1.00  0.00     0.058 C 
HETATM   34  C7  UNL     1     -20.914  16.140  -6.235  1.00  0.00     0.044 C 
HETATM   35  C8  UNL     1     -21.980  16.734  -7.096  1.00  0.00     0.007 C 
HETATM   36  C9  UNL     1     -21.285  17.706  -8.057  1.00  0.00     0.020 C 
HETATM   37  C10 UNL     1     -20.405  16.806  -8.938  1.00  0.00     0.122 C 
ENDBRANCH  31  32
ENDBRANCH  30  31
ENDBRANCH  29  30
ENDBRANCH   2  29
TORSDOF 10
ENDMDL
MODEL 5
REMARK VINA RESULT: -8.341506497      2.632      4.217
REMARK  10 active torsions:
REMARK  status: ('A' for Active; 'I' for Inactive)
REMARK    1  A    between atoms: C2_2  and  C3_3 
REMARK    2  A    between atoms: C3_3  and  C4_4 
REMARK    3  A    between atoms: C4_4  and  C5_5 
REMARK    4  A    between atoms: C5_5  and  N1_6 
REMARK    5  A    between atoms: C12_13  and  C13_14 
REMARK    6  A    between atoms: C13_14  and  C14_15 
REMARK    7  A    between atoms: N2_20  and  C16_21 
REMARK    8  A    between atoms: C16_21  and  N3_25 
REMARK    9  A    between atoms: C21_29  and  C22_30 
REMARK   10  A    between atoms: C22_30  and  N4_31 
ROOT
HETATM    1  C1  UNL     1     -16.875  17.673  -6.913  1.00  0.00     0.025 C 
HETATM    2  C2  UNL     1     -16.631  18.811  -7.864  1.00  0.00     0.039 C 
HETATM    3  C11 UNL     1     -15.102  18.726  -8.150  1.00  0.00     0.033 C 
HETATM    4  C12 UNL     1     -14.382  19.952  -7.697  1.00  0.00     0.090 C 
HETATM    5  C15 UNL     1     -14.731  20.160  -6.233  1.00  0.00     0.237 C 
HETATM    6  O3  UNL     1     -13.928  20.071  -5.337  1.00  0.00    -0.272 OA
HETATM    7  N2  UNL     1     -16.128  20.472  -6.039  1.00  0.00    -0.234 N 
HETATM    8  C27 UNL     1     -16.881  20.131  -7.229  1.00  0.00     0.240 C 
HETATM    9  O4  UNL     1     -17.689  20.933  -7.681  1.00  0.00    -0.272 OA
ENDROOT
BRANCH   7  10
HETATM   10  C16 UNL     1     -16.592  21.119  -4.916  1.00  0.00     0.140 C 
HETATM   11  C17 UNL     1     -17.796  21.056  -4.412  1.00  0.00     0.102 C 
HETATM   12 BR1  UNL     1     -18.283  22.065  -2.814  1.00  0.00    -0.039 Br
HETATM   13 BR2  UNL     1     -19.171  19.923  -5.057  1.00  0.00    -0.039 Br
BRANCH  10  14
HETATM   14  N3  UNL     1     -15.697  22.017  -4.161  1.00  0.00    -0.365 N 
HETATM   15  C18 UNL     1     -15.264  21.616  -2.859  1.00  0.00     0.124 C 
HETATM   16  C19 UNL     1     -15.018  22.739  -1.906  1.00  0.00     0.020 C 
HETATM   17  C20 UNL     1     -14.881  24.098  -2.495  1.00  0.00     0.009 C 
HETATM   18  C21 UNL     1     -14.465  24.139  -3.917  1.00  0.00     0.030 C 
HETATM   19  C26 UNL     1     -15.347  23.247  -4.796  1.00  0.00     0.130 C 
BRANCH  18  20
HETATM   20  C22 UNL     1     -13.051  23.806  -4.210  1.00  0.00     0.242 C 
BRANCH  20  21
HETATM   21  N4  UNL     1     -12.047  24.781  -3.994  1.00  0.00    -0.078 N 
HETATM   22  C23 UNL     1     -12.395  26.148  -4.168  1.00  0.00     0.271 C 
HETATM   23  C24 UNL     1     -10.850  24.484  -4.835  1.00  0.00     0.271 C 
HETATM   24  C25 UNL     1     -11.528  24.620  -2.626  1.00  0.00     0.271 C 
ENDBRANCH  20  21
ENDBRANCH  18  20
ENDBRANCH  10  14
ENDBRANCH   7  10
BRANCH   4  25
HETATM   25  C13 UNL     1     -12.897  19.774  -7.845  1.00  0.00     0.127 C 
BRANCH  25  26
HETATM   26  C14 UNL     1     -12.278  21.015  -8.340  1.00  0.00     0.173 C 
HETATM   27  O1  UNL     1     -13.010  21.954  -8.729  1.00  0.00    -0.648 OA
HETATM   28  O2  UNL     1     -10.908  21.163  -8.384  1.00  0.00    -0.648 OA
ENDBRANCH  25  26
ENDBRANCH   4  25
BRANCH   2  29
HETATM   29  C3  UNL     1     -17.298  18.753  -9.172  1.00  0.00     0.020 C 
BRANCH  29  30
HETATM   30  C4  UNL     1     -18.240  17.697  -9.556  1.00  0.00     0.021 C 
BRANCH  30  31
HETATM   31  C5  UNL     1     -19.654  17.977  -9.238  1.00  0.00     0.122 C 
BRANCH  31  32
HETATM   32  N1  UNL     1     -20.175  17.195  -8.134  1.00  0.00    -0.393 N 
HETATM   33  C6  UNL     1     -21.502  17.455  -7.741  1.00  0.00     0.058 C 
HETATM   34  C7  UNL     1     -21.721  16.897  -6.340  1.00  0.00     0.044 C 
HETATM   35  C8  UNL     1     -21.173  15.520  -6.161  1.00  0.00     0.007 C 
HETATM   36  C9  UNL     1     -20.956  14.941  -7.564  1.00  0.00     0.020 C 
HETATM   37  C10 UNL     1     -19.851  15.819  -8.171  1.00  0.00     0.122 C 
ENDBRANCH  31  32
ENDBRANCH  30  31
ENDBRANCH  29  30
ENDBRANCH   2  29
TORSDOF 10
ENDMDL
