MODEL 1
REMARK VINA RESULT: -8.698176962      0.000      0.000
REMARK  11 active torsions:
REMARK  status: ('A' for Active; 'I' for Inactive)
REMARK    1  A    between atoms: C2_2  and  C4_4 
REMARK    2  A    between atoms: C4_4  and  C5_5 
REMARK    3  A    between atoms: C7_10  and  C8_12 
REMARK    4  A    between atoms: C8_12  and  C9_13 
REMARK    5  A    between atoms: C9_13  and  C10_14 
REMARK    6  A    between atoms: C10_14  and  C11_15 
REMARK    7  A    between atoms: C11_15  and  C14_18 
REMARK    8  A    between atoms: N2_22  and  C17_23 
REMARK    9  A    between atoms: C17_23  and  C18_24 
REMARK   10  A    between atoms: C17_23  and  C22_28 
REMARK   11  A    between atoms: C18_24  and  C19_25 
REMARK       I    between atoms: C22_28  and  N3_30 
ROOT
HETATM    1  C5  UNL     1     -19.504  17.903  -4.767  1.00  0.00     0.177 C 
HETATM    2  N1  UNL     1     -19.686  16.559  -5.278  1.00  0.00    -0.346 N 
ATOM      3  H1  UNL     1     -19.633  15.833  -4.563  1.00  0.00     0.163 HD
HETATM    4  C6  UNL     1     -19.922  16.069  -6.579  1.00  0.00     0.237 C 
HETATM    5  O1  UNL     1     -20.223  14.848  -6.601  1.00  0.00    -0.272 OA
HETATM    6  C7  UNL     1     -19.901  16.649  -7.913  1.00  0.00     0.100 C 
HETATM    7 BR1  UNL     1     -19.841  15.139  -9.171  1.00  0.00    -0.075 Br
HETATM    8  C15 UNL     1     -18.742  17.490  -8.282  1.00  0.00     0.051 C 
HETATM    9  C16 UNL     1     -18.758  18.919  -7.872  1.00  0.00     0.129 C 
HETATM   10  N2  UNL     1     -17.929  19.008  -6.644  1.00  0.00    -0.337 N 
HETATM   11  C27 UNL     1     -18.290  18.511  -5.378  1.00  0.00     0.243 C 
HETATM   12  O4  UNL     1     -17.385  18.591  -4.554  1.00  0.00    -0.271 OA
ENDROOT
BRANCH  10  13
HETATM   13  C17 UNL     1     -16.659  19.646  -6.832  1.00  0.00     0.179 C 
BRANCH  13  14
HETATM   14  C18 UNL     1     -16.011  19.416  -8.137  1.00  0.00     0.039 C 
BRANCH  14  15
HETATM   15  C19 UNL     1     -14.974  20.456  -8.503  1.00  0.00    -0.020 C 
HETATM   16  C20 UNL     1     -13.633  19.706  -8.532  1.00  0.00     0.009 C 
HETATM   17  C21 UNL     1     -15.199  20.964  -9.886  1.00  0.00     0.009 C 
ENDBRANCH  14  15
ENDBRANCH  13  14
BRANCH  13  18
HETATM   18  C22 UNL     1     -16.636  21.074  -6.437  1.00  0.00     0.242 C 
HETATM   19  O2  UNL     1     -17.388  21.970  -6.941  1.00  0.00    -0.271 OA
HETATM   20  N3  UNL     1     -15.758  21.579  -5.439  1.00  0.00    -0.346 N 
HETATM   21  C23 UNL     1     -14.828  20.774  -4.669  1.00  0.00     0.152 C 
HETATM   22  C26 UNL     1     -15.719  23.002  -5.096  1.00  0.00     0.152 C 
HETATM   23  C24 UNL     1     -14.881  21.355  -3.247  1.00  0.00     0.187 C 
HETATM   24  O3  UNL     1     -14.315  22.615  -3.207  1.00  0.00    -0.388 OA
HETATM   25  C25 UNL     1     -14.402  23.271  -4.436  1.00  0.00     0.187 C 
ENDBRANCH  13  18
ENDBRANCH  10  13
BRANCH   1  26
HETATM   26  C4  UNL     1     -19.412  17.951  -3.279  1.00  0.00     0.038 C 
BRANCH  26  27
HETATM   27  C2  UNL     1     -20.536  18.599  -2.559  1.00  0.00    -0.020 C 
HETATM   28  C1  UNL     1     -21.149  17.524  -1.650  1.00  0.00     0.009 C 
HETATM   29  C3  UNL     1     -21.655  18.967  -3.537  1.00  0.00     0.009 C 
ENDBRANCH  26  27
ENDBRANCH   1  26
BRANCH   6  30
HETATM   30  C8  UNL     1     -21.178  17.380  -8.270  1.00  0.00     0.031 C 
BRANCH  30  31
HETATM   31  C9  UNL     1     -22.157  17.399  -7.106  1.00  0.00     0.003 C 
BRANCH  31  32
HETATM   32  C10 UNL     1     -23.424  16.716  -7.621  1.00  0.00     0.010 C 
BRANCH  32  33
HETATM   33  C11 UNL     1     -24.165  16.026  -6.506  1.00  0.00    -0.039 C 
HETATM   34  C12 UNL     1     -23.548  16.216  -5.161  1.00  0.00     0.015 C 
HETATM   35  C13 UNL     1     -24.120  14.525  -6.819  1.00  0.00     0.015 C 
BRANCH  33  36
HETATM   36  C14 UNL     1     -25.617  16.410  -6.453  1.00  0.00     0.093 C 
HETATM   37 BR2  UNL     1     -25.842  18.226  -5.801  1.00  0.00    -0.096 Br
ENDBRANCH  33  36
ENDBRANCH  32  33
ENDBRANCH  31  32
ENDBRANCH  30  31
ENDBRANCH   6  30
TORSDOF 11
ENDMDL
MODEL 2
REMARK VINA RESULT: -8.645231902      3.850      6.653
REMARK  11 active torsions:
REMARK  status: ('A' for Active; 'I' for Inactive)
REMARK    1  A    between atoms: C2_2  and  C4_4 
REMARK    2  A    between atoms: C4_4  and  C5_5 
REMARK    3  A    between atoms: C7_10  and  C8_12 
REMARK    4  A    between atoms: C8_12  and  C9_13 
REMARK    5  A    between atoms: C9_13  and  C10_14 
REMARK    6  A    between atoms: C10_14  and  C11_15 
REMARK    7  A    between atoms: C11_15  and  C14_18 
REMARK    8  A    between atoms: N2_22  and  C17_23 
REMARK    9  A    between atoms: C17_23  and  C18_24 
REMARK   10  A    between atoms: C17_23  and  C22_28 
REMARK   11  A    between atoms: C18_24  and  C19_25 
REMARK       I    between atoms: C22_28  and  N3_30 
ROOT
HETATM    1  C5  UNL     1     -14.346  22.388  -5.213  1.00  0.00     0.177 C 
HETATM    2  N1  UNL     1     -14.645  20.979  -5.048  1.00  0.00    -0.346 N 
ATOM      3  H1  UNL     1     -14.548  20.644  -4.090  1.00  0.00     0.163 HD
HETATM    4  C6  UNL     1     -15.044  19.987  -5.967  1.00  0.00     0.237 C 
HETATM    5  O1  UNL     1     -15.402  18.916  -5.415  1.00  0.00    -0.272 OA
HETATM    6  C7  UNL     1     -15.141  19.911  -7.417  1.00  0.00     0.100 C 
HETATM    7 BR1  UNL     1     -15.289  18.002  -7.862  1.00  0.00    -0.075 Br
HETATM    8  C15 UNL     1     -13.991  20.393  -8.213  1.00  0.00     0.051 C 
HETATM    9  C16 UNL     1     -13.896  21.850  -8.489  1.00  0.00     0.129 C 
HETATM   10  N2  UNL     1     -12.935  22.399  -7.500  1.00  0.00    -0.337 N 
HETATM   11  C27 UNL     1     -13.179  22.549  -6.123  1.00  0.00     0.243 C 
HETATM   12  O4  UNL     1     -12.186  22.904  -5.494  1.00  0.00    -0.271 OA
ENDROOT
BRANCH  10  13
HETATM   13  C17 UNL     1     -11.664  22.770  -8.051  1.00  0.00     0.179 C 
BRANCH  13  14
HETATM   14  C18 UNL     1     -10.924  21.694  -8.738  1.00  0.00     0.039 C 
BRANCH  14  15
HETATM   15  C19 UNL     1      -9.426  21.905  -8.776  1.00  0.00    -0.020 C 
HETATM   16  C20 UNL     1      -8.929  21.576  -7.360  1.00  0.00     0.009 C 
HETATM   17  C21 UNL     1      -8.775  20.920  -9.686  1.00  0.00     0.009 C 
ENDBRANCH  14  15
ENDBRANCH  13  14
BRANCH  13  18
HETATM   18  C22 UNL     1     -11.690  24.025  -8.837  1.00  0.00     0.242 C 
HETATM   19  O2  UNL     1     -12.342  24.181  -9.921  1.00  0.00    -0.271 OA
HETATM   20  N3  UNL     1     -10.978  25.191  -8.443  1.00  0.00    -0.346 N 
HETATM   21  C23 UNL     1     -10.191  25.311  -7.230  1.00  0.00     0.152 C 
HETATM   22  C26 UNL     1     -10.979  26.407  -9.258  1.00  0.00     0.152 C 
HETATM   23  C24 UNL     1     -10.464  26.734  -6.717  1.00  0.00     0.187 C 
HETATM   24  O3  UNL     1      -9.899  27.676  -7.552  1.00  0.00    -0.388 OA
HETATM   25  C25 UNL     1      -9.782  27.216  -8.864  1.00  0.00     0.187 C 
ENDBRANCH  13  18
ENDBRANCH  10  13
BRANCH   1  26
HETATM   26  C4  UNL     1     -14.090  23.082  -3.917  1.00  0.00     0.038 C 
BRANCH  26  27
HETATM   27  C2  UNL     1     -15.154  23.991  -3.423  1.00  0.00    -0.020 C 
HETATM   28  C1  UNL     1     -14.661  25.421  -3.681  1.00  0.00     0.009 C 
HETATM   29  C3  UNL     1     -15.280  23.889  -1.901  1.00  0.00     0.009 C 
ENDBRANCH  26  27
ENDBRANCH   1  26
BRANCH   6  30
HETATM   30  C8  UNL     1     -16.414  20.520  -7.966  1.00  0.00     0.031 C 
BRANCH  30  31
HETATM   31  C9  UNL     1     -17.211  19.514  -8.781  1.00  0.00     0.003 C 
BRANCH  31  32
HETATM   32  C10 UNL     1     -18.460  19.209  -7.954  1.00  0.00     0.010 C 
BRANCH  32  33
HETATM   33  C11 UNL     1     -19.218  18.037  -8.521  1.00  0.00    -0.039 C 
HETATM   34  C12 UNL     1     -18.707  17.567  -9.842  1.00  0.00     0.015 C 
HETATM   35  C13 UNL     1     -20.660  18.515  -8.734  1.00  0.00     0.015 C 
BRANCH  33  36
HETATM   36  C14 UNL     1     -19.287  16.878  -7.567  1.00  0.00     0.093 C 
HETATM   37 BR2  UNL     1     -19.622  15.211  -8.505  1.00  0.00    -0.096 Br
ENDBRANCH  33  36
ENDBRANCH  32  33
ENDBRANCH  31  32
ENDBRANCH  30  31
ENDBRANCH   6  30
TORSDOF 11
ENDMDL
MODEL 3
REMARK VINA RESULT: -8.526702528      4.492      7.297
REMARK  11 active torsions:
REMARK  status: ('A' for Active; 'I' for Inactive)
REMARK    1  A    between atoms: C2_2  and  C4_4 
REMARK    2  A    between atoms: C4_4  and  C5_5 
REMARK    3  A    between atoms: C7_10  and  C8_12 
REMARK    4  A    between atoms: C8_12  and  C9_13 
REMARK    5  A    between atoms: C9_13  and  C10_14 
REMARK    6  A    between atoms: C10_14  and  C11_15 
REMARK    7  A    between atoms: C11_15  and  C14_18 
REMARK    8  A    between atoms: N2_22  and  C17_23 
REMARK    9  A    between atoms: C17_23  and  C18_24 
REMARK   10  A    between atoms: C17_23  and  C22_28 
REMARK   11  A    between atoms: C18_24  and  C19_25 
REMARK       I    between atoms: C22_28  and  N3_30 
ROOT
HETATM    1  C5  UNL     1     -13.489  22.750  -4.941  1.00  0.00     0.177 C 
HETATM    2  N1  UNL     1     -13.839  21.349  -4.824  1.00  0.00    -0.346 N 
ATOM      3  H1  UNL     1     -13.584  20.931  -3.929  1.00  0.00     0.163 HD
HETATM    4  C6  UNL     1     -14.466  20.456  -5.717  1.00  0.00     0.237 C 
HETATM    5  O1  UNL     1     -14.779  19.361  -5.185  1.00  0.00    -0.272 OA
HETATM    6  C7  UNL     1     -14.840  20.505  -7.123  1.00  0.00     0.100 C 
HETATM    7 BR1  UNL     1     -15.189  18.648  -7.667  1.00  0.00    -0.075 Br
HETATM    8  C15 UNL     1     -13.834  20.995  -8.089  1.00  0.00     0.051 C 
HETATM    9  C16 UNL     1     -13.702  22.464  -8.273  1.00  0.00     0.129 C 
HETATM   10  N2  UNL     1     -12.538  22.883  -7.452  1.00  0.00    -0.337 N 
HETATM   11  C27 UNL     1     -12.507  22.931  -6.046  1.00  0.00     0.243 C 
HETATM   12  O4  UNL     1     -11.394  23.185  -5.598  1.00  0.00    -0.271 OA
ENDROOT
BRANCH  10  13
HETATM   13  C17 UNL     1     -11.374  23.237  -8.211  1.00  0.00     0.179 C 
BRANCH  13  14
HETATM   14  C18 UNL     1     -10.763  22.148  -8.995  1.00  0.00     0.039 C 
BRANCH  14  15
HETATM   15  C19 UNL     1      -9.254  22.087  -8.894  1.00  0.00    -0.020 C 
HETATM   16  C20 UNL     1      -8.959  21.552  -7.484  1.00  0.00     0.009 C 
HETATM   17  C21 UNL     1      -8.700  21.082  -9.846  1.00  0.00     0.009 C 
ENDBRANCH  14  15
ENDBRANCH  13  14
BRANCH  13  18
HETATM   18  C22 UNL     1     -11.522  24.483  -8.998  1.00  0.00     0.242 C 
HETATM   19  O2  UNL     1     -12.380  24.647  -9.926  1.00  0.00    -0.271 OA
HETATM   20  N3  UNL     1     -10.708  25.628  -8.782  1.00  0.00    -0.346 N 
HETATM   21  C23 UNL     1      -9.683  25.736  -7.761  1.00  0.00     0.152 C 
HETATM   22  C26 UNL     1     -10.840  26.833  -9.603  1.00  0.00     0.152 C 
HETATM   23  C24 UNL     1      -9.799  27.173  -7.230  1.00  0.00     0.187 C 
HETATM   24  O3  UNL     1      -9.390  28.085  -8.183  1.00  0.00    -0.388 OA
HETATM   25  C25 UNL     1      -9.562  27.604  -9.482  1.00  0.00     0.187 C 
ENDBRANCH  13  18
ENDBRANCH  10  13
BRANCH   1  26
HETATM   26  C4  UNL     1     -12.950  23.322  -3.673  1.00  0.00     0.038 C 
BRANCH  26  27
HETATM   27  C2  UNL     1     -13.791  24.331  -2.983  1.00  0.00    -0.020 C 
HETATM   28  C1  UNL     1     -14.550  23.584  -1.878  1.00  0.00     0.009 C 
HETATM   29  C3  UNL     1     -14.882  24.851  -3.923  1.00  0.00     0.009 C 
ENDBRANCH  26  27
ENDBRANCH   1  26
BRANCH   6  30
HETATM   30  C8  UNL     1     -16.153  21.217  -7.370  1.00  0.00     0.031 C 
BRANCH  30  31
HETATM   31  C9  UNL     1     -17.330  20.256  -7.321  1.00  0.00     0.003 C 
BRANCH  31  32
HETATM   32  C10 UNL     1     -18.276  20.814  -6.258  1.00  0.00     0.010 C 
BRANCH  32  33
HETATM   33  C11 UNL     1     -18.540  19.801  -5.174  1.00  0.00    -0.039 C 
HETATM   34  C12 UNL     1     -18.216  18.399  -5.565  1.00  0.00     0.015 C 
HETATM   35  C13 UNL     1     -20.045  19.857  -4.885  1.00  0.00     0.015 C 
BRANCH  33  36
HETATM   36  C14 UNL     1     -17.843  20.139  -3.886  1.00  0.00     0.093 C 
HETATM   37 BR2  UNL     1     -17.484  22.044  -3.758  1.00  0.00    -0.096 Br
ENDBRANCH  33  36
ENDBRANCH  32  33
ENDBRANCH  31  32
ENDBRANCH  30  31
ENDBRANCH   6  30
TORSDOF 11
ENDMDL
MODEL 4
REMARK VINA RESULT: -8.452733701      4.285      7.348
REMARK  11 active torsions:
REMARK  status: ('A' for Active; 'I' for Inactive)
REMARK    1  A    between atoms: C2_2  and  C4_4 
REMARK    2  A    between atoms: C4_4  and  C5_5 
REMARK    3  A    between atoms: C7_10  and  C8_12 
REMARK    4  A    between atoms: C8_12  and  C9_13 
REMARK    5  A    between atoms: C9_13  and  C10_14 
REMARK    6  A    between atoms: C10_14  and  C11_15 
REMARK    7  A    between atoms: C11_15  and  C14_18 
REMARK    8  A    between atoms: N2_22  and  C17_23 
REMARK    9  A    between atoms: C17_23  and  C18_24 
REMARK   10  A    between atoms: C17_23  and  C22_28 
REMARK   11  A    between atoms: C18_24  and  C19_25 
REMARK       I    between atoms: C22_28  and  N3_30 
ROOT
HETATM    1  C5  UNL     1     -13.397  22.804  -5.075  1.00  0.00     0.177 C 
HETATM    2  N1  UNL     1     -13.694  21.398  -4.891  1.00  0.00    -0.346 N 
ATOM      3  H1  UNL     1     -13.443  21.038  -3.970  1.00  0.00     0.163 HD
HETATM    4  C6  UNL     1     -14.264  20.436  -5.749  1.00  0.00     0.237 C 
HETATM    5  O1  UNL     1     -14.546  19.358  -5.166  1.00  0.00    -0.272 OA
HETATM    6  C7  UNL     1     -14.606  20.396  -7.163  1.00  0.00     0.100 C 
HETATM    7 BR1  UNL     1     -14.869  18.500  -7.615  1.00  0.00    -0.075 Br
HETATM    8  C15 UNL     1     -13.598  20.875  -8.132  1.00  0.00     0.051 C 
HETATM    9  C16 UNL     1     -13.519  22.337  -8.391  1.00  0.00     0.129 C 
HETATM   10  N2  UNL     1     -12.393  22.845  -7.568  1.00  0.00    -0.337 N 
HETATM   11  C27 UNL     1     -12.397  22.967  -6.166  1.00  0.00     0.243 C 
HETATM   12  O4  UNL     1     -11.305  23.289  -5.708  1.00  0.00    -0.271 OA
ENDROOT
BRANCH  10  13
HETATM   13  C17 UNL     1     -11.226  23.206  -8.319  1.00  0.00     0.179 C 
BRANCH  13  14
HETATM   14  C18 UNL     1     -10.622  22.128  -9.126  1.00  0.00     0.039 C 
BRANCH  14  15
HETATM   15  C19 UNL     1      -9.127  21.983  -8.940  1.00  0.00    -0.020 C 
HETATM   16  C20 UNL     1      -8.936  21.542  -7.480  1.00  0.00     0.009 C 
HETATM   17  C21 UNL     1      -8.594  20.876  -9.783  1.00  0.00     0.009 C 
ENDBRANCH  14  15
ENDBRANCH  13  14
BRANCH  13  18
HETATM   18  C22 UNL     1     -11.365  24.469  -9.082  1.00  0.00     0.242 C 
HETATM   19  O2  UNL     1     -12.150  24.625 -10.073  1.00  0.00    -0.271 OA
HETATM   20  N3  UNL     1     -10.624  25.640  -8.767  1.00  0.00    -0.346 N 
HETATM   21  C23 UNL     1      -9.693  25.759  -7.661  1.00  0.00     0.152 C 
HETATM   22  C26 UNL     1     -10.742  26.864  -9.562  1.00  0.00     0.152 C 
HETATM   23  C24 UNL     1      -9.917  27.173  -7.102  1.00  0.00     0.187 C 
HETATM   24  O3  UNL     1      -9.472  28.131  -7.992  1.00  0.00    -0.388 OA
HETATM   25  C25 UNL     1      -9.515  27.684  -9.313  1.00  0.00     0.187 C 
ENDBRANCH  13  18
ENDBRANCH  10  13
BRANCH   1  26
HETATM   26  C4  UNL     1     -12.910  23.463  -3.828  1.00  0.00     0.038 C 
BRANCH  26  27
HETATM   27  C2  UNL     1     -13.628  24.687  -3.394  1.00  0.00    -0.020 C 
HETATM   28  C1  UNL     1     -12.738  25.364  -2.342  1.00  0.00     0.009 C 
HETATM   29  C3  UNL     1     -14.909  24.317  -2.642  1.00  0.00     0.009 C 
ENDBRANCH  26  27
ENDBRANCH   1  26
BRANCH   6  30
HETATM   30  C8  UNL     1     -15.940  21.040  -7.475  1.00  0.00     0.031 C 
BRANCH  30  31
HETATM   31  C9  UNL     1     -16.851  20.098  -8.246  1.00  0.00     0.003 C 
BRANCH  31  32
HETATM   32  C10 UNL     1     -18.033  19.814  -7.318  1.00  0.00     0.010 C 
BRANCH  32  33
HETATM   33  C11 UNL     1     -18.844  18.643  -7.808  1.00  0.00    -0.039 C 
HETATM   34  C12 UNL     1     -20.319  18.865  -7.755  1.00  0.00     0.015 C 
HETATM   35  C13 UNL     1     -18.526  17.472  -6.871  1.00  0.00     0.015 C 
BRANCH  33  36
HETATM   36  C14 UNL     1     -18.450  18.207  -9.191  1.00  0.00     0.093 C 
HETATM   37 BR2  UNL     1     -17.773  16.386  -9.189  1.00  0.00    -0.096 Br
ENDBRANCH  33  36
ENDBRANCH  32  33
ENDBRANCH  31  32
ENDBRANCH  30  31
ENDBRANCH   6  30
TORSDOF 11
ENDMDL
MODEL 5
REMARK VINA RESULT: -8.192742941      4.223      8.883
REMARK  11 active torsions:
REMARK  status: ('A' for Active; 'I' for Inactive)
REMARK    1  A    between atoms: C2_2  and  C4_4 
REMARK    2  A    between atoms: C4_4  and  C5_5 
REMARK    3  A    between atoms: C7_10  and  C8_12 
REMARK    4  A    between atoms: C8_12  and  C9_13 
REMARK    5  A    between atoms: C9_13  and  C10_14 
REMARK    6  A    between atoms: C10_14  and  C11_15 
REMARK    7  A    between atoms: C11_15  and  C14_18 
REMARK    8  A    between atoms: N2_22  and  C17_23 
REMARK    9  A    between atoms: C17_23  and  C18_24 
REMARK   10  A    between atoms: C17_23  and  C22_28 
REMARK   11  A    between atoms: C18_24  and  C19_25 
REMARK       I    between atoms: C22_28  and  N3_30 
ROOT
HETATM    1  C5  UNL     1     -15.941  18.857  -8.027  1.00  0.00     0.177 C 
HETATM    2  N1  UNL     1     -14.492  18.906  -8.022  1.00  0.00    -0.346 N 
ATOM      3  H1  UNL     1     -14.046  17.989  -8.039  1.00  0.00     0.163 HD
HETATM    4  C6  UNL     1     -13.587  19.987  -8.000  1.00  0.00     0.237 C 
HETATM    5  O1  UNL     1     -12.396  19.639  -8.204  1.00  0.00    -0.272 OA
HETATM    6  C7  UNL     1     -13.707  21.422  -7.794  1.00  0.00     0.100 C 
HETATM    7 BR1  UNL     1     -11.894  22.080  -7.414  1.00  0.00    -0.075 Br
HETATM    8  C15 UNL     1     -14.522  21.891  -6.653  1.00  0.00     0.051 C 
HETATM    9  C16 UNL     1     -15.994  21.990  -6.841  1.00  0.00     0.129 C 
HETATM   10  N2  UNL     1     -16.573  20.763  -6.240  1.00  0.00    -0.337 N 
HETATM   11  C27 UNL     1     -16.466  19.465  -6.774  1.00  0.00     0.243 C 
HETATM   12  O4  UNL     1     -16.917  18.600  -6.029  1.00  0.00    -0.271 OA
ENDROOT
BRANCH  10  13
HETATM   13  C17 UNL     1     -17.269  20.979  -5.005  1.00  0.00     0.179 C 
BRANCH  13  14
HETATM   14  C18 UNL     1     -17.109  22.317  -4.403  1.00  0.00     0.039 C 
BRANCH  14  15
HETATM   15  C19 UNL     1     -16.349  22.316  -3.095  1.00  0.00    -0.020 C 
HETATM   16  C20 UNL     1     -15.422  21.091  -3.159  1.00  0.00     0.009 C 
HETATM   17  C21 UNL     1     -15.458  23.507  -2.998  1.00  0.00     0.009 C 
ENDBRANCH  14  15
ENDBRANCH  13  14
BRANCH  13  18
HETATM   18  C22 UNL     1     -18.683  20.537  -5.024  1.00  0.00     0.242 C 
HETATM   19  O2  UNL     1     -19.523  20.857  -5.926  1.00  0.00    -0.271 OA
HETATM   20  N3  UNL     1     -19.236  19.698  -4.019  1.00  0.00    -0.346 N 
HETATM   21  C23 UNL     1     -18.496  19.145  -2.900  1.00  0.00     0.152 C 
HETATM   22  C26 UNL     1     -20.648  19.309  -4.031  1.00  0.00     0.152 C 
HETATM   23  C24 UNL     1     -19.034  17.715  -2.733  1.00  0.00     0.187 C 
HETATM   24  O3  UNL     1     -20.336  17.729  -2.272  1.00  0.00    -0.388 OA
HETATM   25  C25 UNL     1     -21.013  18.892  -2.640  1.00  0.00     0.187 C 
ENDBRANCH  13  18
ENDBRANCH  10  13
BRANCH   1  26
HETATM   26  C4  UNL     1     -16.474  17.473  -8.191  1.00  0.00     0.038 C 
BRANCH  26  27
HETATM   27  C2  UNL     1     -17.399  17.243  -9.329  1.00  0.00    -0.020 C 
HETATM   28  C1  UNL     1     -18.564  18.225  -9.149  1.00  0.00     0.009 C 
HETATM   29  C3  UNL     1     -18.038  15.856  -9.226  1.00  0.00     0.009 C 
ENDBRANCH  26  27
ENDBRANCH   1  26
BRANCH   6  30
HETATM   30  C8  UNL     1     -14.121  22.173  -9.041  1.00  0.00     0.031 C 
BRANCH  30  31
HETATM   31  C9  UNL     1     -12.924  22.787  -9.750  1.00  0.00     0.003 C 
BRANCH  31  32
HETATM   32  C10 UNL     1     -13.252  24.272  -9.907  1.00  0.00     0.010 C 
BRANCH  32  33
HETATM   33  C11 UNL     1     -12.030  25.065 -10.292  1.00  0.00    -0.039 C 
HETATM   34  C12 UNL     1     -12.334  26.320 -11.039  1.00  0.00     0.015 C 
HETATM   35  C13 UNL     1     -11.207  24.168 -11.224  1.00  0.00     0.015 C 
BRANCH  33  36
HETATM   36  C14 UNL     1     -11.152  25.380  -9.114  1.00  0.00     0.093 C 
HETATM   37 BR2  UNL     1     -10.210  27.060  -9.366  1.00  0.00    -0.096 Br
ENDBRANCH  33  36
ENDBRANCH  32  33
ENDBRANCH  31  32
ENDBRANCH  30  31
ENDBRANCH   6  30
TORSDOF 11
ENDMDL
