MODEL 1
REMARK VINA RESULT: -9.884219143      0.000      0.000
REMARK  12 active torsions:
REMARK  status: ('A' for Active; 'I' for Inactive)
REMARK    1  A    between atoms: C4_4  and  C5_5 
REMARK    2  A    between atoms: C5_5  and  C6_6 
REMARK       I    between atoms: C6_6  and  N1_8 
REMARK    3  A    between atoms: N1_8  and  C7_10 
REMARK    4  A    between atoms: C7_10  and  C8_11 
REMARK    5  A    between atoms: C7_10  and  C21_30 
REMARK    6  A    between atoms: C8_11  and  C9_12 
REMARK    7  A    between atoms: C9_12  and  C10_13 
REMARK       I    between atoms: C10_13  and  N2_15 
REMARK    8  A    between atoms: N3_18  and  C13_19 
REMARK    9  A    between atoms: C13_19  and  O3_20 
REMARK   10  A    between atoms: C13_19  and  C14_22 
REMARK   11  A    between atoms: C21_30  and  C22_31 
REMARK   12  A    between atoms: C22_31  and  N5_32 
ROOT
HETATM    1  C7  UNL     1     -15.007  22.118  -5.145  1.00  0.00     0.086 C 
ENDROOT
BRANCH   1   2
HETATM    2  N1  UNL     1     -14.787  22.273  -6.595  1.00  0.00    -0.356 N 
HETATM    3  C6  UNL     1     -15.195  21.298  -7.531  1.00  0.00     0.222 C 
HETATM    4  O1  UNL     1     -15.777  20.277  -7.077  1.00  0.00    -0.273 OA
ATOM      5  H1  UNL     1     -14.324  23.117  -6.934  1.00  0.00     0.162 HD
BRANCH   3   6
HETATM    6  C5  UNL     1     -14.936  21.487  -8.979  1.00  0.00     0.143 C 
BRANCH   6   7
HETATM    7  C4  UNL     1     -13.648  22.190  -9.126  1.00  0.00    -0.027 A 
HETATM    8  C3  UNL     1     -13.623  23.467  -9.644  1.00  0.00     0.017 A 
HETATM    9  C2  UNL     1     -12.435  24.157  -9.783  1.00  0.00    -0.043 A 
HETATM   10  C1  UNL     1     -12.360  25.529 -10.325  1.00  0.00     0.049 C 
HETATM   11  C30 UNL     1     -11.268  23.512  -9.381  1.00  0.00     0.024 A 
HETATM   12  C28 UNL     1     -11.247  22.245  -8.863  1.00  0.00    -0.022 A 
HETATM   13 BR1  UNL     1      -9.627  24.456  -9.569  1.00  0.00    -0.050 Br
HETATM   14  C27 UNL     1     -12.478  21.587  -8.740  1.00  0.00     0.048 A 
HETATM   15  C29 UNL     1      -9.998  21.555  -8.442  1.00  0.00     0.051 C 
HETATM   16 CL1  UNL     1     -12.547  19.967  -8.090  1.00  0.00    -0.083 Cl
ENDBRANCH   6   7
ENDBRANCH   3   6
ENDBRANCH   1   2
BRANCH   1  17
HETATM   17  C8  UNL     1     -16.036  23.163  -4.712  1.00  0.00     0.034 C 
BRANCH  17  18
HETATM   18  C9  UNL     1     -17.236  22.450  -4.144  1.00  0.00     0.105 C 
BRANCH  18  19
HETATM   19  C10 UNL     1     -18.144  21.977  -5.208  1.00  0.00     0.219 C 
HETATM   20  O2  UNL     1     -18.298  22.704  -6.220  1.00  0.00    -0.273 OA
HETATM   21  N2  UNL     1     -18.811  20.743  -5.082  1.00  0.00    -0.349 N 
HETATM   22  C11 UNL     1     -19.708  20.255  -6.151  1.00  0.00     0.145 C 
HETATM   23  C20 UNL     1     -18.615  19.955  -3.884  1.00  0.00     0.145 C 
HETATM   24  C12 UNL     1     -19.771  18.740  -5.890  1.00  0.00     0.144 C 
HETATM   25  N3  UNL     1     -18.466  18.247  -5.575  1.00  0.00    -0.361 N 
HETATM   26  C19 UNL     1     -18.030  18.601  -4.177  1.00  0.00     0.144 C 
BRANCH  25  27
HETATM   27  C13 UNL     1     -17.596  17.530  -6.376  1.00  0.00     0.147 C 
BRANCH  27  28
HETATM   28  O3  UNL     1     -16.332  17.441  -6.006  1.00  0.00    -0.348 OA
ATOM     29  H3  UNL     1     -16.142  17.228  -5.100  1.00  0.00     0.219 HD
ENDBRANCH  27  28
BRANCH  27  30
HETATM   30  C14 UNL     1     -17.855  16.821  -7.618  1.00  0.00     0.296 C 
HETATM   31  C15 UNL     1     -17.158  17.567  -8.775  1.00  0.00     0.046 C 
HETATM   32  C16 UNL     1     -18.168  17.535  -9.901  1.00  0.00     0.033 C 
HETATM   33  C17 UNL     1     -19.486  17.523  -9.140  1.00  0.00     0.273 C 
HETATM   34  N4  UNL     1     -19.199  16.648  -8.014  1.00  0.00     0.096 N 
HETATM   35  C18 UNL     1     -19.479  15.264  -8.395  1.00  0.00     0.310 C 
ENDBRANCH  27  30
ENDBRANCH  25  27
ENDBRANCH  18  19
ENDBRANCH  17  18
ENDBRANCH   1  17
BRANCH   1  36
HETATM   36  C21 UNL     1     -13.711  22.282  -4.412  1.00  0.00     0.055 C 
BRANCH  36  37
HETATM   37  C22 UNL     1     -13.521  23.716  -3.918  1.00  0.00     0.274 C 
BRANCH  37  38
HETATM   38  N5  UNL     1     -12.095  24.052  -3.922  1.00  0.00     0.088 N 
HETATM   39  C23 UNL     1     -11.921  25.496  -3.997  1.00  0.00     0.272 C 
HETATM   40  C24 UNL     1     -10.642  25.676  -4.804  1.00  0.00     0.032 C 
HETATM   41  C25 UNL     1     -10.821  24.617  -5.870  1.00  0.00     0.032 C 
HETATM   42  C26 UNL     1     -11.517  23.510  -5.114  1.00  0.00     0.272 C 
ENDBRANCH  37  38
ENDBRANCH  36  37
ENDBRANCH   1  36
TORSDOF 12
ENDMDL
MODEL 2
REMARK VINA RESULT: -9.771662554      2.808      5.871
REMARK  12 active torsions:
REMARK  status: ('A' for Active; 'I' for Inactive)
REMARK    1  A    between atoms: C4_4  and  C5_5 
REMARK    2  A    between atoms: C5_5  and  C6_6 
REMARK       I    between atoms: C6_6  and  N1_8 
REMARK    3  A    between atoms: N1_8  and  C7_10 
REMARK    4  A    between atoms: C7_10  and  C8_11 
REMARK    5  A    between atoms: C7_10  and  C21_30 
REMARK    6  A    between atoms: C8_11  and  C9_12 
REMARK    7  A    between atoms: C9_12  and  C10_13 
REMARK       I    between atoms: C10_13  and  N2_15 
REMARK    8  A    between atoms: N3_18  and  C13_19 
REMARK    9  A    between atoms: C13_19  and  O3_20 
REMARK   10  A    between atoms: C13_19  and  C14_22 
REMARK   11  A    between atoms: C21_30  and  C22_31 
REMARK   12  A    between atoms: C22_31  and  N5_32 
ROOT
HETATM    1  C7  UNL     1     -16.869  19.841  -8.586  1.00  0.00     0.086 C 
ENDROOT
BRANCH   1   2
HETATM    2  N1  UNL     1     -16.801  19.694  -7.120  1.00  0.00    -0.356 N 
HETATM    3  C6  UNL     1     -17.195  20.723  -6.238  1.00  0.00     0.222 C 
HETATM    4  O1  UNL     1     -17.630  21.787  -6.756  1.00  0.00    -0.273 OA
ATOM      5  H1  UNL     1     -16.457  18.817  -6.730  1.00  0.00     0.162 HD
BRANCH   3   6
HETATM    6  C5  UNL     1     -17.092  20.539  -4.770  1.00  0.00     0.143 C 
BRANCH   6   7
HETATM    7  C4  UNL     1     -16.156  21.551  -4.246  1.00  0.00    -0.027 A 
HETATM    8  C3  UNL     1     -14.908  21.685  -4.816  1.00  0.00     0.017 A 
HETATM    9  C2  UNL     1     -14.012  22.631  -4.356  1.00  0.00    -0.043 A 
HETATM   10  C1  UNL     1     -12.668  22.816  -4.940  1.00  0.00     0.049 C 
HETATM   11  C30 UNL     1     -14.420  23.440  -3.300  1.00  0.00     0.024 A 
HETATM   12  C28 UNL     1     -15.650  23.341  -2.704  1.00  0.00    -0.022 A 
HETATM   13 BR1  UNL     1     -13.194  24.746  -2.662  1.00  0.00    -0.050 Br
HETATM   14  C27 UNL     1     -16.523  22.366  -3.206  1.00  0.00     0.048 A 
HETATM   15  C29 UNL     1     -16.080  24.201  -1.569  1.00  0.00     0.051 C 
HETATM   16 CL1  UNL     1     -18.112  22.168  -2.508  1.00  0.00    -0.083 Cl
ENDBRANCH   6   7
ENDBRANCH   3   6
ENDBRANCH   1   2
BRANCH   1  17
HETATM   17  C8  UNL     1     -16.844  18.439  -9.198  1.00  0.00     0.034 C 
BRANCH  17  18
HETATM   18  C9  UNL     1     -18.259  18.029  -9.516  1.00  0.00     0.105 C 
BRANCH  18  19
HETATM   19  C10 UNL     1     -18.533  16.641  -9.094  1.00  0.00     0.219 C 
HETATM   20  O2  UNL     1     -17.599  15.805  -9.167  1.00  0.00    -0.273 OA
HETATM   21  N2  UNL     1     -19.808  16.276  -8.620  1.00  0.00    -0.349 N 
HETATM   22  C11 UNL     1     -20.085  14.892  -8.179  1.00  0.00     0.145 C 
HETATM   23  C20 UNL     1     -20.856  17.272  -8.577  1.00  0.00     0.145 C 
HETATM   24  C12 UNL     1     -21.319  15.052  -7.277  1.00  0.00     0.144 C 
HETATM   25  N3  UNL     1     -21.165  16.202  -6.442  1.00  0.00    -0.361 N 
HETATM   26  C19 UNL     1     -21.379  17.496  -7.185  1.00  0.00     0.144 C 
BRANCH  25  27
HETATM   27  C13 UNL     1     -20.842  16.259  -5.097  1.00  0.00     0.147 C 
BRANCH  27  28
HETATM   28  O3  UNL     1     -20.377  15.167  -4.518  1.00  0.00    -0.348 OA
ATOM     29  H3  UNL     1     -20.449  15.093  -3.574  1.00  0.00     0.219 HD
ENDBRANCH  27  28
BRANCH  27  30
HETATM   30  C14 UNL     1     -20.931  17.376  -4.173  1.00  0.00     0.296 C 
HETATM   31  C15 UNL     1     -19.512  17.929  -3.919  1.00  0.00     0.046 C 
HETATM   32  C16 UNL     1     -19.482  18.207  -2.431  1.00  0.00     0.033 C 
HETATM   33  C17 UNL     1     -20.442  17.155  -1.896  1.00  0.00     0.273 C 
HETATM   34  N4  UNL     1     -21.494  17.140  -2.900  1.00  0.00     0.096 N 
HETATM   35  C18 UNL     1     -22.502  18.143  -2.558  1.00  0.00     0.310 C 
ENDBRANCH  27  30
ENDBRANCH  25  27
ENDBRANCH  18  19
ENDBRANCH  17  18
ENDBRANCH   1  17
BRANCH   1  36
HETATM   36  C21 UNL     1     -15.722  20.674  -9.070  1.00  0.00     0.055 C 
BRANCH  36  37
HETATM   37  C22 UNL     1     -14.383  20.128  -8.578  1.00  0.00     0.274 C 
BRANCH  37  38
HETATM   38  N5  UNL     1     -13.594  21.216  -7.992  1.00  0.00     0.088 N 
HETATM   39  C23 UNL     1     -13.875  22.466  -8.682  1.00  0.00     0.272 C 
HETATM   40  C24 UNL     1     -12.554  23.221  -8.640  1.00  0.00     0.032 C 
HETATM   41  C25 UNL     1     -11.573  22.103  -8.921  1.00  0.00     0.032 C 
HETATM   42  C26 UNL     1     -12.211  20.929  -8.217  1.00  0.00     0.272 C 
ENDBRANCH  37  38
ENDBRANCH  36  37
ENDBRANCH   1  36
TORSDOF 12
ENDMDL
MODEL 3
REMARK VINA RESULT: -9.738890473      0.936      1.640
REMARK  12 active torsions:
REMARK  status: ('A' for Active; 'I' for Inactive)
REMARK    1  A    between atoms: C4_4  and  C5_5 
REMARK    2  A    between atoms: C5_5  and  C6_6 
REMARK       I    between atoms: C6_6  and  N1_8 
REMARK    3  A    between atoms: N1_8  and  C7_10 
REMARK    4  A    between atoms: C7_10  and  C8_11 
REMARK    5  A    between atoms: C7_10  and  C21_30 
REMARK    6  A    between atoms: C8_11  and  C9_12 
REMARK    7  A    between atoms: C9_12  and  C10_13 
REMARK       I    between atoms: C10_13  and  N2_15 
REMARK    8  A    between atoms: N3_18  and  C13_19 
REMARK    9  A    between atoms: C13_19  and  O3_20 
REMARK   10  A    between atoms: C13_19  and  C14_22 
REMARK   11  A    between atoms: C21_30  and  C22_31 
REMARK   12  A    between atoms: C22_31  and  N5_32 
ROOT
HETATM    1  C7  UNL     1     -15.005  21.879  -4.911  1.00  0.00     0.086 C 
ENDROOT
BRANCH   1   2
HETATM    2  N1  UNL     1     -14.515  21.625  -6.278  1.00  0.00    -0.356 N 
HETATM    3  C6  UNL     1     -14.223  20.325  -6.748  1.00  0.00     0.222 C 
HETATM    4  O1  UNL     1     -14.415  19.371  -5.947  1.00  0.00    -0.273 OA
ATOM      5  H1  UNL     1     -14.381  22.416  -6.908  1.00  0.00     0.162 HD
BRANCH   3   6
HETATM    6  C5  UNL     1     -13.713  20.117  -8.125  1.00  0.00     0.143 C 
BRANCH   6   7
HETATM    7  C4  UNL     1     -12.742  21.188  -8.420  1.00  0.00    -0.027 A 
HETATM    8  C3  UNL     1     -11.447  21.077  -7.963  1.00  0.00     0.017 A 
HETATM    9  C2  UNL     1     -10.510  22.057  -8.232  1.00  0.00    -0.043 A 
HETATM   10  C1  UNL     1      -9.109  21.978  -7.771  1.00  0.00     0.049 C 
HETATM   11  C30 UNL     1     -10.927  23.154  -8.980  1.00  0.00     0.024 A 
HETATM   12  C28 UNL     1     -12.204  23.305  -9.452  1.00  0.00    -0.022 A 
HETATM   13 BR1  UNL     1      -9.644  24.507  -9.355  1.00  0.00    -0.050 Br
HETATM   14  C27 UNL     1     -13.117  22.284  -9.153  1.00  0.00     0.048 A 
HETATM   15  C29 UNL     1     -12.650  24.484 -10.243  1.00  0.00     0.051 C 
HETATM   16 CL1  UNL     1     -14.768  22.391  -9.714  1.00  0.00    -0.083 Cl
ENDBRANCH   6   7
ENDBRANCH   3   6
ENDBRANCH   1   2
BRANCH   1  17
HETATM   17  C8  UNL     1     -15.975  23.060  -4.975  1.00  0.00     0.034 C 
BRANCH  17  18
HETATM   18  C9  UNL     1     -17.275  22.649  -4.332  1.00  0.00     0.105 C 
BRANCH  18  19
HETATM   19  C10 UNL     1     -18.191  22.021  -5.304  1.00  0.00     0.219 C 
HETATM   20  O2  UNL     1     -18.411  22.623  -6.384  1.00  0.00    -0.273 OA
HETATM   21  N2  UNL     1     -18.793  20.779  -5.021  1.00  0.00    -0.349 N 
HETATM   22  C11 UNL     1     -19.697  20.136  -5.998  1.00  0.00     0.145 C 
HETATM   23  C20 UNL     1     -18.524  20.138  -3.752  1.00  0.00     0.145 C 
HETATM   24  C12 UNL     1     -19.679  18.659  -5.572  1.00  0.00     0.144 C 
HETATM   25  N3  UNL     1     -18.343  18.262  -5.251  1.00  0.00    -0.361 N 
HETATM   26  C19 UNL     1     -17.883  18.788  -3.915  1.00  0.00     0.144 C 
BRANCH  25  27
HETATM   27  C13 UNL     1     -17.463  17.501  -5.999  1.00  0.00     0.147 C 
BRANCH  27  28
HETATM   28  O3  UNL     1     -16.326  17.127  -5.441  1.00  0.00    -0.348 OA
ATOM     29  H3  UNL     1     -16.362  16.561  -4.680  1.00  0.00     0.219 HD
ENDBRANCH  27  28
BRANCH  27  30
HETATM   30  C14 UNL     1     -17.589  17.018  -7.363  1.00  0.00     0.296 C 
HETATM   31  C15 UNL     1     -16.807  17.960  -8.302  1.00  0.00     0.046 C 
HETATM   32  C16 UNL     1     -17.709  18.117  -9.508  1.00  0.00     0.033 C 
HETATM   33  C17 UNL     1     -19.090  17.963  -8.889  1.00  0.00     0.273 C 
HETATM   34  N4  UNL     1     -18.887  16.906  -7.909  1.00  0.00     0.096 N 
HETATM   35  C18 UNL     1     -19.097  15.608  -8.549  1.00  0.00     0.310 C 
ENDBRANCH  27  30
ENDBRANCH  25  27
ENDBRANCH  18  19
ENDBRANCH  17  18
ENDBRANCH   1  17
BRANCH   1  36
HETATM   36  C21 UNL     1     -13.851  22.162  -3.999  1.00  0.00     0.055 C 
BRANCH  36  37
HETATM   37  C22 UNL     1     -13.634  23.663  -3.814  1.00  0.00     0.274 C 
BRANCH  37  38
HETATM   38  N5  UNL     1     -12.198  23.945  -3.740  1.00  0.00     0.088 N 
HETATM   39  C23 UNL     1     -11.974  25.381  -3.648  1.00  0.00     0.272 C 
HETATM   40  C24 UNL     1     -10.665  25.604  -4.394  1.00  0.00     0.032 C 
HETATM   41  C25 UNL     1     -10.845  24.677  -5.577  1.00  0.00     0.032 C 
HETATM   42  C26 UNL     1     -11.601  23.519  -4.969  1.00  0.00     0.272 C 
ENDBRANCH  37  38
ENDBRANCH  36  37
ENDBRANCH   1  36
TORSDOF 12
ENDMDL
MODEL 4
REMARK VINA RESULT: -9.580475996      2.460      5.336
REMARK  12 active torsions:
REMARK  status: ('A' for Active; 'I' for Inactive)
REMARK    1  A    between atoms: C4_4  and  C5_5 
REMARK    2  A    between atoms: C5_5  and  C6_6 
REMARK       I    between atoms: C6_6  and  N1_8 
REMARK    3  A    between atoms: N1_8  and  C7_10 
REMARK    4  A    between atoms: C7_10  and  C8_11 
REMARK    5  A    between atoms: C7_10  and  C21_30 
REMARK    6  A    between atoms: C8_11  and  C9_12 
REMARK    7  A    between atoms: C9_12  and  C10_13 
REMARK       I    between atoms: C10_13  and  N2_15 
REMARK    8  A    between atoms: N3_18  and  C13_19 
REMARK    9  A    between atoms: C13_19  and  O3_20 
REMARK   10  A    between atoms: C13_19  and  C14_22 
REMARK   11  A    between atoms: C21_30  and  C22_31 
REMARK   12  A    between atoms: C22_31  and  N5_32 
ROOT
HETATM    1  C7  UNL     1     -16.324  20.744  -7.524  1.00  0.00     0.086 C 
ENDROOT
BRANCH   1   2
HETATM    2  N1  UNL     1     -15.679  20.691  -6.199  1.00  0.00    -0.356 N 
HETATM    3  C6  UNL     1     -15.709  21.778  -5.299  1.00  0.00     0.222 C 
HETATM    4  O1  UNL     1     -16.331  22.810  -5.668  1.00  0.00    -0.273 OA
ATOM      5  H1  UNL     1     -15.194  19.837  -5.922  1.00  0.00     0.162 HD
BRANCH   3   6
HETATM    6  C5  UNL     1     -15.030  21.687  -3.983  1.00  0.00     0.143 C 
BRANCH   6   7
HETATM    7  C4  UNL     1     -13.920  22.658  -3.972  1.00  0.00    -0.027 A 
HETATM    8  C3  UNL     1     -12.924  22.564  -4.919  1.00  0.00     0.017 A 
HETATM    9  C2  UNL     1     -11.876  23.464  -4.944  1.00  0.00    -0.043 A 
HETATM   10  C1  UNL     1     -10.790  23.408  -5.943  1.00  0.00     0.049 C 
HETATM   11  C30 UNL     1     -11.870  24.466  -3.976  1.00  0.00     0.024 A 
HETATM   12  C28 UNL     1     -12.838  24.595  -3.017  1.00  0.00    -0.022 A 
HETATM   13 BR1  UNL     1     -10.432  25.710  -4.003  1.00  0.00    -0.050 Br
HETATM   14  C27 UNL     1     -13.880  23.657  -3.035  1.00  0.00     0.048 A 
HETATM   15  C29 UNL     1     -12.824  25.661  -1.979  1.00  0.00     0.051 C 
HETATM   16 CL1  UNL     1     -15.160  23.745  -1.848  1.00  0.00    -0.083 Cl
ENDBRANCH   6   7
ENDBRANCH   3   6
ENDBRANCH   1   2
BRANCH   1  17
HETATM   17  C8  UNL     1     -17.490  19.755  -7.518  1.00  0.00     0.034 C 
BRANCH  17  18
HETATM   18  C9  UNL     1     -17.487  18.999  -8.822  1.00  0.00     0.105 C 
BRANCH  18  19
HETATM   19  C10 UNL     1     -17.625  17.545  -8.611  1.00  0.00     0.219 C 
HETATM   20  O2  UNL     1     -16.577  16.856  -8.540  1.00  0.00    -0.273 OA
HETATM   21  N2  UNL     1     -18.899  16.957  -8.490  1.00  0.00    -0.349 N 
HETATM   22  C11 UNL     1     -19.043  15.504  -8.261  1.00  0.00     0.145 C 
HETATM   23  C20 UNL     1     -20.074  17.793  -8.602  1.00  0.00     0.145 C 
HETATM   24  C12 UNL     1     -20.456  15.382  -7.666  1.00  0.00     0.144 C 
HETATM   25  N3  UNL     1     -20.674  16.425  -6.713  1.00  0.00    -0.361 N 
HETATM   26  C19 UNL     1     -20.920  17.764  -7.359  1.00  0.00     0.144 C 
BRANCH  25  27
HETATM   27  C13 UNL     1     -20.668  16.349  -5.331  1.00  0.00     0.147 C 
BRANCH  27  28
HETATM   28  O3  UNL     1     -20.482  15.169  -4.769  1.00  0.00    -0.348 OA
ATOM     29  H3  UNL     1     -19.871  15.106  -4.045  1.00  0.00     0.219 HD
ENDBRANCH  27  28
BRANCH  27  30
HETATM   30  C14 UNL     1     -20.837  17.405  -4.348  1.00  0.00     0.296 C 
HETATM   31  C15 UNL     1     -19.448  17.952  -3.957  1.00  0.00     0.046 C 
HETATM   32  C16 UNL     1     -19.530  18.136  -2.456  1.00  0.00     0.033 C 
HETATM   33  C17 UNL     1     -20.514  17.046  -2.060  1.00  0.00     0.273 C 
HETATM   34  N4  UNL     1     -21.490  17.086  -3.138  1.00  0.00     0.096 N 
HETATM   35  C18 UNL     1     -22.532  18.058  -2.810  1.00  0.00     0.310 C 
ENDBRANCH  27  30
ENDBRANCH  25  27
ENDBRANCH  18  19
ENDBRANCH  17  18
ENDBRANCH   1  17
BRANCH   1  36
HETATM   36  C21 UNL     1     -15.326  20.413  -8.591  1.00  0.00     0.055 C 
BRANCH  36  37
HETATM   37  C22 UNL     1     -14.985  21.636  -9.441  1.00  0.00     0.274 C 
BRANCH  37  38
HETATM   38  N5  UNL     1     -13.961  22.436  -8.763  1.00  0.00     0.088 N 
HETATM   39  C23 UNL     1     -13.530  23.530  -9.622  1.00  0.00     0.272 C 
HETATM   40  C24 UNL     1     -12.057  23.715  -9.279  1.00  0.00     0.032 C 
HETATM   41  C25 UNL     1     -11.604  22.276  -9.161  1.00  0.00     0.032 C 
HETATM   42  C26 UNL     1     -12.815  21.604  -8.558  1.00  0.00     0.272 C 
ENDBRANCH  37  38
ENDBRANCH  36  37
ENDBRANCH   1  36
TORSDOF 12
ENDMDL
MODEL 5
REMARK VINA RESULT: -9.523815582      2.553      5.455
REMARK  12 active torsions:
REMARK  status: ('A' for Active; 'I' for Inactive)
REMARK    1  A    between atoms: C4_4  and  C5_5 
REMARK    2  A    between atoms: C5_5  and  C6_6 
REMARK       I    between atoms: C6_6  and  N1_8 
REMARK    3  A    between atoms: N1_8  and  C7_10 
REMARK    4  A    between atoms: C7_10  and  C8_11 
REMARK    5  A    between atoms: C7_10  and  C21_30 
REMARK    6  A    between atoms: C8_11  and  C9_12 
REMARK    7  A    between atoms: C9_12  and  C10_13 
REMARK       I    between atoms: C10_13  and  N2_15 
REMARK    8  A    between atoms: N3_18  and  C13_19 
REMARK    9  A    between atoms: C13_19  and  O3_20 
REMARK   10  A    between atoms: C13_19  and  C14_22 
REMARK   11  A    between atoms: C21_30  and  C22_31 
REMARK   12  A    between atoms: C22_31  and  N5_32 
ROOT
HETATM    1  C7  UNL     1     -16.180  20.414  -8.776  1.00  0.00     0.086 C 
ENDROOT
BRANCH   1   2
HETATM    2  N1  UNL     1     -15.805  20.171  -7.370  1.00  0.00    -0.356 N 
HETATM    3  C6  UNL     1     -16.187  21.039  -6.324  1.00  0.00     0.222 C 
HETATM    4  O1  UNL     1     -16.885  22.041  -6.637  1.00  0.00    -0.273 OA
ATOM      5  H1  UNL     1     -15.251  19.345  -7.145  1.00  0.00     0.162 HD
BRANCH   3   6
HETATM    6  C5  UNL     1     -15.771  20.765  -4.927  1.00  0.00     0.143 C 
BRANCH   6   7
HETATM    7  C4  UNL     1     -14.924  21.884  -4.474  1.00  0.00    -0.027 A 
HETATM    8  C3  UNL     1     -13.677  22.063  -5.031  1.00  0.00     0.017 A 
HETATM    9  C2  UNL     1     -12.863  23.108  -4.637  1.00  0.00    -0.043 A 
HETATM   10  C1  UNL     1     -11.523  23.344  -5.211  1.00  0.00     0.049 C 
HETATM   11  C30 UNL     1     -13.354  23.968  -3.658  1.00  0.00     0.024 A 
HETATM   12  C28 UNL     1     -14.586  23.826  -3.077  1.00  0.00    -0.022 A 
HETATM   13 BR1  UNL     1     -12.241  25.410  -3.110  1.00  0.00    -0.050 Br
HETATM   14  C27 UNL     1     -15.374  22.751  -3.511  1.00  0.00     0.048 A 
HETATM   15  C29 UNL     1     -15.104  24.742  -2.025  1.00  0.00     0.051 C 
HETATM   16 CL1  UNL     1     -16.960  22.492  -2.826  1.00  0.00    -0.083 Cl
ENDBRANCH   6   7
ENDBRANCH   3   6
ENDBRANCH   1   2
BRANCH   1  17
HETATM   17  C8  UNL     1     -16.661  19.089  -9.368  1.00  0.00     0.034 C 
BRANCH  17  18
HETATM   18  C9  UNL     1     -18.010  18.761  -8.780  1.00  0.00     0.105 C 
BRANCH  18  19
HETATM   19  C10 UNL     1     -18.127  17.327  -8.447  1.00  0.00     0.219 C 
HETATM   20  O2  UNL     1     -17.070  16.679  -8.245  1.00  0.00    -0.273 OA
HETATM   21  N2  UNL     1     -19.392  16.715  -8.358  1.00  0.00    -0.349 N 
HETATM   22  C11 UNL     1     -19.517  15.284  -8.007  1.00  0.00     0.145 C 
HETATM   23  C20 UNL     1     -20.577  17.503  -8.622  1.00  0.00     0.145 C 
HETATM   24  C12 UNL     1     -20.964  15.174  -7.499  1.00  0.00     0.144 C 
HETATM   25  N3  UNL     1     -21.271  16.291  -6.660  1.00  0.00    -0.361 N 
HETATM   26  C19 UNL     1     -21.504  17.559  -7.440  1.00  0.00     0.144 C 
BRANCH  25  27
HETATM   27  C13 UNL     1     -21.358  16.339  -5.280  1.00  0.00     0.147 C 
BRANCH  27  28
HETATM   28  O3  UNL     1     -22.427  15.825  -4.701  1.00  0.00    -0.348 OA
ATOM     29  H3  UNL     1     -22.316  15.366  -3.877  1.00  0.00     0.219 HD
ENDBRANCH  27  28
BRANCH  27  30
HETATM   30  C14 UNL     1     -20.420  16.886  -4.315  1.00  0.00     0.296 C 
HETATM   31  C15 UNL     1     -21.121  16.998  -2.944  1.00  0.00     0.046 C 
HETATM   32  C16 UNL     1     -20.665  18.336  -2.402  1.00  0.00     0.033 C 
HETATM   33  C17 UNL     1     -20.452  19.136  -3.678  1.00  0.00     0.273 C 
HETATM   34  N4  UNL     1     -19.863  18.156  -4.578  1.00  0.00     0.096 N 
HETATM   35  C18 UNL     1     -18.410  18.158  -4.409  1.00  0.00     0.310 C 
ENDBRANCH  27  30
ENDBRANCH  25  27
ENDBRANCH  18  19
ENDBRANCH  17  18
ENDBRANCH   1  17
BRANCH   1  36
HETATM   36  C21 UNL     1     -15.006  20.961  -9.529  1.00  0.00     0.055 C 
BRANCH  36  37
HETATM   37  C22 UNL     1     -13.687  20.635  -8.830  1.00  0.00     0.274 C 
BRANCH  37  38
HETATM   38  N5  UNL     1     -13.036  21.878  -8.406  1.00  0.00     0.088 N 
HETATM   39  C23 UNL     1     -13.382  22.960  -9.316  1.00  0.00     0.272 C 
HETATM   40  C24 UNL     1     -12.137  23.837  -9.344  1.00  0.00     0.032 C 
HETATM   41  C25 UNL     1     -11.046  22.789  -9.379  1.00  0.00     0.032 C 
HETATM   42  C26 UNL     1     -11.621  21.694  -8.512  1.00  0.00     0.272 C 
ENDBRANCH  37  38
ENDBRANCH  36  37
ENDBRANCH   1  36
TORSDOF 12
ENDMDL
