MODEL 1
REMARK VINA RESULT: -8.506869495      0.000      0.000
REMARK  13 active torsions:
REMARK  status: ('A' for Active; 'I' for Inactive)
REMARK    1  A    between atoms: C2_2  and  N1_3 
REMARK    2  A    between atoms: N1_3  and  C3_4 
REMARK    3  A    between atoms: N1_3  and  C5_6 
REMARK    4  A    between atoms: C5_6  and  O1_7 
REMARK    5  A    between atoms: C5_6  and  N2_9 
REMARK       I    between atoms: N3_12  and  C8_13 
REMARK    6  A    between atoms: C8_13  and  C9_15 
REMARK    7  A    between atoms: C9_15  and  C10_16 
REMARK    8  A    between atoms: C10_16  and  C11_17 
REMARK    9  A    between atoms: C11_17  and  C12_18 
REMARK   10  A    between atoms: C12_18  and  C13_19 
REMARK   11  A    between atoms: C13_19  and  C14_20 
REMARK   12  A    between atoms: C14_20  and  N4_21 
REMARK       I    between atoms: N4_21  and  C15_23 
REMARK       I    between atoms: C15_23  and  N5_25 
REMARK   13  A    between atoms: C18_28  and  C19_29 
ROOT
HETATM    1  N2  UNL     1     -14.254  22.243  -5.007  1.00  0.00    -0.339 N 
HETATM    2  C6  UNL     1     -15.294  22.733  -5.842  1.00  0.00     0.147 C 
HETATM    3  C7  UNL     1     -16.307  21.712  -6.299  1.00  0.00     0.147 C 
HETATM    4  N3  UNL     1     -15.918  20.351  -6.137  1.00  0.00    -0.331 N 
HETATM    5  C8  UNL     1     -16.892  19.328  -6.282  1.00  0.00     0.221 C 
HETATM    6  O2  UNL     1     -16.525  18.151  -6.137  1.00  0.00    -0.273 OA
HETATM    7  C22 UNL     1     -14.539  20.008  -5.821  1.00  0.00     0.217 C 
HETATM    8  C23 UNL     1     -13.689  20.450  -6.942  1.00  0.00     0.087 C 
HETATM    9  N6  UNL     1     -13.022  20.782  -7.832  1.00  0.00    -0.195 NA
HETATM   10  C24 UNL     1     -14.190  20.829  -4.605  1.00  0.00     0.120 C 
HETATM   11  C25 UNL     1     -15.151  20.505  -3.500  1.00  0.00     0.035 C 
ENDROOT
BRANCH   5  12
HETATM   12  C9  UNL     1     -18.293  19.695  -6.596  1.00  0.00     0.103 C 
BRANCH  12  13
HETATM   13  C10 UNL     1     -19.273  19.419  -5.497  1.00  0.00     0.009 C 
BRANCH  13  14
HETATM   14  C11 UNL     1     -18.848  19.877  -4.134  1.00  0.00     0.001 C 
BRANCH  14  15
HETATM   15  C12 UNL     1     -18.707  18.702  -3.213  1.00  0.00     0.002 C 
BRANCH  15  16
HETATM   16  C13 UNL     1     -19.623  18.771  -2.002  1.00  0.00     0.020 C 
BRANCH  16  17
HETATM   17  C14 UNL     1     -20.622  17.677  -1.972  1.00  0.00     0.124 C 
BRANCH  17  18
HETATM   18  N4  UNL     1     -20.559  16.883  -3.165  1.00  0.00    -0.343 N 
HETATM   19  C15 UNL     1     -21.561  16.894  -4.133  1.00  0.00     0.318 C 
HETATM   20  O3  UNL     1     -22.572  17.646  -3.958  1.00  0.00    -0.247 OA
HETATM   21  N5  UNL     1     -21.558  16.129  -5.319  1.00  0.00    -0.334 N 
HETATM   22  C16 UNL     1     -22.664  16.226  -6.248  1.00  0.00     0.128 C 
HETATM   23  C21 UNL     1     -20.495  15.227  -5.689  1.00  0.00     0.128 C 
HETATM   24  C17 UNL     1     -22.213  16.617  -7.620  1.00  0.00     0.026 C 
HETATM   25  C18 UNL     1     -20.974  15.915  -8.070  1.00  0.00     0.013 C 
HETATM   26  C20 UNL     1     -19.942  15.710  -7.013  1.00  0.00     0.026 C 
ATOM     27  H4  UNL     1     -19.747  16.284  -3.310  1.00  0.00     0.164 HD
BRANCH  25  28
HETATM   28  C19 UNL     1     -20.329  16.791  -9.154  1.00  0.00     0.133 C 
HETATM   29 BR1  UNL     1     -20.856  18.629  -8.760  1.00  0.00    -0.079 Br
HETATM   30 BR2  UNL     1     -18.412  16.686  -8.888  1.00  0.00    -0.079 Br
ENDBRANCH  25  28
ENDBRANCH  17  18
ENDBRANCH  16  17
ENDBRANCH  15  16
ENDBRANCH  14  15
ENDBRANCH  13  14
ENDBRANCH  12  13
ENDBRANCH   5  12
BRANCH   1  31
HETATM   31  C5  UNL     1     -13.232  23.071  -4.510  1.00  0.00     0.217 C 
BRANCH  31  32
HETATM   32  N1  UNL     1     -13.179  24.084  -3.589  1.00  0.00    -0.348 N 
BRANCH  32  33
HETATM   33  C2  UNL     1     -11.816  24.554  -3.183  1.00  0.00     0.122 C 
HETATM   34  C1  UNL     1     -11.947  25.604  -2.093  1.00  0.00     0.026 C 
ENDBRANCH  32  33
BRANCH  32  35
HETATM   35  C3  UNL     1     -14.256  24.797  -2.974  1.00  0.00     0.122 C 
HETATM   36  C4  UNL     1     -15.126  23.926  -2.076  1.00  0.00     0.026 C 
ENDBRANCH  32  35
ENDBRANCH  31  32
BRANCH  31  37
HETATM   37  O1  UNL     1     -12.065  22.798  -5.067  1.00  0.00    -0.332 OA
ATOM     38  H1  UNL     1     -12.036  21.953  -5.499  1.00  0.00     0.220 HD
ENDBRANCH  31  37
ENDBRANCH   1  31
TORSDOF 13
ENDMDL
MODEL 2
REMARK VINA RESULT: -8.483998945      3.907      9.579
REMARK  13 active torsions:
REMARK  status: ('A' for Active; 'I' for Inactive)
REMARK    1  A    between atoms: C2_2  and  N1_3 
REMARK    2  A    between atoms: N1_3  and  C3_4 
REMARK    3  A    between atoms: N1_3  and  C5_6 
REMARK    4  A    between atoms: C5_6  and  O1_7 
REMARK    5  A    between atoms: C5_6  and  N2_9 
REMARK       I    between atoms: N3_12  and  C8_13 
REMARK    6  A    between atoms: C8_13  and  C9_15 
REMARK    7  A    between atoms: C9_15  and  C10_16 
REMARK    8  A    between atoms: C10_16  and  C11_17 
REMARK    9  A    between atoms: C11_17  and  C12_18 
REMARK   10  A    between atoms: C12_18  and  C13_19 
REMARK   11  A    between atoms: C13_19  and  C14_20 
REMARK   12  A    between atoms: C14_20  and  N4_21 
REMARK       I    between atoms: N4_21  and  C15_23 
REMARK       I    between atoms: C15_23  and  N5_25 
REMARK   13  A    between atoms: C18_28  and  C19_29 
ROOT
HETATM    1  N2  UNL     1     -16.480  21.567  -6.552  1.00  0.00    -0.339 N 
HETATM    2  C6  UNL     1     -15.558  22.647  -6.579  1.00  0.00     0.147 C 
HETATM    3  C7  UNL     1     -14.212  22.348  -7.193  1.00  0.00     0.147 C 
HETATM    4  N3  UNL     1     -13.905  20.965  -7.349  1.00  0.00    -0.331 N 
HETATM    5  C8  UNL     1     -12.797  20.586  -8.152  1.00  0.00     0.221 C 
HETATM    6  O2  UNL     1     -12.553  19.375  -8.270  1.00  0.00    -0.273 OA
HETATM    7  C22 UNL     1     -14.719  19.949  -6.699  1.00  0.00     0.217 C 
HETATM    8  C23 UNL     1     -14.606  20.136  -5.240  1.00  0.00     0.087 C 
HETATM    9  N6  UNL     1     -14.503  20.273  -4.092  1.00  0.00    -0.195 NA
HETATM   10  C24 UNL     1     -16.139  20.248  -7.109  1.00  0.00     0.120 C 
HETATM   11  C25 UNL     1     -16.235  20.218  -8.606  1.00  0.00     0.035 C 
ENDROOT
BRANCH   5  12
HETATM   12  C9  UNL     1     -11.984  21.633  -8.814  1.00  0.00     0.103 C 
BRANCH  12  13
HETATM   13  C10 UNL     1     -10.507  21.510  -8.592  1.00  0.00     0.009 C 
BRANCH  13  14
HETATM   14  C11 UNL     1      -9.653  22.316  -9.526  1.00  0.00     0.001 C 
BRANCH  14  15
HETATM   15  C12 UNL     1     -10.438  23.465 -10.084  1.00  0.00     0.002 C 
BRANCH  15  16
HETATM   16  C13 UNL     1      -9.879  24.824  -9.695  1.00  0.00     0.020 C 
BRANCH  16  17
HETATM   17  C14 UNL     1     -10.785  25.586  -8.804  1.00  0.00     0.124 C 
BRANCH  17  18
HETATM   18  N4  UNL     1     -11.021  24.883  -7.576  1.00  0.00    -0.343 N 
HETATM   19  C15 UNL     1     -10.666  25.398  -6.331  1.00  0.00     0.318 C 
HETATM   20  O3  UNL     1     -10.118  26.544  -6.276  1.00  0.00    -0.247 OA
HETATM   21  N5  UNL     1     -10.865  24.748  -5.094  1.00  0.00    -0.334 N 
HETATM   22  C16 UNL     1     -10.448  25.388  -3.863  1.00  0.00     0.128 C 
HETATM   23  C21 UNL     1     -11.476  23.449  -4.958  1.00  0.00     0.128 C 
HETATM   24  C17 UNL     1     -11.579  25.533  -2.894  1.00  0.00     0.026 C 
HETATM   25  C18 UNL     1     -12.450  24.323  -2.800  1.00  0.00     0.013 C 
HETATM   26  C20 UNL     1     -12.705  23.623  -4.091  1.00  0.00     0.026 C 
ATOM     27  H4  UNL     1     -11.466  23.967  -7.617  1.00  0.00     0.164 HD
BRANCH  25  28
HETATM   28  C19 UNL     1     -13.815  24.792  -2.274  1.00  0.00     0.133 C 
HETATM   29 BR1  UNL     1     -14.911  25.164  -3.845  1.00  0.00    -0.079 Br
HETATM   30 BR2  UNL     1     -14.616  23.275  -1.373  1.00  0.00    -0.079 Br
ENDBRANCH  25  28
ENDBRANCH  17  18
ENDBRANCH  16  17
ENDBRANCH  15  16
ENDBRANCH  14  15
ENDBRANCH  13  14
ENDBRANCH  12  13
ENDBRANCH   5  12
BRANCH   1  31
HETATM   31  C5  UNL     1     -17.769  21.689  -6.003  1.00  0.00     0.217 C 
BRANCH  31  32
HETATM   32  N1  UNL     1     -18.522  20.931  -5.145  1.00  0.00    -0.348 N 
BRANCH  32  33
HETATM   33  C2  UNL     1     -18.828  21.534  -3.808  1.00  0.00     0.122 C 
HETATM   34  C1  UNL     1     -17.552  22.093  -3.204  1.00  0.00     0.026 C 
ENDBRANCH  32  33
BRANCH  32  35
HETATM   35  C3  UNL     1     -19.101  19.641  -5.356  1.00  0.00     0.122 C 
HETATM   36  C4  UNL     1     -20.282  19.348  -4.439  1.00  0.00     0.026 C 
ENDBRANCH  32  35
ENDBRANCH  31  32
BRANCH  31  37
HETATM   37  O1  UNL     1     -18.378  22.786  -6.417  1.00  0.00    -0.332 OA
ATOM     38  H1  UNL     1     -18.308  23.514  -5.811  1.00  0.00     0.220 HD
ENDBRANCH  31  37
ENDBRANCH   1  31
TORSDOF 13
ENDMDL
MODEL 3
REMARK VINA RESULT: -8.450342547      0.315      1.001
REMARK  13 active torsions:
REMARK  status: ('A' for Active; 'I' for Inactive)
REMARK    1  A    between atoms: C2_2  and  N1_3 
REMARK    2  A    between atoms: N1_3  and  C3_4 
REMARK    3  A    between atoms: N1_3  and  C5_6 
REMARK    4  A    between atoms: C5_6  and  O1_7 
REMARK    5  A    between atoms: C5_6  and  N2_9 
REMARK       I    between atoms: N3_12  and  C8_13 
REMARK    6  A    between atoms: C8_13  and  C9_15 
REMARK    7  A    between atoms: C9_15  and  C10_16 
REMARK    8  A    between atoms: C10_16  and  C11_17 
REMARK    9  A    between atoms: C11_17  and  C12_18 
REMARK   10  A    between atoms: C12_18  and  C13_19 
REMARK   11  A    between atoms: C13_19  and  C14_20 
REMARK   12  A    between atoms: C14_20  and  N4_21 
REMARK       I    between atoms: N4_21  and  C15_23 
REMARK       I    between atoms: C15_23  and  N5_25 
REMARK   13  A    between atoms: C18_28  and  C19_29 
ROOT
HETATM    1  N2  UNL     1     -14.274  22.251  -4.964  1.00  0.00    -0.339 N 
HETATM    2  C6  UNL     1     -15.306  22.752  -5.801  1.00  0.00     0.147 C 
HETATM    3  C7  UNL     1     -16.331  21.743  -6.259  1.00  0.00     0.147 C 
HETATM    4  N3  UNL     1     -15.959  20.377  -6.094  1.00  0.00    -0.331 N 
HETATM    5  C8  UNL     1     -16.945  19.366  -6.240  1.00  0.00     0.221 C 
HETATM    6  O2  UNL     1     -16.593  18.185  -6.092  1.00  0.00    -0.273 OA
HETATM    7  C22 UNL     1     -14.585  20.018  -5.775  1.00  0.00     0.217 C 
HETATM    8  C23 UNL     1     -13.727  20.447  -6.894  1.00  0.00     0.087 C 
HETATM    9  N6  UNL     1     -13.054  20.769  -7.784  1.00  0.00    -0.195 NA
HETATM   10  C24 UNL     1     -14.228  20.836  -4.559  1.00  0.00     0.120 C 
HETATM   11  C25 UNL     1     -15.196  20.526  -3.456  1.00  0.00     0.035 C 
ENDROOT
BRANCH   5  12
HETATM   12  C9  UNL     1     -18.341  19.750  -6.557  1.00  0.00     0.103 C 
BRANCH  12  13
HETATM   13  C10 UNL     1     -19.328  19.480  -5.463  1.00  0.00     0.009 C 
BRANCH  13  14
HETATM   14  C11 UNL     1     -18.903  19.929  -4.096  1.00  0.00     0.001 C 
BRANCH  14  15
HETATM   15  C12 UNL     1     -18.713  18.743  -3.198  1.00  0.00     0.002 C 
BRANCH  15  16
HETATM   16  C13 UNL     1     -19.592  18.777  -1.959  1.00  0.00     0.020 C 
BRANCH  16  17
HETATM   17  C14 UNL     1     -20.624  17.713  -1.954  1.00  0.00     0.124 C 
BRANCH  17  18
HETATM   18  N4  UNL     1     -20.554  16.917  -3.145  1.00  0.00    -0.343 N 
HETATM   19  C15 UNL     1     -21.559  16.912  -4.111  1.00  0.00     0.318 C 
HETATM   20  O3  UNL     1     -22.579  17.651  -3.935  1.00  0.00    -0.247 OA
HETATM   21  N5  UNL     1     -21.548  16.144  -5.294  1.00  0.00    -0.334 N 
HETATM   22  C16 UNL     1     -22.659  16.223  -6.221  1.00  0.00     0.128 C 
HETATM   23  C21 UNL     1     -20.475  15.255  -5.665  1.00  0.00     0.128 C 
HETATM   24  C17 UNL     1     -22.217  16.617  -7.595  1.00  0.00     0.026 C 
HETATM   25  C18 UNL     1     -20.970  15.929  -8.046  1.00  0.00     0.013 C 
HETATM   26  C20 UNL     1     -19.932  15.741  -6.992  1.00  0.00     0.026 C 
ATOM     27  H4  UNL     1     -19.734  16.329  -3.291  1.00  0.00     0.164 HD
BRANCH  25  28
HETATM   28  C19 UNL     1     -20.340  16.812  -9.135  1.00  0.00     0.133 C 
HETATM   29 BR1  UNL     1     -20.890  18.643  -8.744  1.00  0.00    -0.079 Br
HETATM   30 BR2  UNL     1     -18.420  16.733  -8.874  1.00  0.00    -0.079 Br
ENDBRANCH  25  28
ENDBRANCH  17  18
ENDBRANCH  16  17
ENDBRANCH  15  16
ENDBRANCH  14  15
ENDBRANCH  13  14
ENDBRANCH  12  13
ENDBRANCH   5  12
BRANCH   1  31
HETATM   31  C5  UNL     1     -13.242  23.067  -4.466  1.00  0.00     0.217 C 
BRANCH  31  32
HETATM   32  N1  UNL     1     -13.171  24.052  -3.516  1.00  0.00    -0.348 N 
BRANCH  32  33
HETATM   33  C2  UNL     1     -13.781  23.744  -2.183  1.00  0.00     0.122 C 
HETATM   34  C1  UNL     1     -15.234  24.187  -2.178  1.00  0.00     0.026 C 
ENDBRANCH  32  33
BRANCH  32  35
HETATM   35  C3  UNL     1     -12.557  25.340  -3.600  1.00  0.00     0.122 C 
HETATM   36  C4  UNL     1     -11.876  25.773  -2.308  1.00  0.00     0.026 C 
ENDBRANCH  32  35
ENDBRANCH  31  32
BRANCH  31  37
HETATM   37  O1  UNL     1     -12.088  22.815  -5.058  1.00  0.00    -0.332 OA
ATOM     38  H1  UNL     1     -11.584  23.594  -5.260  1.00  0.00     0.220 HD
ENDBRANCH  31  37
ENDBRANCH   1  31
TORSDOF 13
ENDMDL
MODEL 4
REMARK VINA RESULT: -8.393606464      3.978     10.150
REMARK  13 active torsions:
REMARK  status: ('A' for Active; 'I' for Inactive)
REMARK    1  A    between atoms: C2_2  and  N1_3 
REMARK    2  A    between atoms: N1_3  and  C3_4 
REMARK    3  A    between atoms: N1_3  and  C5_6 
REMARK    4  A    between atoms: C5_6  and  O1_7 
REMARK    5  A    between atoms: C5_6  and  N2_9 
REMARK       I    between atoms: N3_12  and  C8_13 
REMARK    6  A    between atoms: C8_13  and  C9_15 
REMARK    7  A    between atoms: C9_15  and  C10_16 
REMARK    8  A    between atoms: C10_16  and  C11_17 
REMARK    9  A    between atoms: C11_17  and  C12_18 
REMARK   10  A    between atoms: C12_18  and  C13_19 
REMARK   11  A    between atoms: C13_19  and  C14_20 
REMARK   12  A    between atoms: C14_20  and  N4_21 
REMARK       I    between atoms: N4_21  and  C15_23 
REMARK       I    between atoms: C15_23  and  N5_25 
REMARK   13  A    between atoms: C18_28  and  C19_29 
ROOT
HETATM    1  N2  UNL     1     -15.504  19.794  -8.341  1.00  0.00    -0.339 N 
HETATM    2  C6  UNL     1     -15.780  20.661  -9.432  1.00  0.00     0.147 C 
HETATM    3  C7  UNL     1     -14.778  21.764  -9.666  1.00  0.00     0.147 C 
HETATM    4  N3  UNL     1     -13.886  22.019  -8.585  1.00  0.00    -0.331 N 
HETATM    5  C8  UNL     1     -12.748  22.840  -8.802  1.00  0.00     0.221 C 
HETATM    6  O2  UNL     1     -11.988  23.046  -7.841  1.00  0.00    -0.273 OA
HETATM    7  C22 UNL     1     -14.132  21.441  -7.272  1.00  0.00     0.217 C 
HETATM    8  C23 UNL     1     -15.406  21.982  -6.764  1.00  0.00     0.087 C 
HETATM    9  N6  UNL     1     -16.401  22.421  -6.358  1.00  0.00    -0.195 NA
HETATM   10  C24 UNL     1     -14.301  19.962  -7.508  1.00  0.00     0.120 C 
HETATM   11  C25 UNL     1     -13.068  19.425  -8.173  1.00  0.00     0.035 C 
ENDROOT
BRANCH   5  12
HETATM   12  C9  UNL     1     -12.508  23.414 -10.146  1.00  0.00     0.103 C 
BRANCH  12  13
HETATM   13  C10 UNL     1     -11.064  23.528 -10.530  1.00  0.00     0.009 C 
BRANCH  13  14
HETATM   14  C11 UNL     1     -10.743  24.637 -11.487  1.00  0.00     0.001 C 
BRANCH  14  15
HETATM   15  C12 UNL     1     -10.605  25.934 -10.748  1.00  0.00     0.002 C 
BRANCH  15  16
HETATM   16  C13 UNL     1      -9.813  25.811  -9.456  1.00  0.00     0.020 C 
BRANCH  16  17
HETATM   17  C14 UNL     1     -10.460  26.502  -8.316  1.00  0.00     0.124 C 
BRANCH  17  18
HETATM   18  N4  UNL     1     -10.700  25.598  -7.228  1.00  0.00    -0.343 N 
HETATM   19  C15 UNL     1     -10.662  25.995  -5.893  1.00  0.00     0.318 C 
HETATM   20  O3  UNL     1     -10.412  27.213  -5.624  1.00  0.00    -0.247 OA
HETATM   21  N5  UNL     1     -10.881  25.150  -4.785  1.00  0.00    -0.334 N 
HETATM   22  C16 UNL     1     -10.811  25.684  -3.440  1.00  0.00     0.128 C 
HETATM   23  C21 UNL     1     -11.184  23.744  -4.894  1.00  0.00     0.128 C 
HETATM   24  C17 UNL     1     -12.073  25.444  -2.674  1.00  0.00     0.026 C 
HETATM   25  C18 UNL     1     -12.640  24.075  -2.859  1.00  0.00     0.013 C 
HETATM   26  C20 UNL     1     -12.531  23.526  -4.242  1.00  0.00     0.026 C 
ATOM     27  H4  UNL     1     -10.907  24.623  -7.441  1.00  0.00     0.164 HD
BRANCH  25  28
HETATM   28  C19 UNL     1     -14.138  24.161  -2.533  1.00  0.00     0.133 C 
HETATM   29 BR1  UNL     1     -14.934  25.302  -3.902  1.00  0.00    -0.079 Br
HETATM   30 BR2  UNL     1     -14.867  22.383  -2.789  1.00  0.00    -0.079 Br
ENDBRANCH  25  28
ENDBRANCH  17  18
ENDBRANCH  16  17
ENDBRANCH  15  16
ENDBRANCH  14  15
ENDBRANCH  13  14
ENDBRANCH  12  13
ENDBRANCH   5  12
BRANCH   1  31
HETATM   31  C5  UNL     1     -16.349  18.726  -7.992  1.00  0.00     0.217 C 
BRANCH  31  32
HETATM   32  N1  UNL     1     -17.687  18.611  -7.719  1.00  0.00    -0.348 N 
BRANCH  32  33
HETATM   33  C2  UNL     1     -18.123  18.971  -6.332  1.00  0.00     0.122 C 
HETATM   34  C1  UNL     1     -19.246  19.992  -6.405  1.00  0.00     0.026 C 
ENDBRANCH  32  33
BRANCH  32  35
HETATM   35  C3  UNL     1     -18.753  18.224  -8.591  1.00  0.00     0.122 C 
HETATM   36  C4  UNL     1     -18.274  17.584  -9.888  1.00  0.00     0.026 C 
ENDBRANCH  32  35
ENDBRANCH  31  32
BRANCH  31  37
HETATM   37  O1  UNL     1     -15.690  17.584  -7.914  1.00  0.00    -0.332 OA
ATOM     38  H1  UNL     1     -14.908  17.629  -7.377  1.00  0.00     0.220 HD
ENDBRANCH  31  37
ENDBRANCH   1  31
TORSDOF 13
ENDMDL
MODEL 5
REMARK VINA RESULT: -8.378666539      3.571      9.533
REMARK  13 active torsions:
REMARK  status: ('A' for Active; 'I' for Inactive)
REMARK    1  A    between atoms: C2_2  and  N1_3 
REMARK    2  A    between atoms: N1_3  and  C3_4 
REMARK    3  A    between atoms: N1_3  and  C5_6 
REMARK    4  A    between atoms: C5_6  and  O1_7 
REMARK    5  A    between atoms: C5_6  and  N2_9 
REMARK       I    between atoms: N3_12  and  C8_13 
REMARK    6  A    between atoms: C8_13  and  C9_15 
REMARK    7  A    between atoms: C9_15  and  C10_16 
REMARK    8  A    between atoms: C10_16  and  C11_17 
REMARK    9  A    between atoms: C11_17  and  C12_18 
REMARK   10  A    between atoms: C12_18  and  C13_19 
REMARK   11  A    between atoms: C13_19  and  C14_20 
REMARK   12  A    between atoms: C14_20  and  N4_21 
REMARK       I    between atoms: N4_21  and  C15_23 
REMARK       I    between atoms: C15_23  and  N5_25 
REMARK   13  A    between atoms: C18_28  and  C19_29 
ROOT
HETATM    1  N2  UNL     1     -17.325  18.690  -6.888  1.00  0.00    -0.339 N 
HETATM    2  C6  UNL     1     -16.444  18.436  -5.803  1.00  0.00     0.147 C 
HETATM    3  C7  UNL     1     -16.113  19.623  -4.932  1.00  0.00     0.147 C 
HETATM    4  N3  UNL     1     -16.428  20.896  -5.488  1.00  0.00    -0.331 N 
HETATM    5  C8  UNL     1     -16.406  22.044  -4.653  1.00  0.00     0.221 C 
HETATM    6  O2  UNL     1     -16.684  23.140  -5.164  1.00  0.00    -0.273 OA
HETATM    7  C22 UNL     1     -16.775  21.022  -6.896  1.00  0.00     0.217 C 
HETATM    8  C23 UNL     1     -15.606  20.608  -7.695  1.00  0.00     0.087 C 
HETATM    9  N6  UNL     1     -14.680  20.299  -8.323  1.00  0.00    -0.195 NA
HETATM   10  C24 UNL     1     -17.886  20.030  -7.127  1.00  0.00     0.120 C 
HETATM   11  C25 UNL     1     -19.026  20.344  -6.203  1.00  0.00     0.035 C 
ENDROOT
BRANCH   5  12
HETATM   12  C9  UNL     1     -16.059  21.897  -3.220  1.00  0.00     0.103 C 
BRANCH  12  13
HETATM   13  C10 UNL     1     -14.701  22.411  -2.849  1.00  0.00     0.009 C 
BRANCH  13  14
HETATM   14  C11 UNL     1     -14.687  23.460  -1.778  1.00  0.00     0.001 C 
BRANCH  14  15
HETATM   15  C12 UNL     1     -14.984  24.806  -2.368  1.00  0.00     0.002 C 
BRANCH  15  16
HETATM   16  C13 UNL     1     -14.169  25.112  -3.613  1.00  0.00     0.020 C 
BRANCH  16  17
HETATM   17  C14 UNL     1     -12.754  25.434  -3.312  1.00  0.00     0.124 C 
BRANCH  17  18
HETATM   18  N4  UNL     1     -11.979  25.543  -4.514  1.00  0.00    -0.343 N 
HETATM   19  C15 UNL     1     -11.450  24.435  -5.175  1.00  0.00     0.318 C 
HETATM   20  O3  UNL     1     -11.671  23.276  -4.699  1.00  0.00    -0.247 OA
HETATM   21  N5  UNL     1     -10.674  24.482  -6.352  1.00  0.00    -0.334 N 
HETATM   22  C16 UNL     1     -10.178  23.257  -6.944  1.00  0.00     0.128 C 
HETATM   23  C21 UNL     1     -10.328  25.703  -7.037  1.00  0.00     0.128 C 
HETATM   24  C17 UNL     1     -10.615  23.103  -8.366  1.00  0.00     0.026 C 
HETATM   25  C18 UNL     1     -10.519  24.361  -9.166  1.00  0.00     0.013 C 
HETATM   26  C20 UNL     1     -10.896  25.606  -8.437  1.00  0.00     0.026 C 
ATOM     27  H4  UNL     1     -11.806  26.470  -4.901  1.00  0.00     0.164 HD
BRANCH  25  28
HETATM   28  C19 UNL     1     -11.498  24.222 -10.341  1.00  0.00     0.133 C 
HETATM   29 BR1  UNL     1     -13.116  23.406  -9.615  1.00  0.00    -0.079 Br
HETATM   30 BR2  UNL     1     -11.972  26.021 -10.887  1.00  0.00    -0.079 Br
ENDBRANCH  25  28
ENDBRANCH  17  18
ENDBRANCH  16  17
ENDBRANCH  15  16
ENDBRANCH  14  15
ENDBRANCH  13  14
ENDBRANCH  12  13
ENDBRANCH   5  12
BRANCH   1  31
HETATM   31  C5  UNL     1     -17.718  17.688  -7.793  1.00  0.00     0.217 C 
BRANCH  31  32
HETATM   32  N1  UNL     1     -18.925  17.190  -8.209  1.00  0.00    -0.348 N 
BRANCH  32  33
HETATM   33  C2  UNL     1     -19.469  16.022  -7.446  1.00  0.00     0.122 C 
HETATM   34  C1  UNL     1     -19.801  14.898  -8.412  1.00  0.00     0.026 C 
ENDBRANCH  32  33
BRANCH  32  35
HETATM   35  C3  UNL     1     -19.774  17.655  -9.261  1.00  0.00     0.122 C 
HETATM   36  C4  UNL     1     -20.900  18.561  -8.777  1.00  0.00     0.026 C 
ENDBRANCH  32  35
ENDBRANCH  31  32
BRANCH  31  37
HETATM   37  O1  UNL     1     -16.678  17.104  -8.361  1.00  0.00    -0.332 OA
ATOM     38  H1  UNL     1     -16.082  17.712  -8.784  1.00  0.00     0.220 HD
ENDBRANCH  31  37
ENDBRANCH   1  31
TORSDOF 13
ENDMDL
