MODEL 1
REMARK VINA RESULT: -5.905527816      0.000      0.000
REMARK  5 active torsions:
REMARK  status: ('A' for Active; 'I' for Inactive)
REMARK    1  A    between atoms: C2_2  and  C3_3 
REMARK    2  A    between atoms: C3_3  and  C4_4 
REMARK    3  A    between atoms: C4_4  and  N1_5 
REMARK    4  A    between atoms: N1_5  and  C5_7 
REMARK    5  A    between atoms: N2_8  and  N3_10 
ROOT
HETATM    1  N3  UNL     1      14.616  -3.589  60.381  1.00  0.00    -0.269 N 
ATOM      2  H3  UNL     1      13.700  -3.922  60.682  1.00  0.00     0.190 HD
HETATM    3  C6  UNL     1      15.197  -4.090  59.340  1.00  0.00     0.209 C 
HETATM    4  N4  UNL     1      16.483  -3.631  58.908  1.00  0.00    -0.358 N 
ATOM      5  H4  UNL     1      16.924  -2.791  59.283  1.00  0.00     0.162 HD
HETATM    6  C7  UNL     1      17.109  -4.464  57.888  1.00  0.00     0.144 C 
HETATM    7  C8  UNL     1      16.121  -4.732  56.782  1.00  0.00     0.159 C 
HETATM    8  N5  UNL     1      14.838  -5.174  57.210  1.00  0.00    -0.332 N 
ATOM      9  H5  UNL     1      14.137  -5.510  56.551  1.00  0.00     0.180 HD
HETATM   10  N6  UNL     1      14.598  -5.122  58.567  1.00  0.00    -0.274 N 
ATOM     11  H6  UNL     1      13.998  -5.816  59.012  1.00  0.00     0.189 HD
ENDROOT
BRANCH   1  12
HETATM   12  N2  UNL     1      15.270  -2.589  61.075  1.00  0.00    -0.294 N 
HETATM   13  C5  UNL     1      14.830  -1.387  61.202  1.00  0.00     0.192 C 
ATOM     14  H2  UNL     1      16.160  -2.820  61.516  1.00  0.00     0.187 HD
BRANCH  13  15
HETATM   15  N1  UNL     1      15.592  -0.447  61.940  1.00  0.00    -0.385 N 
ATOM     16  H1  UNL     1      15.156   0.360  62.386  1.00  0.00     0.160 HD
BRANCH  15  17
HETATM   17  C4  UNL     1      17.029  -0.685  62.034  1.00  0.00     0.124 C 
BRANCH  17  18
HETATM   18  C3  UNL     1      17.306  -0.954  63.519  1.00  0.00     0.046 C 
BRANCH  18  19
HETATM   19  C2  UNL     1      18.680  -1.495  63.605  1.00  0.00    -0.035 C 
HETATM   20  C1  UNL     1      19.669  -1.083  62.830  1.00  0.00     0.007 C 
ENDBRANCH  18  19
ENDBRANCH  17  18
ENDBRANCH  15  17
ENDBRANCH  13  15
ENDBRANCH   1  12
TORSDOF 5
ENDMDL
MODEL 2
REMARK VINA RESULT: -5.680194105      2.224      3.768
REMARK  5 active torsions:
REMARK  status: ('A' for Active; 'I' for Inactive)
REMARK    1  A    between atoms: C2_2  and  C3_3 
REMARK    2  A    between atoms: C3_3  and  C4_4 
REMARK    3  A    between atoms: C4_4  and  N1_5 
REMARK    4  A    between atoms: N1_5  and  C5_7 
REMARK    5  A    between atoms: N2_8  and  N3_10 
ROOT
HETATM    1  N3  UNL     1      15.720  -5.717  57.003  1.00  0.00    -0.269 N 
ATOM      2  H3  UNL     1      16.538  -6.325  56.959  1.00  0.00     0.190 HD
HETATM    3  C6  UNL     1      14.912  -5.616  55.998  1.00  0.00     0.209 C 
HETATM    4  N4  UNL     1      13.760  -4.766  56.048  1.00  0.00    -0.358 N 
ATOM      5  H4  UNL     1      13.426  -4.338  56.913  1.00  0.00     0.162 HD
HETATM    6  C7  UNL     1      13.103  -4.563  54.763  1.00  0.00     0.144 C 
HETATM    7  C8  UNL     1      12.886  -5.897  54.094  1.00  0.00     0.159 C 
HETATM    8  N5  UNL     1      14.025  -6.748  54.056  1.00  0.00    -0.332 N 
ATOM      9  H5  UNL     1      14.033  -7.614  53.517  1.00  0.00     0.180 HD
HETATM   10  N6  UNL     1      15.117  -6.336  54.791  1.00  0.00    -0.274 N 
ATOM     11  H6  UNL     1      16.063  -6.546  54.471  1.00  0.00     0.189 HD
ENDROOT
BRANCH   1  12
HETATM   12  N2  UNL     1      15.445  -4.981  58.138  1.00  0.00    -0.294 N 
HETATM   13  C5  UNL     1      16.265  -4.153  58.683  1.00  0.00     0.192 C 
ATOM     14  H2  UNL     1      14.530  -5.103  58.575  1.00  0.00     0.187 HD
BRANCH  13  15
HETATM   15  N1  UNL     1      15.867  -3.453  59.850  1.00  0.00    -0.385 N 
ATOM     16  H1  UNL     1      15.137  -3.812  60.465  1.00  0.00     0.160 HD
BRANCH  15  17
HETATM   17  C4  UNL     1      16.549  -2.193  60.132  1.00  0.00     0.124 C 
BRANCH  17  18
HETATM   18  C3  UNL     1      15.565  -1.372  60.976  1.00  0.00     0.046 C 
BRANCH  18  19
HETATM   19  C2  UNL     1      16.379  -0.504  61.854  1.00  0.00    -0.035 C 
HETATM   20  C1  UNL     1      16.822  -0.886  63.040  1.00  0.00     0.007 C 
ENDBRANCH  18  19
ENDBRANCH  17  18
ENDBRANCH  15  17
ENDBRANCH  13  15
ENDBRANCH   1  12
TORSDOF 5
ENDMDL
MODEL 3
REMARK VINA RESULT: -5.649325134      1.086      1.430
REMARK  5 active torsions:
REMARK  status: ('A' for Active; 'I' for Inactive)
REMARK    1  A    between atoms: C2_2  and  C3_3 
REMARK    2  A    between atoms: C3_3  and  C4_4 
REMARK    3  A    between atoms: C4_4  and  N1_5 
REMARK    4  A    between atoms: N1_5  and  C5_7 
REMARK    5  A    between atoms: N2_8  and  N3_10 
ROOT
HETATM    1  N3  UNL     1      14.685  -3.557  60.447  1.00  0.00    -0.269 N 
ATOM      2  H3  UNL     1      13.770  -3.870  60.771  1.00  0.00     0.190 HD
HETATM    3  C6  UNL     1      15.229  -4.071  59.392  1.00  0.00     0.209 C 
HETATM    4  N4  UNL     1      16.514  -3.640  58.928  1.00  0.00    -0.358 N 
ATOM      5  H4  UNL     1      16.982  -2.810  59.291  1.00  0.00     0.162 HD
HETATM    6  C7  UNL     1      17.097  -4.487  57.894  1.00  0.00     0.144 C 
HETATM    7  C8  UNL     1      16.075  -4.734  56.813  1.00  0.00     0.159 C 
HETATM    8  N5  UNL     1      14.794  -5.148  57.273  1.00  0.00    -0.332 N 
ATOM      9  H5  UNL     1      14.069  -5.469  56.632  1.00  0.00     0.180 HD
HETATM   10  N6  UNL     1      14.589  -5.090  58.636  1.00  0.00    -0.274 N 
ATOM     11  H6  UNL     1      13.985  -5.771  59.096  1.00  0.00     0.189 HD
ENDROOT
BRANCH   1  12
HETATM   12  N2  UNL     1      15.377  -2.572  61.123  1.00  0.00    -0.294 N 
HETATM   13  C5  UNL     1      15.008  -1.341  61.190  1.00  0.00     0.192 C 
ATOM     14  H2  UNL     1      16.238  -2.837  61.602  1.00  0.00     0.187 HD
BRANCH  13  15
HETATM   15  N1  UNL     1      15.803  -0.419  61.917  1.00  0.00    -0.385 N 
ATOM     16  H1  UNL     1      15.384   0.339  62.454  1.00  0.00     0.160 HD
BRANCH  15  17
HETATM   17  C4  UNL     1      17.249  -0.605  61.863  1.00  0.00     0.124 C 
BRANCH  17  18
HETATM   18  C3  UNL     1      17.682  -0.079  60.488  1.00  0.00     0.046 C 
BRANCH  18  19
HETATM   19  C2  UNL     1      18.982  -0.712  60.179  1.00  0.00    -0.035 C 
HETATM   20  C1  UNL     1      19.311  -1.926  60.589  1.00  0.00     0.007 C 
ENDBRANCH  18  19
ENDBRANCH  17  18
ENDBRANCH  15  17
ENDBRANCH  13  15
ENDBRANCH   1  12
TORSDOF 5
ENDMDL
MODEL 4
REMARK VINA RESULT: -5.631530626      1.370      1.694
REMARK  5 active torsions:
REMARK  status: ('A' for Active; 'I' for Inactive)
REMARK    1  A    between atoms: C2_2  and  C3_3 
REMARK    2  A    between atoms: C3_3  and  C4_4 
REMARK    3  A    between atoms: C4_4  and  N1_5 
REMARK    4  A    between atoms: N1_5  and  C5_7 
REMARK    5  A    between atoms: N2_8  and  N3_10 
ROOT
HETATM    1  N3  UNL     1      15.806  -3.669  59.990  1.00  0.00    -0.269 N 
ATOM      2  H3  UNL     1      15.016  -3.783  60.626  1.00  0.00     0.190 HD
HETATM    3  C6  UNL     1      15.812  -4.239  58.829  1.00  0.00     0.209 C 
HETATM    4  N4  UNL     1      16.915  -4.086  57.928  1.00  0.00    -0.358 N 
ATOM      5  H4  UNL     1      17.657  -3.402  58.075  1.00  0.00     0.162 HD
HETATM    6  C7  UNL     1      16.888  -4.990  56.784  1.00  0.00     0.144 C 
HETATM    7  C8  UNL     1      15.525  -4.945  56.141  1.00  0.00     0.159 C 
HETATM    8  N5  UNL     1      14.428  -5.082  57.037  1.00  0.00    -0.332 N 
ATOM      9  H5  UNL     1      13.472  -5.199  56.703  1.00  0.00     0.180 HD
HETATM   10  N6  UNL     1      14.733  -5.048  58.381  1.00  0.00    -0.274 N 
ATOM     11  H6  UNL     1      14.189  -5.596  59.047  1.00  0.00     0.189 HD
ENDROOT
BRANCH   1  12
HETATM   12  N2  UNL     1      16.896  -2.900  60.346  1.00  0.00    -0.294 N 
HETATM   13  C5  UNL     1      16.897  -1.614  60.383  1.00  0.00     0.192 C 
ATOM     14  H2  UNL     1      17.758  -3.385  60.596  1.00  0.00     0.187 HD
BRANCH  13  15
HETATM   15  N1  UNL     1      18.081  -0.935  60.766  1.00  0.00    -0.385 N 
ATOM     16  H1  UNL     1      18.252   0.033  60.493  1.00  0.00     0.160 HD
BRANCH  15  17
HETATM   17  C4  UNL     1      19.044  -1.682  61.568  1.00  0.00     0.124 C 
BRANCH  17  18
HETATM   18  C3  UNL     1      19.142  -0.929  62.902  1.00  0.00     0.046 C 
BRANCH  18  19
HETATM   19  C2  UNL     1      18.303  -1.667  63.870  1.00  0.00    -0.035 C 
HETATM   20  C1  UNL     1      17.082  -1.287  64.206  1.00  0.00     0.007 C 
ENDBRANCH  18  19
ENDBRANCH  17  18
ENDBRANCH  15  17
ENDBRANCH  13  15
ENDBRANCH   1  12
TORSDOF 5
ENDMDL
MODEL 5
REMARK VINA RESULT: -5.625113915      1.729      2.148
REMARK  5 active torsions:
REMARK  status: ('A' for Active; 'I' for Inactive)
REMARK    1  A    between atoms: C2_2  and  C3_3 
REMARK    2  A    between atoms: C3_3  and  C4_4 
REMARK    3  A    between atoms: C4_4  and  N1_5 
REMARK    4  A    between atoms: N1_5  and  C5_7 
REMARK    5  A    between atoms: N2_8  and  N3_10 
ROOT
HETATM    1  N3  UNL     1      16.305  -4.263  58.897  1.00  0.00    -0.269 N 
ATOM      2  H3  UNL     1      15.711  -4.671  59.620  1.00  0.00     0.190 HD
HETATM    3  C6  UNL     1      16.268  -4.701  57.681  1.00  0.00     0.209 C 
HETATM    4  N4  UNL     1      17.097  -4.138  56.658  1.00  0.00    -0.358 N 
ATOM      5  H4  UNL     1      17.623  -3.273  56.787  1.00  0.00     0.162 HD
HETATM    6  C7  UNL     1      17.129  -4.903  55.418  1.00  0.00     0.144 C 
HETATM    7  C8  UNL     1      15.719  -5.227  54.992  1.00  0.00     0.159 C 
HETATM    8  N5  UNL     1      14.890  -5.773  56.011  1.00  0.00    -0.332 N 
ATOM      9  H5  UNL     1      13.964  -6.151  55.807  1.00  0.00     0.180 HD
HETATM   10  N6  UNL     1      15.408  -5.762  57.289  1.00  0.00    -0.274 N 
ATOM     11  H6  UNL     1      15.176  -6.507  57.945  1.00  0.00     0.189 HD
ENDROOT
BRANCH   1  12
HETATM   12  N2  UNL     1      17.171  -3.229  59.192  1.00  0.00    -0.294 N 
HETATM   13  C5  UNL     1      16.925  -2.297  60.045  1.00  0.00     0.192 C 
ATOM     14  H2  UNL     1      18.065  -3.202  58.701  1.00  0.00     0.187 HD
BRANCH  13  15
HETATM   15  N1  UNL     1      17.895  -1.287  60.263  1.00  0.00    -0.385 N 
ATOM     16  H1  UNL     1      18.424  -0.880  59.492  1.00  0.00     0.160 HD
BRANCH  15  17
HETATM   17  C4  UNL     1      18.103  -0.854  61.641  1.00  0.00     0.124 C 
BRANCH  17  18
HETATM   18  C3  UNL     1      16.707  -0.817  62.277  1.00  0.00     0.046 C 
BRANCH  18  19
HETATM   19  C2  UNL     1      16.902  -0.942  63.738  1.00  0.00    -0.035 C 
HETATM   20  C1  UNL     1      18.002  -1.435  64.282  1.00  0.00     0.007 C 
ENDBRANCH  18  19
ENDBRANCH  17  18
ENDBRANCH  15  17
ENDBRANCH  13  15
ENDBRANCH   1  12
TORSDOF 5
ENDMDL
