MODEL 1
REMARK VINA RESULT: -5.029896123      0.000      0.000
REMARK  7 active torsions:
REMARK  status: ('A' for Active; 'I' for Inactive)
REMARK    1  A    between atoms: C3_3  and  N1_4 
REMARK    2  A    between atoms: C3_3  and  O1_18 
REMARK    3  A    between atoms: N1_4  and  C4_6 
REMARK    4  A    between atoms: C4_6  and  C6_8 
REMARK    5  A    between atoms: C6_8  and  N2_9 
REMARK    6  A    between atoms: N2_9  and  C7_12 
REMARK    7  A    between atoms: C7_12  and  N3_14 
ROOT
HETATM    1  C1  UNL     1      17.261   0.481  59.806  1.00  0.00     0.016 C 
HETATM    2  C2  UNL     1      16.580  -0.145  60.576  1.00  0.00    -0.064 C 
HETATM    3  C3  UNL     1      15.734  -0.922  61.584  1.00  0.00     0.297 C 
ENDROOT
BRANCH   3   4
HETATM    4  N1  UNL     1      16.432  -2.080  61.857  1.00  0.00    -0.382 N 
ATOM      5  H1  UNL     1      16.425  -2.808  61.142  1.00  0.00     0.157 HD
BRANCH   4   6
HETATM    6  C4  UNL     1      17.142  -2.338  63.021  1.00  0.00     0.101 C 
HETATM    7  C5  UNL     1      16.883  -1.276  64.068  1.00  0.00     0.033 C 
BRANCH   6   8
HETATM    8  C6  UNL     1      18.650  -2.434  62.857  1.00  0.00     0.259 C 
BRANCH   8   9
HETATM    9  N2  UNL     1      19.125  -1.062  63.164  1.00  0.00    -0.045 N 
ATOM     10  H22 UNL     1      18.348  -0.436  63.378  1.00  0.00     0.279 HD
ATOM     11  H21 UNL     1      19.608  -1.025  64.062  1.00  0.00     0.279 HD
BRANCH   9  12
HETATM   12  C7  UNL     1      19.949  -0.539  62.097  1.00  0.00     0.376 C 
HETATM   13  C8  UNL     1      20.099  -1.610  61.053  1.00  0.00     0.071 C 
BRANCH  12  14
HETATM   14  N3  UNL     1      21.256  -0.258  62.644  1.00  0.00    -0.051 N 
ATOM     15  H33 UNL     1      21.217   0.088  63.603  1.00  0.00     0.276 HD
ATOM     16  H32 UNL     1      21.798  -1.103  62.826  1.00  0.00     0.276 HD
ATOM     17  H31 UNL     1      21.728   0.386  62.010  1.00  0.00     0.276 HD
ENDBRANCH  12  14
ENDBRANCH   9  12
ENDBRANCH   8   9
ENDBRANCH   6   8
ENDBRANCH   4   6
ENDBRANCH   3   4
BRANCH   3  18
HETATM   18  O1  UNL     1      14.580  -1.213  60.821  1.00  0.00    -0.361 OA
HETATM   19  C9  UNL     1      14.357  -2.607  60.828  1.00  0.00     0.205 C 
ENDBRANCH   3  18
TORSDOF 7
ENDMDL
MODEL 2
REMARK VINA RESULT: -4.994884984      0.864      1.011
REMARK  7 active torsions:
REMARK  status: ('A' for Active; 'I' for Inactive)
REMARK    1  A    between atoms: C3_3  and  N1_4 
REMARK    2  A    between atoms: C3_3  and  O1_18 
REMARK    3  A    between atoms: N1_4  and  C4_6 
REMARK    4  A    between atoms: C4_6  and  C6_8 
REMARK    5  A    between atoms: C6_8  and  N2_9 
REMARK    6  A    between atoms: N2_9  and  C7_12 
REMARK    7  A    between atoms: C7_12  and  N3_14 
ROOT
HETATM    1  C1  UNL     1      17.330   0.522  59.757  1.00  0.00     0.016 C 
HETATM    2  C2  UNL     1      16.631  -0.077  60.532  1.00  0.00    -0.064 C 
HETATM    3  C3  UNL     1      15.761  -0.820  61.545  1.00  0.00     0.297 C 
ENDROOT
BRANCH   3   4
HETATM    4  N1  UNL     1      16.458  -1.961  61.883  1.00  0.00    -0.382 N 
ATOM      5  H1  UNL     1      16.485  -2.712  61.193  1.00  0.00     0.157 HD
BRANCH   4   6
HETATM    6  C4  UNL     1      17.125  -2.174  63.081  1.00  0.00     0.101 C 
HETATM    7  C5  UNL     1      17.009  -0.971  63.993  1.00  0.00     0.033 C 
BRANCH   6   8
HETATM    8  C6  UNL     1      18.607  -2.488  62.955  1.00  0.00     0.259 C 
BRANCH   8   9
HETATM    9  N2  UNL     1      19.240  -1.152  62.827  1.00  0.00    -0.045 N 
ATOM     10  H22 UNL     1      18.551  -0.431  62.612  1.00  0.00     0.279 HD
ATOM     11  H21 UNL     1      19.559  -0.800  63.730  1.00  0.00     0.279 HD
BRANCH   9  12
HETATM   12  C7  UNL     1      20.311  -1.169  61.856  1.00  0.00     0.376 C 
HETATM   13  C8  UNL     1      20.612   0.251  61.465  1.00  0.00     0.071 C 
BRANCH  12  14
HETATM   14  N3  UNL     1      19.836  -1.867  60.684  1.00  0.00    -0.051 N 
ATOM     15  H33 UNL     1      18.848  -1.698  60.496  1.00  0.00     0.276 HD
ATOM     16  H32 UNL     1      20.208  -1.480  59.817  1.00  0.00     0.276 HD
ATOM     17  H31 UNL     1      20.053  -2.857  60.801  1.00  0.00     0.276 HD
ENDBRANCH  12  14
ENDBRANCH   9  12
ENDBRANCH   8   9
ENDBRANCH   6   8
ENDBRANCH   4   6
ENDBRANCH   3   4
BRANCH   3  18
HETATM   18  O1  UNL     1      14.631  -1.149  60.762  1.00  0.00    -0.361 OA
HETATM   19  C9  UNL     1      14.418  -2.544  60.815  1.00  0.00     0.205 C 
ENDBRANCH   3  18
TORSDOF 7
ENDMDL
MODEL 3
REMARK VINA RESULT: -4.959830522      2.095      3.565
REMARK  7 active torsions:
REMARK  status: ('A' for Active; 'I' for Inactive)
REMARK    1  A    between atoms: C3_3  and  N1_4 
REMARK    2  A    between atoms: C3_3  and  O1_18 
REMARK    3  A    between atoms: N1_4  and  C4_6 
REMARK    4  A    between atoms: C4_6  and  C6_8 
REMARK    5  A    between atoms: C6_8  and  N2_9 
REMARK    6  A    between atoms: N2_9  and  C7_12 
REMARK    7  A    between atoms: C7_12  and  N3_14 
ROOT
HETATM    1  C1  UNL     1      13.428  -4.523  60.455  1.00  0.00     0.016 C 
HETATM    2  C2  UNL     1      14.339  -3.742  60.550  1.00  0.00    -0.064 C 
HETATM    3  C3  UNL     1      15.497  -2.759  60.710  1.00  0.00     0.297 C 
ENDROOT
BRANCH   3   4
HETATM    4  N1  UNL     1      14.925  -1.539  61.003  1.00  0.00    -0.382 N 
ATOM      5  H1  UNL     1      13.909  -1.474  60.948  1.00  0.00     0.157 HD
BRANCH   4   6
HETATM    6  C4  UNL     1      15.616  -0.391  61.367  1.00  0.00     0.101 C 
HETATM    7  C5  UNL     1      15.831   0.519  60.176  1.00  0.00     0.033 C 
BRANCH   6   8
HETATM    8  C6  UNL     1      16.982  -0.623  61.994  1.00  0.00     0.259 C 
BRANCH   8   9
HETATM    9  N2  UNL     1      16.709  -0.591  63.452  1.00  0.00    -0.045 N 
ATOM     10  H22 UNL     1      16.597   0.365  63.791  1.00  0.00     0.279 HD
ATOM     11  H21 UNL     1      15.776  -0.944  63.666  1.00  0.00     0.279 HD
BRANCH   9  12
HETATM   12  C7  UNL     1      17.727  -1.301  64.193  1.00  0.00     0.376 C 
HETATM   13  C8  UNL     1      18.950  -1.409  63.325  1.00  0.00     0.071 C 
BRANCH  12  14
HETATM   14  N3  UNL     1      17.238  -2.636  64.449  1.00  0.00    -0.051 N 
ATOM     15  H33 UNL     1      17.511  -3.302  63.727  1.00  0.00     0.276 HD
ATOM     16  H32 UNL     1      17.709  -3.085  65.234  1.00  0.00     0.276 HD
ATOM     17  H31 UNL     1      16.227  -2.580  64.574  1.00  0.00     0.276 HD
ENDBRANCH  12  14
ENDBRANCH   9  12
ENDBRANCH   8   9
ENDBRANCH   6   8
ENDBRANCH   4   6
ENDBRANCH   3   4
BRANCH   3  18
HETATM   18  O1  UNL     1      16.039  -2.745  59.404  1.00  0.00    -0.361 OA
HETATM   19  C9  UNL     1      16.843  -3.891  59.220  1.00  0.00     0.205 C 
ENDBRANCH   3  18
TORSDOF 7
ENDMDL
MODEL 4
REMARK VINA RESULT: -4.908020279      3.413      5.320
REMARK  7 active torsions:
REMARK  status: ('A' for Active; 'I' for Inactive)
REMARK    1  A    between atoms: C3_3  and  N1_4 
REMARK    2  A    between atoms: C3_3  and  O1_18 
REMARK    3  A    between atoms: N1_4  and  C4_6 
REMARK    4  A    between atoms: C4_6  and  C6_8 
REMARK    5  A    between atoms: C6_8  and  N2_9 
REMARK    6  A    between atoms: N2_9  and  C7_12 
REMARK    7  A    between atoms: C7_12  and  N3_14 
ROOT
HETATM    1  C1  UNL     1      16.846  -0.927  63.400  1.00  0.00     0.016 C 
HETATM    2  C2  UNL     1      16.359  -1.321  62.372  1.00  0.00    -0.064 C 
HETATM    3  C3  UNL     1      15.747  -1.858  61.079  1.00  0.00     0.297 C 
ENDROOT
BRANCH   3   4
HETATM    4  N1  UNL     1      16.794  -2.002  60.193  1.00  0.00    -0.382 N 
ATOM      5  H1  UNL     1      17.332  -1.166  59.965  1.00  0.00     0.157 HD
BRANCH   4   6
HETATM    6  C4  UNL     1      17.177  -3.189  59.584  1.00  0.00     0.101 C 
HETATM    7  C5  UNL     1      18.207  -2.943  58.503  1.00  0.00     0.033 C 
BRANCH   6   8
HETATM    8  C6  UNL     1      16.051  -3.986  58.944  1.00  0.00     0.259 C 
BRANCH   8   9
HETATM    9  N2  UNL     1      16.759  -4.960  58.077  1.00  0.00    -0.045 N 
ATOM     10  H22 UNL     1      17.644  -4.584  57.737  1.00  0.00     0.279 HD
ATOM     11  H21 UNL     1      17.120  -5.748  58.616  1.00  0.00     0.279 HD
BRANCH   9  12
HETATM   12  C7  UNL     1      15.918  -5.404  56.988  1.00  0.00     0.376 C 
HETATM   13  C8  UNL     1      16.289  -4.621  55.760  1.00  0.00     0.071 C 
BRANCH  12  14
HETATM   14  N3  UNL     1      14.550  -5.086  57.327  1.00  0.00    -0.051 N 
ATOM     15  H33 UNL     1      13.908  -5.220  56.547  1.00  0.00     0.276 HD
ATOM     16  H32 UNL     1      14.133  -5.764  57.965  1.00  0.00     0.276 HD
ATOM     17  H31 UNL     1      14.532  -4.134  57.695  1.00  0.00     0.276 HD
ENDBRANCH  12  14
ENDBRANCH   9  12
ENDBRANCH   8   9
ENDBRANCH   6   8
ENDBRANCH   4   6
ENDBRANCH   3   4
BRANCH   3  18
HETATM   18  O1  UNL     1      14.919  -0.780  60.689  1.00  0.00    -0.361 OA
HETATM   19  C9  UNL     1      15.722   0.263  60.178  1.00  0.00     0.205 C 
ENDBRANCH   3  18
TORSDOF 7
ENDMDL
MODEL 5
REMARK VINA RESULT: -4.805272951      3.209      5.261
REMARK  7 active torsions:
REMARK  status: ('A' for Active; 'I' for Inactive)
REMARK    1  A    between atoms: C3_3  and  N1_4 
REMARK    2  A    between atoms: C3_3  and  O1_18 
REMARK    3  A    between atoms: N1_4  and  C4_6 
REMARK    4  A    between atoms: C4_6  and  C6_8 
REMARK    5  A    between atoms: C6_8  and  N2_9 
REMARK    6  A    between atoms: N2_9  and  C7_12 
REMARK    7  A    between atoms: C7_12  and  N3_14 
ROOT
HETATM    1  C1  UNL     1      15.766   0.122  60.403  1.00  0.00     0.016 C 
HETATM    2  C2  UNL     1      16.211  -0.757  61.094  1.00  0.00    -0.064 C 
HETATM    3  C3  UNL     1      16.810  -1.873  61.949  1.00  0.00     0.297 C 
ENDROOT
BRANCH   3   4
HETATM    4  N1  UNL     1      16.444  -3.057  61.343  1.00  0.00    -0.382 N 
ATOM      5  H1  UNL     1      16.748  -3.923  61.789  1.00  0.00     0.157 HD
BRANCH   4   6
HETATM    6  C4  UNL     1      15.697  -3.169  60.179  1.00  0.00     0.101 C 
HETATM    7  C5  UNL     1      14.354  -3.813  60.449  1.00  0.00     0.033 C 
BRANCH   6   8
HETATM    8  C6  UNL     1      16.349  -3.968  59.061  1.00  0.00     0.259 C 
BRANCH   8   9
HETATM    9  N2  UNL     1      15.265  -4.867  58.593  1.00  0.00    -0.045 N 
ATOM     10  H22 UNL     1      15.161  -5.677  59.203  1.00  0.00     0.279 HD
ATOM     11  H21 UNL     1      14.345  -4.447  58.730  1.00  0.00     0.279 HD
BRANCH   9  12
HETATM   12  C7  UNL     1      15.467  -5.262  57.217  1.00  0.00     0.376 C 
HETATM   13  C8  UNL     1      16.533  -4.380  56.627  1.00  0.00     0.071 C 
BRANCH  12  14
HETATM   14  N3  UNL     1      14.236  -5.019  56.501  1.00  0.00    -0.051 N 
ATOM     15  H33 UNL     1      13.734  -5.878  56.276  1.00  0.00     0.276 HD
ATOM     16  H32 UNL     1      13.518  -4.590  57.084  1.00  0.00     0.276 HD
ATOM     17  H31 UNL     1      14.459  -4.464  55.675  1.00  0.00     0.276 HD
ENDBRANCH  12  14
ENDBRANCH   9  12
ENDBRANCH   8   9
ENDBRANCH   6   8
ENDBRANCH   4   6
ENDBRANCH   3   4
BRANCH   3  18
HETATM   18  O1  UNL     1      16.107  -1.707  63.164  1.00  0.00    -0.361 OA
HETATM   19  C9  UNL     1      17.010  -1.307  64.174  1.00  0.00     0.205 C 
ENDBRANCH   3  18
TORSDOF 7
ENDMDL
