MODEL 1
REMARK VINA RESULT: -8.067676613      0.000      0.000
REMARK  11 active torsions:
REMARK  status: ('A' for Active; 'I' for Inactive)
REMARK    1  A    between atoms: C2_2  and  N1_3 
REMARK    2  A    between atoms: C2_2  and  C9_31 
REMARK    3  A    between atoms: N1_3  and  C3_5 
REMARK    4  A    between atoms: C4_8  and  N3_9 
REMARK    5  A    between atoms: C5_14  and  N5_15 
REMARK    6  A    between atoms: N5_15  and  C6_17 
REMARK    7  A    between atoms: N7_21  and  N8_22 
REMARK       I    between atoms: C9_31  and  N12_33 
REMARK    8  A    between atoms: N12_33  and  C10_35 
REMARK    9  A    between atoms: C12_37  and  N13_38 
REMARK   10  A    between atoms: C13_42  and  O2_43 
REMARK   11  A    between atoms: C14_45  and  N14_46 
ROOT
HETATM    1  C3  UNL     1     162.979  49.840  14.061  1.00  0.00     0.708 A 
HETATM    2  N2  UNL     1     162.410  50.912  14.659  1.00  0.00    -0.022 N 
ATOM      3  H2  UNL     1     162.343  50.952  15.676  1.00  0.00     0.203 HD
HETATM    4  C4  UNL     1     161.936  51.919  13.919  1.00  0.00     0.705 A 
HETATM    5  N4  UNL     1     162.043  51.829  12.561  1.00  0.00    -0.021 N 
ATOM      6  H4  UNL     1     161.685  52.588  11.982  1.00  0.00     0.203 HD
HETATM    7  C5  UNL     1     162.606  50.771  11.973  1.00  0.00     0.725 A 
HETATM    8  N11 UNL     1     163.080  49.766  12.726  1.00  0.00    -0.021 N 
ATOM      9  H11 UNL     1     163.513  48.953  12.286  1.00  0.00     0.203 HD
ENDROOT
BRANCH   1  10
HETATM   10  N1  UNL     1     163.433  48.856  14.783  1.00  0.00    -0.212 N 
ATOM     11  H1  UNL     1     163.867  48.074  14.291  1.00  0.00     0.178 HD
BRANCH  10  12
HETATM   12  C2  UNL     1     163.371  48.782  16.207  1.00  0.00     0.187 C 
HETATM   13  C1  UNL     1     164.743  48.710  16.850  1.00  0.00     0.043 C 
BRANCH  12  14
HETATM   14  C9  UNL     1     162.669  47.526  16.621  1.00  0.00     0.241 C 
HETATM   15  O1  UNL     1     163.257  46.434  16.497  1.00  0.00    -0.271 OA
HETATM   16  N12 UNL     1     161.361  47.561  17.145  1.00  0.00    -0.353 N 
ATOM     17  H12 UNL     1     160.894  48.463  17.235  1.00  0.00     0.163 HD
BRANCH  16  18
HETATM   18  C10 UNL     1     160.652  46.365  17.564  1.00  0.00     0.111 C 
HETATM   19  C11 UNL     1     159.320  46.212  16.866  1.00  0.00     0.062 C 
HETATM   20  C12 UNL     1     158.319  46.003  17.985  1.00  0.00     0.216 C 
HETATM   21  C13 UNL     1     158.939  46.746  19.159  1.00  0.00     0.173 C 
HETATM   22  C14 UNL     1     160.380  46.372  19.040  1.00  0.00     0.137 C 
BRANCH  20  23
HETATM   23  N13 UNL     1     158.189  44.591  18.227  1.00  0.00    -0.072 N 
ATOM     24 3H13 UNL     1     157.393  44.182  17.738  1.00  0.00     0.274 HD
ATOM     25 2H13 UNL     1     158.925  44.048  17.775  1.00  0.00     0.274 HD
ATOM     26 1H13 UNL     1     158.151  44.435  19.234  1.00  0.00     0.274 HD
ENDBRANCH  20  23
BRANCH  21  27
HETATM   27  O2  UNL     1     158.813  48.113  18.881  1.00  0.00    -0.391 OA
ATOM     28  H2  UNL     1     157.927  48.359  19.122  1.00  0.00     0.210 HD
ENDBRANCH  21  27
BRANCH  22  29
HETATM   29  N14 UNL     1     160.659  45.056  19.583  1.00  0.00    -0.358 N 
HETATM   30  C15 UNL     1     161.776  44.850  20.186  1.00  0.00     0.197 C 
HETATM   31  N15 UNL     1     162.061  43.586  20.717  1.00  0.00    -0.067 NA
HETATM   32  N16 UNL     1     162.727  45.914  20.316  1.00  0.00    -0.067 NA
ATOM     33  H14 UNL     1     159.977  44.303  19.488  1.00  0.00     0.162 HD
ENDBRANCH  22  29
ENDBRANCH  16  18
ENDBRANCH  12  14
ENDBRANCH  10  12
ENDBRANCH   1  10
BRANCH   4  34
HETATM   34  N3  UNL     1     161.393  52.935  14.483  1.00  0.00    -0.234 N 
ATOM     35  H32 UNL     1     161.757  53.320  15.355  1.00  0.00     0.174 HD
ATOM     36  H31 UNL     1     160.579  53.383  14.062  1.00  0.00     0.174 HD
ENDBRANCH   4  34
BRANCH   7  37
HETATM   37  N5  UNL     1     162.693  50.655  10.703  1.00  0.00    -0.021 N 
ATOM     38  H5  UNL     1     161.853  50.622  10.123  1.00  0.00     0.203 HD
BRANCH  37  39
HETATM   39  C6  UNL     1     163.993  50.572  10.112  1.00  0.00     0.696 A 
HETATM   40  N6  UNL     1     165.019  50.273  10.820  1.00  0.00    -0.207 N 
HETATM   41  C7  UNL     1     166.376  50.145  10.401  1.00  0.00     0.291 A 
ATOM     42  H6  UNL     1     164.842  50.104  11.809  1.00  0.00     0.179 HD
HETATM   43  N7  UNL     1     166.498  50.438   9.001  1.00  0.00    -0.252 N 
HETATM   44  C8  UNL     1     165.353  50.764   8.241  1.00  0.00     0.225 A 
HETATM   45  N9  UNL     1     165.564  51.027   6.832  1.00  0.00    -0.061 NA
HETATM   46  N10 UNL     1     164.172  50.835   8.728  1.00  0.00    -0.162 N 
ATOM     47  H10 UNL     1     163.376  51.076   8.136  1.00  0.00     0.187 HD
BRANCH  43  48
HETATM   48  N8  UNL     1     167.786  50.403   8.365  1.00  0.00    -0.339 N 
ATOM     49  H82 UNL     1     168.618  50.204   8.921  1.00  0.00     0.177 HD
ATOM     50  H81 UNL     1     167.867  50.575   7.363  1.00  0.00     0.177 HD
ENDBRANCH  43  48
ENDBRANCH  37  39
ENDBRANCH   7  37
TORSDOF 11
ENDMDL
MODEL 2
REMARK VINA RESULT: -7.971584335      2.952      4.844
REMARK  11 active torsions:
REMARK  status: ('A' for Active; 'I' for Inactive)
REMARK    1  A    between atoms: C2_2  and  N1_3 
REMARK    2  A    between atoms: C2_2  and  C9_31 
REMARK    3  A    between atoms: N1_3  and  C3_5 
REMARK    4  A    between atoms: C4_8  and  N3_9 
REMARK    5  A    between atoms: C5_14  and  N5_15 
REMARK    6  A    between atoms: N5_15  and  C6_17 
REMARK    7  A    between atoms: N7_21  and  N8_22 
REMARK       I    between atoms: C9_31  and  N12_33 
REMARK    8  A    between atoms: N12_33  and  C10_35 
REMARK    9  A    between atoms: C12_37  and  N13_38 
REMARK   10  A    between atoms: C13_42  and  O2_43 
REMARK   11  A    between atoms: C14_45  and  N14_46 
ROOT
HETATM    1  C3  UNL     1     165.601  51.028  10.889  1.00  0.00     0.708 A 
HETATM    2  N2  UNL     1     164.298  50.712  10.712  1.00  0.00    -0.022 N 
ATOM      3  H2  UNL     1     163.675  50.649  11.517  1.00  0.00     0.203 HD
HETATM    4  C4  UNL     1     163.825  50.482   9.483  1.00  0.00     0.705 A 
HETATM    5  N4  UNL     1     164.690  50.574   8.431  1.00  0.00    -0.021 N 
ATOM      6  H4  UNL     1     164.346  50.400   7.487  1.00  0.00     0.203 HD
HETATM    7  C5  UNL     1     165.976  50.887   8.607  1.00  0.00     0.725 A 
HETATM    8  N11 UNL     1     166.440  51.118   9.846  1.00  0.00    -0.021 N 
ATOM      9  H11 UNL     1     167.421  51.359   9.992  1.00  0.00     0.203 HD
ENDROOT
BRANCH   1  10
HETATM   10  N1  UNL     1     166.063  51.243  12.088  1.00  0.00    -0.212 N 
ATOM     11  H1  UNL     1     166.192  52.214  12.374  1.00  0.00     0.178 HD
BRANCH  10  12
HETATM   12  C2  UNL     1     166.402  50.229  13.034  1.00  0.00     0.187 C 
HETATM   13  C1  UNL     1     167.410  49.235  12.491  1.00  0.00     0.043 C 
BRANCH  12  14
HETATM   14  C9  UNL     1     165.186  49.423  13.371  1.00  0.00     0.241 C 
HETATM   15  O1  UNL     1     164.959  48.374  12.737  1.00  0.00    -0.271 OA
HETATM   16  N12 UNL     1     164.301  49.829  14.390  1.00  0.00    -0.353 N 
ATOM     17  H12 UNL     1     164.500  50.693  14.895  1.00  0.00     0.163 HD
BRANCH  16  18
HETATM   18  C10 UNL     1     163.117  49.069  14.749  1.00  0.00     0.111 C 
HETATM   19  C11 UNL     1     161.853  49.664  14.171  1.00  0.00     0.062 C 
HETATM   20  C12 UNL     1     160.916  49.805  15.354  1.00  0.00     0.216 C 
HETATM   21  C13 UNL     1     161.858  49.997  16.532  1.00  0.00     0.173 C 
HETATM   22  C14 UNL     1     162.934  49.004  16.237  1.00  0.00     0.137 C 
BRANCH  20  23
HETATM   23  N13 UNL     1     160.128  48.607  15.460  1.00  0.00    -0.072 N 
ATOM     24 3H13 UNL     1     160.686  47.761  15.344  1.00  0.00     0.274 HD
ATOM     25 2H13 UNL     1     159.808  48.433  16.413  1.00  0.00     0.274 HD
ATOM     26 1H13 UNL     1     159.359  48.662  14.793  1.00  0.00     0.274 HD
ENDBRANCH  20  23
BRANCH  21  27
HETATM   27  O2  UNL     1     162.399  51.283  16.411  1.00  0.00    -0.391 OA
ATOM     28  H2  UNL     1     161.676  51.893  16.506  1.00  0.00     0.210 HD
ENDBRANCH  21  27
BRANCH  22  29
HETATM   29  N14 UNL     1     162.560  47.652  16.614  1.00  0.00    -0.358 N 
HETATM   30  C15 UNL     1     163.450  46.873  17.117  1.00  0.00     0.197 C 
HETATM   31  N15 UNL     1     163.107  45.566  17.485  1.00  0.00    -0.067 NA
HETATM   32  N16 UNL     1     164.792  47.341  17.301  1.00  0.00    -0.067 NA
ATOM     33  H14 UNL     1     161.603  47.326  16.480  1.00  0.00     0.162 HD
ENDBRANCH  22  29
ENDBRANCH  16  18
ENDBRANCH  12  14
ENDBRANCH  10  12
ENDBRANCH   1  10
BRANCH   4  34
HETATM   34  N3  UNL     1     162.591  50.179   9.312  1.00  0.00    -0.234 N 
ATOM     35  H32 UNL     1     161.865  50.523   9.940  1.00  0.00     0.174 HD
ATOM     36  H31 UNL     1     162.311  49.583   8.532  1.00  0.00     0.174 HD
ENDBRANCH   4  34
BRANCH   7  37
HETATM   37  N5  UNL     1     166.807  50.953   7.639  1.00  0.00    -0.021 N 
ATOM     38  H5  UNL     1     167.150  50.105   7.186  1.00  0.00     0.203 HD
BRANCH  37  39
HETATM   39  C6  UNL     1     167.249  52.243   7.205  1.00  0.00     0.696 A 
HETATM   40  N6  UNL     1     168.498  52.521   7.132  1.00  0.00    -0.207 N 
HETATM   41  C7  UNL     1     169.111  53.742   6.724  1.00  0.00     0.291 A 
ATOM     42  H6  UNL     1     169.136  51.772   7.401  1.00  0.00     0.179 HD
HETATM   43  N7  UNL     1     168.111  54.722   6.404  1.00  0.00    -0.252 N 
HETATM   44  C8  UNL     1     166.741  54.393   6.491  1.00  0.00     0.225 A 
HETATM   45  N9  UNL     1     165.800  55.435   6.133  1.00  0.00    -0.061 NA
HETATM   46  N10 UNL     1     166.305  53.247   6.861  1.00  0.00    -0.162 N 
ATOM     47  H10 UNL     1     165.303  53.060   6.908  1.00  0.00     0.187 HD
BRANCH  43  48
HETATM   48  N8  UNL     1     168.500  56.043   5.997  1.00  0.00    -0.339 N 
ATOM     49  H82 UNL     1     169.088  56.164   5.172  1.00  0.00     0.177 HD
ATOM     50  H81 UNL     1     168.188  56.856   6.528  1.00  0.00     0.177 HD
ENDBRANCH  43  48
ENDBRANCH  37  39
ENDBRANCH   7  37
TORSDOF 11
ENDMDL
MODEL 3
REMARK VINA RESULT: -7.883706159      2.985      5.401
REMARK  11 active torsions:
REMARK  status: ('A' for Active; 'I' for Inactive)
REMARK    1  A    between atoms: C2_2  and  N1_3 
REMARK    2  A    between atoms: C2_2  and  C9_31 
REMARK    3  A    between atoms: N1_3  and  C3_5 
REMARK    4  A    between atoms: C4_8  and  N3_9 
REMARK    5  A    between atoms: C5_14  and  N5_15 
REMARK    6  A    between atoms: N5_15  and  C6_17 
REMARK    7  A    between atoms: N7_21  and  N8_22 
REMARK       I    between atoms: C9_31  and  N12_33 
REMARK    8  A    between atoms: N12_33  and  C10_35 
REMARK    9  A    between atoms: C12_37  and  N13_38 
REMARK   10  A    between atoms: C13_42  and  O2_43 
REMARK   11  A    between atoms: C14_45  and  N14_46 
ROOT
HETATM    1  C3  UNL     1     166.071  49.510  11.354  1.00  0.00     0.708 A 
HETATM    2  N2  UNL     1     164.764  49.861  11.356  1.00  0.00    -0.022 N 
ATOM      3  H2  UNL     1     164.190  49.683  12.179  1.00  0.00     0.203 HD
HETATM    4  C4  UNL     1     164.225  50.441  10.279  1.00  0.00     0.705 A 
HETATM    5  N4  UNL     1     165.025  50.662   9.196  1.00  0.00    -0.021 N 
ATOM      6  H4  UNL     1     164.629  51.102   8.366  1.00  0.00     0.203 HD
HETATM    7  C5  UNL     1     166.314  50.315   9.196  1.00  0.00     0.725 A 
HETATM    8  N11 UNL     1     166.847  49.734  10.284  1.00  0.00    -0.021 N 
ATOM      9  H11 UNL     1     167.831  49.467  10.295  1.00  0.00     0.203 HD
ENDROOT
BRANCH   1  10
HETATM   10  N1  UNL     1     166.593  48.936  12.401  1.00  0.00    -0.212 N 
ATOM     11  H1  UNL     1     166.651  47.918  12.398  1.00  0.00     0.178 HD
BRANCH  10  12
HETATM   12  C2  UNL     1     167.090  49.619  13.552  1.00  0.00     0.187 C 
HETATM   13  C1  UNL     1     167.875  48.711  14.478  1.00  0.00     0.043 C 
BRANCH  12  14
HETATM   14  C9  UNL     1     165.946  50.132  14.370  1.00  0.00     0.241 C 
HETATM   15  O1  UNL     1     165.570  51.311  14.217  1.00  0.00    -0.271 OA
HETATM   16  N12 UNL     1     165.290  49.305  15.305  1.00  0.00    -0.353 N 
ATOM     17  H12 UNL     1     165.613  48.345  15.421  1.00  0.00     0.163 HD
BRANCH  16  18
HETATM   18  C10 UNL     1     164.173  49.766  16.110  1.00  0.00     0.111 C 
HETATM   19  C11 UNL     1     164.270  49.306  17.547  1.00  0.00     0.062 C 
HETATM   20  C12 UNL     1     162.933  48.655  17.837  1.00  0.00     0.216 C 
HETATM   21  C13 UNL     1     162.489  48.136  16.477  1.00  0.00     0.173 C 
HETATM   22  C14 UNL     1     162.863  49.266  15.575  1.00  0.00     0.137 C 
BRANCH  20  23
HETATM   23  N13 UNL     1     162.043  49.651  18.370  1.00  0.00    -0.072 N 
ATOM     24 3H13 UNL     1     161.825  50.382  17.694  1.00  0.00     0.274 HD
ATOM     25 2H13 UNL     1     161.095  49.297  18.504  1.00  0.00     0.274 HD
ATOM     26 1H13 UNL     1     162.447  50.022  19.230  1.00  0.00     0.274 HD
ENDBRANCH  20  23
BRANCH  21  27
HETATM   27  O2  UNL     1     163.309  47.041  16.177  1.00  0.00    -0.391 OA
ATOM     28  H2  UNL     1     162.754  46.270  16.205  1.00  0.00     0.210 HD
ENDBRANCH  21  27
BRANCH  22  29
HETATM   29  N14 UNL     1     161.892  50.344  15.604  1.00  0.00    -0.358 N 
HETATM   30  C15 UNL     1     161.604  50.958  14.511  1.00  0.00     0.197 C 
HETATM   31  N15 UNL     1     160.669  52.001  14.521  1.00  0.00    -0.067 NA
HETATM   32  N16 UNL     1     162.238  50.575  13.284  1.00  0.00    -0.067 NA
ATOM     33  H14 UNL     1     161.444  50.611  16.480  1.00  0.00     0.162 HD
ENDBRANCH  22  29
ENDBRANCH  16  18
ENDBRANCH  12  14
ENDBRANCH  10  12
ENDBRANCH   1  10
BRANCH   4  34
HETATM   34  N3  UNL     1     162.986  50.772  10.277  1.00  0.00    -0.234 N 
ATOM     35  H32 UNL     1     162.478  50.946  11.144  1.00  0.00     0.174 HD
ATOM     36  H31 UNL     1     162.482  50.873   9.395  1.00  0.00     0.174 HD
ENDBRANCH   4  34
BRANCH   7  37
HETATM   37  N5  UNL     1     167.074  50.489   8.183  1.00  0.00    -0.021 N 
ATOM     38  H5  UNL     1     167.641  49.723   7.819  1.00  0.00     0.203 HD
BRANCH  37  39
HETATM   39  C6  UNL     1     167.113  51.783   7.572  1.00  0.00     0.696 A 
HETATM   40  N6  UNL     1     168.201  52.457   7.527  1.00  0.00    -0.207 N 
HETATM   41  C7  UNL     1     168.421  53.748   6.962  1.00  0.00     0.291 A 
ATOM     42  H6  UNL     1     169.016  52.013   7.950  1.00  0.00     0.179 HD
HETATM   43  N7  UNL     1     167.196  54.276   6.431  1.00  0.00    -0.252 N 
HETATM   44  C8  UNL     1     166.009  53.514   6.490  1.00  0.00     0.225 A 
HETATM   45  N9  UNL     1     164.823  54.116   5.915  1.00  0.00    -0.061 NA
HETATM   46  N10 UNL     1     165.935  52.349   7.016  1.00  0.00    -0.162 N 
ATOM     47  H10 UNL     1     165.052  51.840   7.035  1.00  0.00     0.187 HD
BRANCH  43  48
HETATM   48  N8  UNL     1     167.172  55.584   5.838  1.00  0.00    -0.339 N 
ATOM     49  H82 UNL     1     167.574  55.726   4.911  1.00  0.00     0.177 HD
ATOM     50  H81 UNL     1     166.753  56.367   6.340  1.00  0.00     0.177 HD
ENDBRANCH  43  48
ENDBRANCH  37  39
ENDBRANCH   7  37
TORSDOF 11
ENDMDL
MODEL 4
REMARK VINA RESULT: -7.777899469      2.517      4.407
REMARK  11 active torsions:
REMARK  status: ('A' for Active; 'I' for Inactive)
REMARK    1  A    between atoms: C2_2  and  N1_3 
REMARK    2  A    between atoms: C2_2  and  C9_31 
REMARK    3  A    between atoms: N1_3  and  C3_5 
REMARK    4  A    between atoms: C4_8  and  N3_9 
REMARK    5  A    between atoms: C5_14  and  N5_15 
REMARK    6  A    between atoms: N5_15  and  C6_17 
REMARK    7  A    between atoms: N7_21  and  N8_22 
REMARK       I    between atoms: C9_31  and  N12_33 
REMARK    8  A    between atoms: N12_33  and  C10_35 
REMARK    9  A    between atoms: C12_37  and  N13_38 
REMARK   10  A    between atoms: C13_42  and  O2_43 
REMARK   11  A    between atoms: C14_45  and  N14_46 
ROOT
HETATM    1  C3  UNL     1     165.837  51.065  12.250  1.00  0.00     0.708 A 
HETATM    2  N2  UNL     1     167.019  51.001  12.905  1.00  0.00    -0.022 N 
ATOM      3  H2  UNL     1     167.052  51.161  13.912  1.00  0.00     0.203 HD
HETATM    4  C4  UNL     1     168.143  50.728  12.236  1.00  0.00     0.705 A 
HETATM    5  N4  UNL     1     168.058  50.521  10.889  1.00  0.00    -0.021 N 
ATOM      6  H4  UNL     1     168.906  50.313  10.363  1.00  0.00     0.203 HD
HETATM    7  C5  UNL     1     166.891  50.584  10.244  1.00  0.00     0.725 A 
HETATM    8  N11 UNL     1     165.767  50.857  10.927  1.00  0.00    -0.021 N 
ATOM      9  H11 UNL     1     164.870  50.906  10.443  1.00  0.00     0.203 HD
ENDROOT
BRANCH   1  10
HETATM   10  N1  UNL     1     164.743  51.340  12.902  1.00  0.00    -0.212 N 
ATOM     11  H1  UNL     1     164.820  51.963  13.706  1.00  0.00     0.178 HD
BRANCH  10  12
HETATM   12  C2  UNL     1     163.446  50.838  12.582  1.00  0.00     0.187 C 
HETATM   13  C1  UNL     1     162.347  51.853  12.831  1.00  0.00     0.043 C 
BRANCH  12  14
HETATM   14  C9  UNL     1     163.120  49.672  13.463  1.00  0.00     0.241 C 
HETATM   15  O1  UNL     1     163.884  48.688  13.473  1.00  0.00    -0.271 OA
HETATM   16  N12 UNL     1     161.971  49.674  14.279  1.00  0.00    -0.353 N 
ATOM     17  H12 UNL     1     161.354  50.486  14.255  1.00  0.00     0.163 HD
BRANCH  16  18
HETATM   18  C10 UNL     1     161.628  48.565  15.152  1.00  0.00     0.111 C 
HETATM   19  C11 UNL     1     160.134  48.371  15.276  1.00  0.00     0.062 C 
HETATM   20  C12 UNL     1     159.870  48.339  16.768  1.00  0.00     0.216 C 
HETATM   21  C13 UNL     1     160.983  49.203  17.343  1.00  0.00     0.173 C 
HETATM   22  C14 UNL     1     162.163  48.768  16.539  1.00  0.00     0.137 C 
BRANCH  20  23
HETATM   23  N13 UNL     1     159.937  46.975  17.217  1.00  0.00    -0.072 N 
ATOM     24 3H13 UNL     1     159.114  46.434  16.950  1.00  0.00     0.274 HD
ATOM     25 2H13 UNL     1     160.633  46.430  16.709  1.00  0.00     0.274 HD
ATOM     26 1H13 UNL     1     160.096  46.971  18.224  1.00  0.00     0.274 HD
ENDBRANCH  20  23
BRANCH  21  27
HETATM   27  O2  UNL     1     160.680  50.528  17.003  1.00  0.00    -0.391 OA
ATOM     28  H2  UNL     1     161.439  50.872  16.546  1.00  0.00     0.210 HD
ENDBRANCH  21  27
BRANCH  22  29
HETATM   29  N14 UNL     1     162.733  47.522  17.018  1.00  0.00    -0.358 N 
HETATM   30  C15 UNL     1     164.011  47.394  17.067  1.00  0.00     0.197 C 
HETATM   31  N15 UNL     1     164.577  46.199  17.527  1.00  0.00    -0.067 NA
HETATM   32  N16 UNL     1     164.856  48.475  16.652  1.00  0.00    -0.067 NA
ATOM     33  H14 UNL     1     162.125  46.757  17.313  1.00  0.00     0.162 HD
ENDBRANCH  22  29
ENDBRANCH  16  18
ENDBRANCH  12  14
ENDBRANCH  10  12
ENDBRANCH   1  10
BRANCH   4  34
HETATM   34  N3  UNL     1     169.265  50.670  12.854  1.00  0.00    -0.234 N 
ATOM     35  H32 UNL     1     169.376  51.046  13.796  1.00  0.00     0.174 HD
ATOM     36  H31 UNL     1     170.075  50.237  12.410  1.00  0.00     0.174 HD
ENDBRANCH   4  34
BRANCH   7  37
HETATM   37  N5  UNL     1     166.793  50.419   8.980  1.00  0.00    -0.021 N 
ATOM     38  H5  UNL     1     166.576  49.503   8.589  1.00  0.00     0.203 HD
BRANCH  37  39
HETATM   39  C6  UNL     1     166.996  51.550   8.126  1.00  0.00     0.696 A 
HETATM   40  N6  UNL     1     168.165  52.045   7.958  1.00  0.00    -0.207 N 
HETATM   41  C7  UNL     1     168.548  53.158   7.151  1.00  0.00     0.291 A 
ATOM     42  H6  UNL     1     168.920  51.585   8.466  1.00  0.00     0.179 HD
HETATM   43  N7  UNL     1     167.397  53.736   6.517  1.00  0.00    -0.252 N 
HETATM   44  C8  UNL     1     166.118  53.171   6.716  1.00  0.00     0.225 A 
HETATM   45  N9  UNL     1     165.014  53.806   6.025  1.00  0.00    -0.061 NA
HETATM   46  N10 UNL     1     165.896  52.153   7.460  1.00  0.00    -0.162 N 
ATOM     47  H10 UNL     1     164.952  51.784   7.573  1.00  0.00     0.187 HD
BRANCH  43  48
HETATM   48  N8  UNL     1     167.539  54.892   5.678  1.00  0.00    -0.339 N 
ATOM     49  H82 UNL     1     166.804  55.600   5.664  1.00  0.00     0.177 HD
ATOM     50  H81 UNL     1     168.372  55.006   5.099  1.00  0.00     0.177 HD
ENDBRANCH  43  48
ENDBRANCH  37  39
ENDBRANCH   7  37
TORSDOF 11
ENDMDL
MODEL 5
REMARK VINA RESULT: -7.775247873      3.363      5.762
REMARK  11 active torsions:
REMARK  status: ('A' for Active; 'I' for Inactive)
REMARK    1  A    between atoms: C2_2  and  N1_3 
REMARK    2  A    between atoms: C2_2  and  C9_31 
REMARK    3  A    between atoms: N1_3  and  C3_5 
REMARK    4  A    between atoms: C4_8  and  N3_9 
REMARK    5  A    between atoms: C5_14  and  N5_15 
REMARK    6  A    between atoms: N5_15  and  C6_17 
REMARK    7  A    between atoms: N7_21  and  N8_22 
REMARK       I    between atoms: C9_31  and  N12_33 
REMARK    8  A    between atoms: N12_33  and  C10_35 
REMARK    9  A    between atoms: C12_37  and  N13_38 
REMARK   10  A    between atoms: C13_42  and  O2_43 
REMARK   11  A    between atoms: C14_45  and  N14_46 
ROOT
HETATM    1  C3  UNL     1     165.959  51.071  10.708  1.00  0.00     0.708 A 
HETATM    2  N2  UNL     1     164.649  50.766  10.568  1.00  0.00    -0.022 N 
ATOM      3  H2  UNL     1     164.061  50.656  11.394  1.00  0.00     0.203 HD
HETATM    4  C4  UNL     1     164.123  50.607   9.350  1.00  0.00     0.705 A 
HETATM    5  N4  UNL     1     164.943  50.761   8.269  1.00  0.00    -0.021 N 
ATOM      6  H4  UNL     1     164.558  50.642   7.332  1.00  0.00     0.203 HD
HETATM    7  C5  UNL     1     166.235  51.063   8.408  1.00  0.00     0.725 A 
HETATM    8  N11 UNL     1     166.753  51.221   9.637  1.00  0.00    -0.021 N 
ATOM      9  H11 UNL     1     167.739  51.453   9.755  1.00  0.00     0.203 HD
ENDROOT
BRANCH   1  10
HETATM   10  N1  UNL     1     166.472  51.216  11.897  1.00  0.00    -0.212 N 
ATOM     11  H1  UNL     1     167.088  52.015  12.048  1.00  0.00     0.178 HD
BRANCH  10  12
HETATM   12  C2  UNL     1     166.241  50.346  13.005  1.00  0.00     0.187 C 
HETATM   13  C1  UNL     1     166.608  48.906  12.706  1.00  0.00     0.043 C 
BRANCH  12  14
HETATM   14  C9  UNL     1     164.782  50.326  13.338  1.00  0.00     0.241 C 
HETATM   15  O1  UNL     1     164.100  49.332  13.020  1.00  0.00    -0.271 OA
HETATM   16  N12 UNL     1     164.172  51.408  14.005  1.00  0.00    -0.353 N 
ATOM     17  H12 UNL     1     164.744  52.215  14.254  1.00  0.00     0.163 HD
BRANCH  16  18
HETATM   18  C10 UNL     1     162.762  51.420  14.352  1.00  0.00     0.111 C 
HETATM   19  C11 UNL     1     162.218  52.823  14.502  1.00  0.00     0.062 C 
HETATM   20  C12 UNL     1     161.539  52.832  15.857  1.00  0.00     0.216 C 
HETATM   21  C13 UNL     1     162.319  51.796  16.651  1.00  0.00     0.173 C 
HETATM   22  C14 UNL     1     162.505  50.707  15.647  1.00  0.00     0.137 C 
BRANCH  20  23
HETATM   23  N13 UNL     1     160.158  52.474  15.680  1.00  0.00    -0.072 N 
ATOM     24 3H13 UNL     1     159.876  51.695  16.275  1.00  0.00     0.274 HD
ATOM     25 2H13 UNL     1     159.520  53.175  16.056  1.00  0.00     0.274 HD
ATOM     26 1H13 UNL     1     159.994  52.287  14.691  1.00  0.00     0.274 HD
ENDBRANCH  20  23
BRANCH  21  27
HETATM   27  O2  UNL     1     163.571  52.360  16.928  1.00  0.00    -0.391 OA
ATOM     28  H2  UNL     1     163.720  52.248  17.860  1.00  0.00     0.210 HD
ENDBRANCH  21  27
BRANCH  22  29
HETATM   29  N14 UNL     1     161.325  49.873  15.507  1.00  0.00    -0.358 N 
HETATM   30  C15 UNL     1     161.457  48.594  15.504  1.00  0.00     0.197 C 
HETATM   31  N15 UNL     1     160.330  47.775  15.370  1.00  0.00    -0.067 NA
HETATM   32  N16 UNL     1     162.758  48.008  15.638  1.00  0.00    -0.067 NA
ATOM     33  H14 UNL     1     160.402  50.297  15.412  1.00  0.00     0.162 HD
ENDBRANCH  22  29
ENDBRANCH  16  18
ENDBRANCH  12  14
ENDBRANCH  10  12
ENDBRANCH   1  10
BRANCH   4  34
HETATM   34  N3  UNL     1     162.882  50.315   9.215  1.00  0.00    -0.234 N 
ATOM     35  H32 UNL     1     162.462  49.527   9.707  1.00  0.00     0.174 HD
ATOM     36  H31 UNL     1     162.285  50.876   8.607  1.00  0.00     0.174 HD
ENDBRANCH   4  34
BRANCH   7  37
HETATM   37  N5  UNL     1     167.025  51.185   7.411  1.00  0.00    -0.021 N 
ATOM     38  H5  UNL     1     167.335  50.366   6.887  1.00  0.00     0.203 HD
BRANCH  37  39
HETATM   39  C6  UNL     1     167.466  52.496   7.045  1.00  0.00     0.696 A 
HETATM   40  N6  UNL     1     168.714  52.779   6.989  1.00  0.00    -0.207 N 
HETATM   41  C7  UNL     1     169.327  54.020   6.646  1.00  0.00     0.291 A 
ATOM     42  H6  UNL     1     169.353  52.018   7.220  1.00  0.00     0.179 HD
HETATM   43  N7  UNL     1     168.326  55.014   6.376  1.00  0.00    -0.252 N 
HETATM   44  C8  UNL     1     166.956  54.679   6.442  1.00  0.00     0.225 A 
HETATM   45  N9  UNL     1     166.014  55.738   6.137  1.00  0.00    -0.061 NA
HETATM   46  N10 UNL     1     166.521  53.516   6.751  1.00  0.00    -0.162 N 
ATOM     47  H10 UNL     1     165.520  53.325   6.786  1.00  0.00     0.187 HD
BRANCH  43  48
HETATM   48  N8  UNL     1     168.714  56.355   6.038  1.00  0.00    -0.339 N 
ATOM     49  H82 UNL     1     167.997  57.065   5.889  1.00  0.00     0.177 HD
ATOM     50  H81 UNL     1     169.701  56.596   5.949  1.00  0.00     0.177 HD
ENDBRANCH  43  48
ENDBRANCH  37  39
ENDBRANCH   7  37
TORSDOF 11
ENDMDL
