MODEL 1
REMARK VINA RESULT: -7.141901132      0.000      0.000
REMARK  9 active torsions:
REMARK  status: ('A' for Active; 'I' for Inactive)
REMARK    1  A    between atoms: C2_2  and  O1_3 
REMARK    2  A    between atoms: C2_2  and  C3_5 
REMARK    3  A    between atoms: C3_5  and  C4_7 
REMARK    4  A    between atoms: C4_7  and  N1_8 
REMARK    5  A    between atoms: N1_8  and  C5_11 
REMARK    6  A    between atoms: C5_11  and  N2_12 
REMARK    7  A    between atoms: C5_11  and  C6_16 
REMARK    8  A    between atoms: C13_29  and  N5_30 
REMARK    9  A    between atoms: C14_34  and  N6_35 
ROOT
HETATM    1  C6  UNL     1     164.844  50.118  13.894  1.00  0.00     0.136 C 
HETATM    2  C7  UNL     1     166.141  49.367  13.678  1.00  0.00     0.018 C 
HETATM    3  C8  UNL     1     167.261  50.323  14.078  1.00  0.00     0.002 C 
HETATM    4  C9  UNL     1     168.601  49.851  13.617  1.00  0.00     0.027 C 
HETATM    5  C10 UNL     1     169.029  50.688  12.427  1.00  0.00     0.232 C 
HETATM    6  N3  UNL     1     169.082  52.071  12.809  1.00  0.00    -0.074 N 
ATOM      7  H31 UNL     1     169.932  52.264  13.338  1.00  0.00     0.277 HD
ATOM      8  H32 UNL     1     168.384  52.272  13.525  1.00  0.00     0.277 HD
HETATM    9  C11 UNL     1     168.954  52.984  11.714  1.00  0.00     0.259 C 
HETATM   10  C12 UNL     1     169.755  52.574  10.507  1.00  0.00     0.262 C 
HETATM   11  N4  UNL     1     169.456  53.500   9.438  1.00  0.00    -0.041 N 
ATOM     12  H41 UNL     1     169.965  54.376   9.560  1.00  0.00     0.279 HD
ATOM     13  H42 UNL     1     168.502  53.851   9.514  1.00  0.00     0.279 HD
HETATM   14  C13 UNL     1     169.697  52.940   8.133  1.00  0.00     0.429 C 
HETATM   15  C14 UNL     1     168.431  52.761   7.332  1.00  0.00     0.342 C 
HETATM   16  N7  UNL     1     167.751  51.566   7.749  1.00  0.00    -0.329 N 
ATOM     17  H7  UNL     1     168.328  50.780   8.048  1.00  0.00     0.164 HD
HETATM   18  C15 UNL     1     166.345  51.391   7.778  1.00  0.00     0.237 C 
HETATM   19  O3  UNL     1     165.814  50.321   7.368  1.00  0.00    -0.272 OA
HETATM   20  C16 UNL     1     165.387  52.417   8.277  1.00  0.00     0.225 C 
HETATM   21  N8  UNL     1     164.159  51.827   8.767  1.00  0.00    -0.351 N 
ATOM     22  H8  UNL     1     163.299  52.344   8.587  1.00  0.00     0.163 HD
HETATM   23  C17 UNL     1     164.032  50.618   9.461  1.00  0.00     0.235 C 
HETATM   24  O4  UNL     1     163.118  49.802   9.110  1.00  0.00    -0.272 OA
HETATM   25  C18 UNL     1     164.889  50.185  10.602  1.00  0.00     0.225 C 
HETATM   26  N9  UNL     1     165.053  51.230  11.580  1.00  0.00    -0.352 N 
ATOM     27  H9  UNL     1     165.532  52.074  11.268  1.00  0.00     0.162 HD
HETATM   28  C19 UNL     1     164.625  51.209  12.920  1.00  0.00     0.226 C 
HETATM   29  O5  UNL     1     163.983  52.230  13.346  1.00  0.00    -0.273 OA
ENDROOT
BRANCH   1  30
HETATM   30  C5  UNL     1     163.655  49.178  13.998  1.00  0.00     0.393 C 
BRANCH  30  31
HETATM   31  N1  UNL     1     163.787  48.436  15.247  1.00  0.00    -0.039 N 
ATOM     32  H12 UNL     1     164.576  48.740  15.816  1.00  0.00     0.280 HD
ATOM     33  H11 UNL     1     164.090  47.471  15.114  1.00  0.00     0.280 HD
BRANCH  31  34
HETATM   34  C4  UNL     1     162.511  48.547  15.929  1.00  0.00     0.315 C 
BRANCH  34  35
HETATM   35  C3  UNL     1     162.054  47.269  16.489  1.00  0.00     0.180 C 
HETATM   36  O2  UNL     1     162.829  46.381  16.697  1.00  0.00    -0.293 OA
BRANCH  35  37
HETATM   37  C2  UNL     1     160.614  47.084  16.798  1.00  0.00     0.185 C 
HETATM   38  C1  UNL     1     159.807  47.899  15.779  1.00  0.00     0.047 C 
BRANCH  37  39
HETATM   39  O1  UNL     1     160.214  45.757  16.615  1.00  0.00    -0.388 OA
ATOM     40  H1  UNL     1     160.484  45.301  17.403  1.00  0.00     0.210 HD
ENDBRANCH  37  39
ENDBRANCH  35  37
ENDBRANCH  34  35
ENDBRANCH  31  34
ENDBRANCH  30  31
BRANCH  30  41
HETATM   41  N2  UNL     1     162.439  49.935  14.078  1.00  0.00    -0.049 N 
ATOM     42  H23 UNL     1     161.633  49.437  13.701  1.00  0.00     0.276 HD
ATOM     43  H22 UNL     1     162.095  50.038  15.033  1.00  0.00     0.276 HD
ATOM     44  H21 UNL     1     162.608  50.829  13.616  1.00  0.00     0.276 HD
ENDBRANCH  30  41
ENDBRANCH   1  30
BRANCH  14  45
HETATM   45  N5  UNL     1     170.662  53.785   7.451  1.00  0.00    -0.046 N 
ATOM     46  H53 UNL     1     171.135  53.305   6.685  1.00  0.00     0.276 HD
ATOM     47  H52 UNL     1     170.221  54.521   6.899  1.00  0.00     0.276 HD
ATOM     48  H51 UNL     1     171.311  54.150   8.148  1.00  0.00     0.276 HD
ENDBRANCH  14  45
BRANCH  15  49
HETATM   49  N6  UNL     1     167.612  53.947   7.416  1.00  0.00    -0.054 N 
ATOM     50  H63 UNL     1     167.860  54.631   6.700  1.00  0.00     0.276 HD
ATOM     51  H62 UNL     1     166.651  53.767   7.126  1.00  0.00     0.276 HD
ATOM     52  H61 UNL     1     167.658  54.345   8.354  1.00  0.00     0.276 HD
ENDBRANCH  15  49
TORSDOF 9
ENDMDL
MODEL 2
REMARK VINA RESULT: -7.100127587      2.943      9.373
REMARK  9 active torsions:
REMARK  status: ('A' for Active; 'I' for Inactive)
REMARK    1  A    between atoms: C2_2  and  O1_3 
REMARK    2  A    between atoms: C2_2  and  C3_5 
REMARK    3  A    between atoms: C3_5  and  C4_7 
REMARK    4  A    between atoms: C4_7  and  N1_8 
REMARK    5  A    between atoms: N1_8  and  C5_11 
REMARK    6  A    between atoms: C5_11  and  N2_12 
REMARK    7  A    between atoms: C5_11  and  C6_16 
REMARK    8  A    between atoms: C13_29  and  N5_30 
REMARK    9  A    between atoms: C14_34  and  N6_35 
ROOT
HETATM    1  C6  UNL     1     165.826  49.832  13.387  1.00  0.00     0.136 C 
HETATM    2  C7  UNL     1     166.177  50.344  14.768  1.00  0.00     0.018 C 
HETATM    3  C8  UNL     1     166.764  49.159  15.529  1.00  0.00     0.002 C 
HETATM    4  C9  UNL     1     166.857  49.417  16.996  1.00  0.00     0.027 C 
HETATM    5  C10 UNL     1     165.756  48.643  17.697  1.00  0.00     0.232 C 
HETATM    6  N3  UNL     1     165.903  47.243  17.417  1.00  0.00    -0.074 N 
ATOM      7  H31 UNL     1     166.645  46.839  17.989  1.00  0.00     0.277 HD
ATOM      8  H32 UNL     1     166.305  47.103  16.490  1.00  0.00     0.277 HD
HETATM    9  C11 UNL     1     164.693  46.490  17.559  1.00  0.00     0.259 C 
HETATM   10  C12 UNL     1     163.904  46.866  18.785  1.00  0.00     0.262 C 
HETATM   11  N4  UNL     1     162.661  46.130  18.758  1.00  0.00    -0.041 N 
ATOM     12  H41 UNL     1     162.799  45.166  19.062  1.00  0.00     0.279 HD
ATOM     13  H42 UNL     1     162.358  45.958  17.799  1.00  0.00     0.279 HD
HETATM   14  C13 UNL     1     161.619  46.769  19.521  1.00  0.00     0.429 C 
HETATM   15  C14 UNL     1     160.484  47.264  18.659  1.00  0.00     0.342 C 
HETATM   16  N7  UNL     1     160.842  48.515  18.050  1.00  0.00    -0.329 N 
ATOM     17  H7  UNL     1     161.439  49.144  18.587  1.00  0.00     0.164 HD
HETATM   18  C15 UNL     1     160.431  48.947  16.764  1.00  0.00     0.237 C 
HETATM   19  O3  UNL     1     160.049  50.134  16.568  1.00  0.00    -0.272 OA
HETATM   20  C16 UNL     1     160.411  48.072  15.557  1.00  0.00     0.225 C 
HETATM   21  N8  UNL     1     160.555  48.828  14.331  1.00  0.00    -0.351 N 
ATOM     22  H8  UNL     1     160.019  48.503  13.527  1.00  0.00     0.163 HD
HETATM   23  C17 UNL     1     161.355  49.960  14.136  1.00  0.00     0.235 C 
HETATM   24  O4  UNL     1     160.860  50.965  13.530  1.00  0.00    -0.272 OA
HETATM   25  C18 UNL     1     162.770  50.103  14.585  1.00  0.00     0.225 C 
HETATM   26  N9  UNL     1     163.564  48.949  14.245  1.00  0.00    -0.352 N 
ATOM     27  H9  UNL     1     163.294  48.067  14.680  1.00  0.00     0.162 HD
HETATM   28  C19 UNL     1     164.670  48.910  13.378  1.00  0.00     0.226 C 
HETATM   29  O5  UNL     1     164.686  47.988  12.490  1.00  0.00    -0.273 OA
ENDROOT
BRANCH   1  30
HETATM   30  C5  UNL     1     165.682  50.962  12.383  1.00  0.00     0.393 C 
BRANCH  30  31
HETATM   31  N1  UNL     1     166.880  50.968  11.549  1.00  0.00    -0.039 N 
ATOM     32  H12 UNL     1     167.733  50.757  12.066  1.00  0.00     0.280 HD
ATOM     33  H11 UNL     1     167.149  51.900  11.234  1.00  0.00     0.280 HD
BRANCH  31  34
HETATM   34  C4  UNL     1     166.627  50.045  10.458  1.00  0.00     0.315 C 
BRANCH  34  35
HETATM   35  C3  UNL     1     167.195  50.503   9.184  1.00  0.00     0.180 C 
HETATM   36  O2  UNL     1     168.370  50.702   9.077  1.00  0.00    -0.293 OA
BRANCH  35  37
HETATM   37  C2  UNL     1     166.296  50.720   8.024  1.00  0.00     0.185 C 
HETATM   38  C1  UNL     1     165.491  51.999   8.285  1.00  0.00     0.047 C 
BRANCH  37  39
HETATM   39  O1  UNL     1     167.017  50.965   6.852  1.00  0.00    -0.388 OA
ATOM     40  H1  UNL     1     166.412  50.787   6.141  1.00  0.00     0.210 HD
ENDBRANCH  37  39
ENDBRANCH  35  37
ENDBRANCH  34  35
ENDBRANCH  31  34
ENDBRANCH  30  31
BRANCH  30  41
HETATM   41  N2  UNL     1     164.564  50.710  11.520  1.00  0.00    -0.049 N 
ATOM     42  H23 UNL     1     164.476  49.728  11.257  1.00  0.00     0.276 HD
ATOM     43  H22 UNL     1     163.665  50.800  11.994  1.00  0.00     0.276 HD
ATOM     44  H21 UNL     1     164.654  51.331  10.716  1.00  0.00     0.276 HD
ENDBRANCH  30  41
ENDBRANCH   1  30
BRANCH  14  45
HETATM   45  N5  UNL     1     161.167  45.833  20.537  1.00  0.00    -0.046 N 
ATOM     46  H53 UNL     1     160.963  44.908  20.158  1.00  0.00     0.276 HD
ATOM     47  H52 UNL     1     161.911  45.557  21.179  1.00  0.00     0.276 HD
ATOM     48  H51 UNL     1     160.367  46.248  21.015  1.00  0.00     0.276 HD
ENDBRANCH  14  45
BRANCH  15  49
HETATM   49  N6  UNL     1     160.098  46.251  17.707  1.00  0.00    -0.054 N 
ATOM     50  H63 UNL     1     159.157  46.408  17.345  1.00  0.00     0.276 HD
ATOM     51  H62 UNL     1     160.612  46.336  16.830  1.00  0.00     0.276 HD
ATOM     52  H61 UNL     1     160.197  45.322  18.116  1.00  0.00     0.276 HD
ENDBRANCH  15  49
TORSDOF 9
ENDMDL
MODEL 3
REMARK VINA RESULT: -7.045058876      2.977      9.199
REMARK  9 active torsions:
REMARK  status: ('A' for Active; 'I' for Inactive)
REMARK    1  A    between atoms: C2_2  and  O1_3 
REMARK    2  A    between atoms: C2_2  and  C3_5 
REMARK    3  A    between atoms: C3_5  and  C4_7 
REMARK    4  A    between atoms: C4_7  and  N1_8 
REMARK    5  A    between atoms: N1_8  and  C5_11 
REMARK    6  A    between atoms: C5_11  and  N2_12 
REMARK    7  A    between atoms: C5_11  and  C6_16 
REMARK    8  A    between atoms: C13_29  and  N5_30 
REMARK    9  A    between atoms: C14_34  and  N6_35 
ROOT
HETATM    1  C6  UNL     1     165.910  49.927  12.884  1.00  0.00     0.136 C 
HETATM    2  C7  UNL     1     166.340  50.577  14.182  1.00  0.00     0.018 C 
HETATM    3  C8  UNL     1     166.971  49.472  15.025  1.00  0.00     0.002 C 
HETATM    4  C9  UNL     1     167.148  49.879  16.451  1.00  0.00     0.027 C 
HETATM    5  C10 UNL     1     166.091  49.186  17.289  1.00  0.00     0.232 C 
HETATM    6  N3  UNL     1     166.223  47.764  17.146  1.00  0.00    -0.074 N 
ATOM      7  H31 UNL     1     166.997  47.417  17.713  1.00  0.00     0.277 HD
ATOM      8  H32 UNL     1     166.570  47.528  16.217  1.00  0.00     0.277 HD
HETATM    9  C11 UNL     1     165.024  47.035  17.434  1.00  0.00     0.259 C 
HETATM   10  C12 UNL     1     164.307  47.538  18.658  1.00  0.00     0.262 C 
HETATM   11  N4  UNL     1     163.065  46.810  18.778  1.00  0.00    -0.041 N 
ATOM     12  H41 UNL     1     163.222  45.881  19.172  1.00  0.00     0.279 HD
ATOM     13  H42 UNL     1     162.707  46.542  17.862  1.00  0.00     0.279 HD
HETATM   14  C13 UNL     1     162.069  47.528  19.531  1.00  0.00     0.429 C 
HETATM   15  C14 UNL     1     160.885  47.938  18.690  1.00  0.00     0.342 C 
HETATM   16  N7  UNL     1     161.205  49.119  17.936  1.00  0.00    -0.329 N 
ATOM     17  H7  UNL     1     161.832  49.796  18.371  1.00  0.00     0.164 HD
HETATM   18  C15 UNL     1     160.721  49.419  16.639  1.00  0.00     0.237 C 
HETATM   19  O3  UNL     1     160.327  50.582  16.345  1.00  0.00    -0.272 OA
HETATM   20  C16 UNL     1     160.631  48.426  15.531  1.00  0.00     0.225 C 
HETATM   21  N8  UNL     1     160.704  49.052  14.228  1.00  0.00    -0.351 N 
ATOM     22  H8  UNL     1     160.122  48.648  13.494  1.00  0.00     0.163 HD
HETATM   23  C17 UNL     1     161.490  50.153  13.873  1.00  0.00     0.235 C 
HETATM   24  O4  UNL     1     160.959  51.093  13.196  1.00  0.00    -0.272 OA
HETATM   25  C18 UNL     1     162.928  50.334  14.222  1.00  0.00     0.225 C 
HETATM   26  N9  UNL     1     163.702  49.148  13.957  1.00  0.00    -0.352 N 
ATOM     27  H9  UNL     1     163.459  48.317  14.494  1.00  0.00     0.162 HD
HETATM   28  C19 UNL     1     164.756  49.015  13.035  1.00  0.00     0.226 C 
HETATM   29  O5  UNL     1     164.722  48.008  12.247  1.00  0.00    -0.273 OA
ENDROOT
BRANCH   1  30
HETATM   30  C5  UNL     1     165.707  50.950  11.779  1.00  0.00     0.393 C 
BRANCH  30  31
HETATM   31  N1  UNL     1     166.025  50.301  10.512  1.00  0.00    -0.039 N 
ATOM     32  H12 UNL     1     165.323  49.623  10.217  1.00  0.00     0.280 HD
ATOM     33  H11 UNL     1     166.809  49.651  10.577  1.00  0.00     0.280 HD
BRANCH  31  34
HETATM   34  C4  UNL     1     166.239  51.363   9.547  1.00  0.00     0.315 C 
BRANCH  34  35
HETATM   35  C3  UNL     1     165.321  51.284   8.403  1.00  0.00     0.180 C 
HETATM   36  O2  UNL     1     164.166  51.016   8.566  1.00  0.00    -0.293 OA
BRANCH  35  37
HETATM   37  C2  UNL     1     165.838  51.540   7.037  1.00  0.00     0.185 C 
HETATM   38  C1  UNL     1     166.049  53.053   6.890  1.00  0.00     0.047 C 
BRANCH  37  39
HETATM   39  O1  UNL     1     167.100  50.968   6.847  1.00  0.00    -0.388 OA
ATOM     40  H1  UNL     1     166.935  50.059   6.627  1.00  0.00     0.210 HD
ENDBRANCH  37  39
ENDBRANCH  35  37
ENDBRANCH  34  35
ENDBRANCH  31  34
ENDBRANCH  30  31
BRANCH  30  41
HETATM   41  N2  UNL     1     164.327  51.341  11.722  1.00  0.00    -0.049 N 
ATOM     42  H23 UNL     1     164.136  52.024  10.990  1.00  0.00     0.276 HD
ATOM     43  H22 UNL     1     163.717  50.600  11.375  1.00  0.00     0.276 HD
ATOM     44  H21 UNL     1     164.067  51.669  12.652  1.00  0.00     0.276 HD
ENDBRANCH  30  41
ENDBRANCH   1  30
BRANCH  14  45
HETATM   45  N5  UNL     1     161.677  46.703  20.662  1.00  0.00    -0.046 N 
ATOM     46  H53 UNL     1     162.465  46.208  21.080  1.00  0.00     0.276 HD
ATOM     47  H52 UNL     1     161.412  47.253  21.479  1.00  0.00     0.276 HD
ATOM     48  H51 UNL     1     160.936  46.074  20.352  1.00  0.00     0.276 HD
ENDBRANCH  14  45
BRANCH  15  49
HETATM   49  N6  UNL     1     160.445  46.835  17.870  1.00  0.00    -0.054 N 
ATOM     50  H63 UNL     1     160.665  46.981  16.885  1.00  0.00     0.276 HD
ATOM     51  H62 UNL     1     161.006  45.997  18.027  1.00  0.00     0.276 HD
ATOM     52  H61 UNL     1     159.451  46.658  18.016  1.00  0.00     0.276 HD
ENDBRANCH  15  49
TORSDOF 9
ENDMDL
MODEL 4
REMARK VINA RESULT: -6.969842740      2.944      8.830
REMARK  9 active torsions:
REMARK  status: ('A' for Active; 'I' for Inactive)
REMARK    1  A    between atoms: C2_2  and  O1_3 
REMARK    2  A    between atoms: C2_2  and  C3_5 
REMARK    3  A    between atoms: C3_5  and  C4_7 
REMARK    4  A    between atoms: C4_7  and  N1_8 
REMARK    5  A    between atoms: N1_8  and  C5_11 
REMARK    6  A    between atoms: C5_11  and  N2_12 
REMARK    7  A    between atoms: C5_11  and  C6_16 
REMARK    8  A    between atoms: C13_29  and  N5_30 
REMARK    9  A    between atoms: C14_34  and  N6_35 
ROOT
HETATM    1  C6  UNL     1     165.884  50.044  11.667  1.00  0.00     0.136 C 
HETATM    2  C7  UNL     1     166.444  51.071  12.628  1.00  0.00     0.018 C 
HETATM    3  C8  UNL     1     167.249  50.293  13.665  1.00  0.00     0.002 C 
HETATM    4  C9  UNL     1     167.592  51.125  14.857  1.00  0.00     0.027 C 
HETATM    5  C10 UNL     1     166.701  50.710  16.012  1.00  0.00     0.232 C 
HETATM    6  N3  UNL     1     166.898  49.316  16.292  1.00  0.00    -0.074 N 
ATOM      7  H31 UNL     1     167.761  49.175  16.817  1.00  0.00     0.277 HD
ATOM      8  H32 UNL     1     167.131  48.809  15.439  1.00  0.00     0.277 HD
HETATM    9  C11 UNL     1     165.796  48.693  16.961  1.00  0.00     0.259 C 
HETATM   10  C12 UNL     1     165.221  49.540  18.065  1.00  0.00     0.262 C 
HETATM   11  N4  UNL     1     164.053  48.865  18.582  1.00  0.00    -0.041 N 
ATOM     12  H41 UNL     1     164.318  48.107  19.212  1.00  0.00     0.279 HD
ATOM     13  H42 UNL     1     163.592  48.320  17.854  1.00  0.00     0.279 HD
HETATM   14  C13 UNL     1     163.125  49.765  19.218  1.00  0.00     0.429 C 
HETATM   15  C14 UNL     1     161.816  49.874  18.475  1.00  0.00     0.342 C 
HETATM   16  N7  UNL     1     161.960  50.768  17.359  1.00  0.00    -0.329 N 
ATOM     17  H7  UNL     1     162.597  51.556  17.469  1.00  0.00     0.164 HD
HETATM   18  C15 UNL     1     161.288  50.642  16.118  1.00  0.00     0.237 C 
HETATM   19  O3  UNL     1     160.788  51.650  15.544  1.00  0.00    -0.272 OA
HETATM   20  C16 UNL     1     161.111  49.353  15.391  1.00  0.00     0.225 C 
HETATM   21  N8  UNL     1     160.969  49.545  13.964  1.00  0.00    -0.351 N 
ATOM     22  H8  UNL     1     160.320  48.924  13.481  1.00  0.00     0.163 HD
HETATM   23  C17 UNL     1     161.632  50.494  13.178  1.00  0.00     0.235 C 
HETATM   24  O4  UNL     1     160.958  51.169  12.332  1.00  0.00    -0.272 OA
HETATM   25  C18 UNL     1     163.090  50.798  13.240  1.00  0.00     0.225 C 
HETATM   26  N9  UNL     1     163.892  49.601  13.238  1.00  0.00    -0.352 N 
ATOM     27  H9  UNL     1     163.774  48.973  14.034  1.00  0.00     0.162 HD
HETATM   28  C19 UNL     1     164.819  49.205  12.257  1.00  0.00     0.226 C 
HETATM   29  O5  UNL     1     164.740  48.002  11.828  1.00  0.00    -0.273 OA
ENDROOT
BRANCH   1  30
HETATM   30  C5  UNL     1     165.472  50.670  10.345  1.00  0.00     0.393 C 
BRANCH  30  31
HETATM   31  N1  UNL     1     166.436  50.245   9.336  1.00  0.00    -0.039 N 
ATOM     32  H12 UNL     1     166.081  49.512   8.722  1.00  0.00     0.280 HD
ATOM     33  H11 UNL     1     167.220  49.718   9.722  1.00  0.00     0.280 HD
BRANCH  31  34
HETATM   34  C4  UNL     1     166.844  51.442   8.626  1.00  0.00     0.315 C 
BRANCH  34  35
HETATM   35  C3  UNL     1     165.999  51.724   7.457  1.00  0.00     0.180 C 
HETATM   36  O2  UNL     1     165.404  50.843   6.908  1.00  0.00    -0.293 OA
BRANCH  35  37
HETATM   37  C2  UNL     1     165.890  53.117   6.960  1.00  0.00     0.185 C 
HETATM   38  C1  UNL     1     167.310  53.648   6.730  1.00  0.00     0.047 C 
BRANCH  37  39
HETATM   39  O1  UNL     1     165.264  53.171   5.712  1.00  0.00    -0.388 OA
ATOM     40  H1  UNL     1     165.327  54.078   5.436  1.00  0.00     0.210 HD
ENDBRANCH  37  39
ENDBRANCH  35  37
ENDBRANCH  34  35
ENDBRANCH  31  34
ENDBRANCH  30  31
BRANCH  30  41
HETATM   41  N2  UNL     1     164.188  50.168   9.946  1.00  0.00    -0.049 N 
ATOM     42  H23 UNL     1     164.172  49.834   8.983  1.00  0.00     0.276 HD
ATOM     43  H22 UNL     1     163.947  49.285  10.397  1.00  0.00     0.276 HD
ATOM     44  H21 UNL     1     163.506  50.905  10.124  1.00  0.00     0.276 HD
ENDBRANCH  30  41
ENDBRANCH   1  30
BRANCH  14  45
HETATM   45  N5  UNL     1     162.940  49.326  20.591  1.00  0.00    -0.046 N 
ATOM     46  H53 UNL     1     162.061  49.649  20.993  1.00  0.00     0.276 HD
ATOM     47  H52 UNL     1     162.764  48.323  20.664  1.00  0.00     0.276 HD
ATOM     48  H51 UNL     1     163.753  49.623  21.130  1.00  0.00     0.276 HD
ENDBRANCH  14  45
BRANCH  15  49
HETATM   49  N6  UNL     1     161.338  48.564  18.105  1.00  0.00    -0.054 N 
ATOM     50  H63 UNL     1     160.989  48.544  17.147  1.00  0.00     0.276 HD
ATOM     51  H62 UNL     1     162.102  47.896  18.001  1.00  0.00     0.276 HD
ATOM     52  H61 UNL     1     160.638  48.240  18.772  1.00  0.00     0.276 HD
ENDBRANCH  15  49
TORSDOF 9
ENDMDL
MODEL 5
REMARK VINA RESULT: -6.936324782      2.960      8.699
REMARK  9 active torsions:
REMARK  status: ('A' for Active; 'I' for Inactive)
REMARK    1  A    between atoms: C2_2  and  O1_3 
REMARK    2  A    between atoms: C2_2  and  C3_5 
REMARK    3  A    between atoms: C3_5  and  C4_7 
REMARK    4  A    between atoms: C4_7  and  N1_8 
REMARK    5  A    between atoms: N1_8  and  C5_11 
REMARK    6  A    between atoms: C5_11  and  N2_12 
REMARK    7  A    between atoms: C5_11  and  C6_16 
REMARK    8  A    between atoms: C13_29  and  N5_30 
REMARK    9  A    between atoms: C14_34  and  N6_35 
ROOT
HETATM    1  C6  UNL     1     166.742  49.179  12.731  1.00  0.00     0.136 C 
HETATM    2  C7  UNL     1     167.189  49.857  14.009  1.00  0.00     0.018 C 
HETATM    3  C8  UNL     1     167.327  48.753  15.053  1.00  0.00     0.002 C 
HETATM    4  C9  UNL     1     167.444  49.295  16.439  1.00  0.00     0.027 C 
HETATM    5  C10 UNL     1     166.126  49.081  17.158  1.00  0.00     0.232 C 
HETATM    6  N3  UNL     1     165.818  47.680  17.186  1.00  0.00    -0.074 N 
ATOM      7  H31 UNL     1     166.365  47.207  17.905  1.00  0.00     0.277 HD
ATOM      8  H32 UNL     1     166.186  47.215  16.356  1.00  0.00     0.277 HD
HETATM    9  C11 UNL     1     164.424  47.392  17.345  1.00  0.00     0.259 C 
HETATM   10  C12 UNL     1     163.755  48.262  18.376  1.00  0.00     0.262 C 
HETATM   11  N4  UNL     1     162.342  47.963  18.363  1.00  0.00    -0.041 N 
ATOM     12  H41 UNL     1     162.147  47.099  18.870  1.00  0.00     0.279 HD
ATOM     13  H42 UNL     1     162.036  47.680  17.433  1.00  0.00     0.279 HD
HETATM   14  C13 UNL     1     161.539  49.048  18.864  1.00  0.00     0.429 C 
HETATM   15  C14 UNL     1     160.661  49.662  17.801  1.00  0.00     0.342 C 
HETATM   16  N7  UNL     1     161.430  50.568  16.993  1.00  0.00    -0.329 N 
ATOM     17  H7  UNL     1     162.179  51.085  17.454  1.00  0.00     0.164 HD
HETATM   18  C15 UNL     1     161.232  50.803  15.610  1.00  0.00     0.237 C 
HETATM   19  O3  UNL     1     161.266  51.973  15.137  1.00  0.00    -0.272 OA
HETATM   20  C16 UNL     1     160.972  49.728  14.611  1.00  0.00     0.225 C 
HETATM   21  N8  UNL     1     161.401  50.103  13.280  1.00  0.00    -0.351 N 
ATOM     22  H8  UNL     1     160.818  49.786  12.505  1.00  0.00     0.163 HD
HETATM   23  C17 UNL     1     162.533  50.855  12.948  1.00  0.00     0.235 C 
HETATM   24  O4  UNL     1     162.417  51.799  12.100  1.00  0.00    -0.272 OA
HETATM   25  C18 UNL     1     163.900  50.650  13.510  1.00  0.00     0.225 C 
HETATM   26  N9  UNL     1     164.285  49.261  13.499  1.00  0.00    -0.352 N 
ATOM     27  H9  UNL     1     163.726  48.629  14.071  1.00  0.00     0.162 HD
HETATM   28  C19 UNL     1     165.349  48.685  12.783  1.00  0.00     0.226 C 
HETATM   29  O5  UNL     1     165.096  47.628  12.107  1.00  0.00    -0.273 OA
ENDROOT
BRANCH   1  30
HETATM   30  C5  UNL     1     167.013  50.040  11.508  1.00  0.00     0.393 C 
BRANCH  30  31
HETATM   31  N1  UNL     1     165.920  49.825  10.566  1.00  0.00    -0.039 N 
ATOM     32  H12 UNL     1     165.127  49.330  10.973  1.00  0.00     0.280 HD
ATOM     33  H11 UNL     1     166.139  49.141   9.842  1.00  0.00     0.280 HD
BRANCH  31  34
HETATM   34  C4  UNL     1     165.571  51.129  10.036  1.00  0.00     0.315 C 
BRANCH  34  35
HETATM   35  C3  UNL     1     165.137  51.075   8.634  1.00  0.00     0.180 C 
HETATM   36  O2  UNL     1     163.975  51.003   8.357  1.00  0.00    -0.293 OA
BRANCH  35  37
HETATM   37  C2  UNL     1     166.157  51.111   7.556  1.00  0.00     0.185 C 
HETATM   38  C1  UNL     1     166.446  52.582   7.232  1.00  0.00     0.047 C 
BRANCH  37  39
HETATM   39  O1  UNL     1     167.376  50.576   7.982  1.00  0.00    -0.388 OA
ATOM     40  H1  UNL     1     167.463  49.749   7.523  1.00  0.00     0.210 HD
ENDBRANCH  37  39
ENDBRANCH  35  37
ENDBRANCH  34  35
ENDBRANCH  31  34
ENDBRANCH  30  31
BRANCH  30  41
HETATM   41  N2  UNL     1     166.994  51.427  11.874  1.00  0.00    -0.049 N 
ATOM     42  H23 UNL     1     167.625  51.997  11.310  1.00  0.00     0.276 HD
ATOM     43  H22 UNL     1     166.126  51.896  11.616  1.00  0.00     0.276 HD
ATOM     44  H21 UNL     1     167.194  51.480  12.873  1.00  0.00     0.276 HD
ENDBRANCH  30  41
ENDBRANCH   1  30
BRANCH  14  45
HETATM   45  N5  UNL     1     160.768  48.555  19.993  1.00  0.00    -0.046 N 
ATOM     46  H53 UNL     1     160.498  47.577  19.889  1.00  0.00     0.276 HD
ATOM     47  H52 UNL     1     161.328  48.454  20.839  1.00  0.00     0.276 HD
ATOM     48  H51 UNL     1     159.967  49.174  20.122  1.00  0.00     0.276 HD
ENDBRANCH  14  45
BRANCH  15  49
HETATM   49  N6  UNL     1     160.000  48.631  17.038  1.00  0.00    -0.054 N 
ATOM     50  H63 UNL     1     160.006  47.735  17.525  1.00  0.00     0.276 HD
ATOM     51  H62 UNL     1     158.991  48.775  16.998  1.00  0.00     0.276 HD
ATOM     52  H61 UNL     1     160.411  48.560  16.106  1.00  0.00     0.276 HD
ENDBRANCH  15  49
TORSDOF 9
ENDMDL
