MODEL 1
REMARK VINA RESULT: -6.571357565      0.000      0.000
REMARK  8 active torsions:
REMARK  status: ('A' for Active; 'I' for Inactive)
REMARK    1  A    between atoms: N1_1  and  C1_5 
REMARK    2  A    between atoms: C1_5  and  C2_6 
REMARK    3  A    between atoms: C2_6  and  C3_7 
REMARK    4  A    between atoms: C3_7  and  C4_8 
REMARK    5  A    between atoms: C7_14  and  C8_15 
REMARK    6  A    between atoms: C8_15  and  N3_16 
REMARK    7  A    between atoms: C15_38  and  C16_39 
REMARK    8  A    between atoms: C16_39  and  N10_40 
ROOT
HETATM    1  C4  UNL     1     167.409  50.789  11.530  1.00  0.00     0.169 C 
HETATM    2  N2  UNL     1     166.108  51.327  11.766  1.00  0.00    -0.407 N 
ATOM      3  H2  UNL     1     165.918  51.988  12.520  1.00  0.00     0.154 HD
HETATM    4  C5  UNL     1     165.089  50.872  10.868  1.00  0.00     0.141 C 
HETATM    5  C6  UNL     1     163.750  51.340  11.399  1.00  0.00     0.188 C 
HETATM    6  O1  UNL     1     163.739  51.148  12.756  1.00  0.00    -0.373 OA
HETATM    7  C7  UNL     1     162.842  52.001  13.416  1.00  0.00     0.238 C 
HETATM    8  C9  UNL     1     163.086  52.102  14.864  1.00  0.00     0.249 C 
HETATM    9  O2  UNL     1     164.081  52.884  15.142  1.00  0.00    -0.271 OA
HETATM   10  N4  UNL     1     162.442  51.515  15.944  1.00  0.00    -0.336 N 
ATOM     11  H4  UNL     1     162.023  52.182  16.592  1.00  0.00     0.164 HD
HETATM   12  C10 UNL     1     162.257  50.144  16.317  1.00  0.00     0.236 C 
HETATM   13  N5  UNL     1     161.030  49.547  15.847  1.00  0.00    -0.101 NA
HETATM   14  N6  UNL     1     161.279  48.191  15.811  1.00  0.00    -0.036 NA
HETATM   15  N7  UNL     1     162.610  47.994  15.534  1.00  0.00    -0.101 NA
HETATM   16  C11 UNL     1     163.330  49.190  15.917  1.00  0.00     0.236 C 
HETATM   17  N8  UNL     1     164.199  48.865  17.038  1.00  0.00    -0.337 N 
ATOM     18  H8  UNL     1     163.813  48.949  17.978  1.00  0.00     0.164 HD
HETATM   19  C12 UNL     1     165.540  48.441  16.913  1.00  0.00     0.236 C 
HETATM   20  O3  UNL     1     165.968  47.618  17.764  1.00  0.00    -0.272 OA
HETATM   21  C13 UNL     1     166.472  48.895  15.857  1.00  0.00     0.225 C 
HETATM   22  N9  UNL     1     166.887  50.281  16.126  1.00  0.00    -0.350 N 
ATOM     23  H9  UNL     1     166.615  50.727  17.002  1.00  0.00     0.163 HD
HETATM   24  C14 UNL     1     167.660  51.004  15.184  1.00  0.00     0.242 C 
HETATM   25  O4  UNL     1     167.421  52.233  15.069  1.00  0.00    -0.271 OA
HETATM   26  C15 UNL     1     168.716  50.421  14.337  1.00  0.00     0.202 C 
HETATM   27  N11 UNL     1     168.276  49.361  13.484  1.00  0.00    -0.344 N 
ATOM     28  H11 UNL     1     168.517  48.410  13.759  1.00  0.00     0.163 HD
HETATM   29  C17 UNL     1     167.535  49.522  12.293  1.00  0.00     0.240 C 
HETATM   30  O5  UNL     1     166.932  48.520  11.834  1.00  0.00    -0.271 OA
ENDROOT
BRANCH   1  31
HETATM   31  C3  UNL     1     167.583  50.562  10.038  1.00  0.00     0.036 C 
BRANCH  31  32
HETATM   32  C2  UNL     1     168.231  51.807   9.456  1.00  0.00     0.030 C 
BRANCH  32  33
HETATM   33  C1  UNL     1     167.594  52.191   8.140  1.00  0.00     0.230 C 
BRANCH  33  34
HETATM   34  N1  UNL     1     167.081  51.054   7.419  1.00  0.00    -0.079 N 
ATOM     35  H13 UNL     1     166.201  50.733   7.821  1.00  0.00     0.274 HD
ATOM     36  H12 UNL     1     166.750  51.326   6.493  1.00  0.00     0.274 HD
ATOM     37  H11 UNL     1     167.755  50.291   7.357  1.00  0.00     0.274 HD
ENDBRANCH  33  34
ENDBRANCH  32  33
ENDBRANCH  31  32
ENDBRANCH   1  31
BRANCH  26  38
HETATM   38  C16 UNL     1     169.889  49.917  15.191  1.00  0.00     0.264 C 
BRANCH  38  39
HETATM   39  N10 UNL     1     170.320  50.943  16.116  1.00  0.00    -0.077 N 
ATOM     40 3H10 UNL     1     169.573  51.217  16.753  1.00  0.00     0.274 HD
ATOM     41 2H10 UNL     1     170.981  50.582  16.803  1.00  0.00     0.274 HD
ATOM     42 1H10 UNL     1     170.699  51.744  15.609  1.00  0.00     0.274 HD
ENDBRANCH  38  39
ENDBRANCH  26  38
BRANCH   7  43
HETATM   43  C8  UNL     1     161.465  51.615  12.997  1.00  0.00     0.271 C 
BRANCH  43  44
HETATM   44  N3  UNL     1     161.247  50.178  13.025  1.00  0.00    -0.076 N 
ATOM     45  H33 UNL     1     160.646  49.886  12.254  1.00  0.00     0.274 HD
ATOM     46  H32 UNL     1     162.098  49.675  12.772  1.00  0.00     0.274 HD
ATOM     47  H31 UNL     1     160.880  49.849  13.918  1.00  0.00     0.274 HD
ENDBRANCH  43  44
ENDBRANCH   7  43
TORSDOF 8
ENDMDL
MODEL 2
REMARK VINA RESULT: -6.312867727      1.045      1.100
REMARK  8 active torsions:
REMARK  status: ('A' for Active; 'I' for Inactive)
REMARK    1  A    between atoms: N1_1  and  C1_5 
REMARK    2  A    between atoms: C1_5  and  C2_6 
REMARK    3  A    between atoms: C2_6  and  C3_7 
REMARK    4  A    between atoms: C3_7  and  C4_8 
REMARK    5  A    between atoms: C7_14  and  C8_15 
REMARK    6  A    between atoms: C8_15  and  N3_16 
REMARK    7  A    between atoms: C15_38  and  C16_39 
REMARK    8  A    between atoms: C16_39  and  N10_40 
ROOT
HETATM    1  C4  UNL     1     166.553  50.981  11.713  1.00  0.00     0.169 C 
HETATM    2  N2  UNL     1     165.269  51.265  12.268  1.00  0.00    -0.407 N 
ATOM      3  H2  UNL     1     165.151  51.820  13.116  1.00  0.00     0.154 HD
HETATM    4  C5  UNL     1     164.159  50.716  11.548  1.00  0.00     0.141 C 
HETATM    5  C6  UNL     1     162.914  50.901  12.390  1.00  0.00     0.188 C 
HETATM    6  O1  UNL     1     163.229  50.600  13.689  1.00  0.00    -0.373 OA
HETATM    7  C7  UNL     1     162.380  51.230  14.612  1.00  0.00     0.238 C 
HETATM    8  C9  UNL     1     162.916  51.253  15.982  1.00  0.00     0.249 C 
HETATM    9  O2  UNL     1     163.818  52.170  16.142  1.00  0.00    -0.271 OA
HETATM   10  N4  UNL     1     162.620  50.478  17.094  1.00  0.00    -0.336 N 
ATOM     11  H4  UNL     1     162.257  51.008  17.887  1.00  0.00     0.164 HD
HETATM   12  C10 UNL     1     162.730  49.070  17.335  1.00  0.00     0.236 C 
HETATM   13  N5  UNL     1     161.535  48.311  17.057  1.00  0.00    -0.101 NA
HETATM   14  N6  UNL     1     161.972  47.026  16.814  1.00  0.00    -0.036 NA
HETATM   15  N7  UNL     1     163.225  47.084  16.252  1.00  0.00    -0.101 NA
HETATM   16  C11 UNL     1     163.822  48.352  16.619  1.00  0.00     0.236 C 
HETATM   17  N8  UNL     1     164.954  48.091  17.495  1.00  0.00    -0.337 N 
ATOM     18  H8  UNL     1     164.774  48.030  18.497  1.00  0.00     0.164 HD
HETATM   19  C12 UNL     1     166.284  47.916  17.053  1.00  0.00     0.236 C 
HETATM   20  O3  UNL     1     167.006  47.113  17.699  1.00  0.00    -0.272 OA
HETATM   21  C13 UNL     1     166.882  48.608  15.890  1.00  0.00     0.225 C 
HETATM   22  N9  UNL     1     167.132  50.018  16.228  1.00  0.00    -0.350 N 
ATOM     23  H9  UNL     1     166.994  50.338  17.186  1.00  0.00     0.163 HD
HETATM   24  C14 UNL     1     167.561  50.938  15.240  1.00  0.00     0.242 C 
HETATM   25  O4  UNL     1     167.120  52.113  15.319  1.00  0.00    -0.271 OA
HETATM   26  C15 UNL     1     168.483  50.616  14.135  1.00  0.00     0.202 C 
HETATM   27  N11 UNL     1     168.032  49.570  13.272  1.00  0.00    -0.344 N 
ATOM     28  H11 UNL     1     168.468  48.655  13.380  1.00  0.00     0.163 HD
HETATM   29  C17 UNL     1     167.033  49.697  12.282  1.00  0.00     0.240 C 
HETATM   30  O5  UNL     1     166.503  48.646  11.842  1.00  0.00    -0.271 OA
ENDROOT
BRANCH   1  31
HETATM   31  C3  UNL     1     166.428  50.909  10.200  1.00  0.00     0.036 C 
BRANCH  31  32
HETATM   32  C2  UNL     1     167.736  51.405   9.608  1.00  0.00     0.030 C 
BRANCH  32  33
HETATM   33  C1  UNL     1     167.524  52.000   8.234  1.00  0.00     0.230 C 
BRANCH  33  34
HETATM   34  N1  UNL     1     167.021  51.039   7.285  1.00  0.00    -0.079 N 
ATOM     35  H13 UNL     1     166.933  50.116   7.711  1.00  0.00     0.274 HD
ATOM     36  H12 UNL     1     166.039  51.215   7.070  1.00  0.00     0.274 HD
ATOM     37  H11 UNL     1     167.580  50.997   6.434  1.00  0.00     0.274 HD
ENDBRANCH  33  34
ENDBRANCH  32  33
ENDBRANCH  31  32
ENDBRANCH   1  31
BRANCH  26  38
HETATM   38  C16 UNL     1     169.877  50.255  14.670  1.00  0.00     0.264 C 
BRANCH  38  39
HETATM   39  N10 UNL     1     170.344  51.267  15.592  1.00  0.00    -0.077 N 
ATOM     40 3H10 UNL     1     169.749  52.096  15.578  1.00  0.00     0.274 HD
ATOM     41 2H10 UNL     1     170.199  50.992  16.563  1.00  0.00     0.274 HD
ATOM     42 1H10 UNL     1     171.320  51.498  15.403  1.00  0.00     0.274 HD
ENDBRANCH  38  39
ENDBRANCH  26  38
BRANCH   7  43
HETATM   43  C8  UNL     1     161.019  50.647  14.437  1.00  0.00     0.271 C 
BRANCH  43  44
HETATM   44  N3  UNL     1     161.033  49.197  14.336  1.00  0.00    -0.076 N 
ATOM     45  H33 UNL     1     161.977  48.853  14.159  1.00  0.00     0.274 HD
ATOM     46  H32 UNL     1     160.866  48.766  15.245  1.00  0.00     0.274 HD
ATOM     47  H31 UNL     1     160.379  48.841  13.639  1.00  0.00     0.274 HD
ENDBRANCH  43  44
ENDBRANCH   7  43
TORSDOF 8
ENDMDL
MODEL 3
REMARK VINA RESULT: -6.208728666      1.759      2.351
REMARK  8 active torsions:
REMARK  status: ('A' for Active; 'I' for Inactive)
REMARK    1  A    between atoms: N1_1  and  C1_5 
REMARK    2  A    between atoms: C1_5  and  C2_6 
REMARK    3  A    between atoms: C2_6  and  C3_7 
REMARK    4  A    between atoms: C3_7  and  C4_8 
REMARK    5  A    between atoms: C7_14  and  C8_15 
REMARK    6  A    between atoms: C8_15  and  N3_16 
REMARK    7  A    between atoms: C15_38  and  C16_39 
REMARK    8  A    between atoms: C16_39  and  N10_40 
ROOT
HETATM    1  C4  UNL     1     165.119  50.925  11.935  1.00  0.00     0.169 C 
HETATM    2  N2  UNL     1     164.019  50.989  12.843  1.00  0.00    -0.407 N 
ATOM      3  H2  UNL     1     164.064  51.510  13.720  1.00  0.00     0.154 HD
HETATM    4  C5  UNL     1     162.849  50.270  12.435  1.00  0.00     0.141 C 
HETATM    5  C6  UNL     1     161.884  50.241  13.601  1.00  0.00     0.188 C 
HETATM    6  O1  UNL     1     162.600  49.985  14.741  1.00  0.00    -0.373 OA
HETATM    7  C7  UNL     1     161.963  50.458  15.898  1.00  0.00     0.238 C 
HETATM    8  C9  UNL     1     162.859  50.558  17.062  1.00  0.00     0.249 C 
HETATM    9  O2  UNL     1     163.615  51.610  17.012  1.00  0.00    -0.271 OA
HETATM   10  N4  UNL     1     163.018  49.736  18.168  1.00  0.00    -0.336 N 
ATOM     11  H4  UNL     1     162.819  50.192  19.059  1.00  0.00     0.164 HD
HETATM   12  C10 UNL     1     163.410  48.363  18.291  1.00  0.00     0.236 C 
HETATM   13  N5  UNL     1     162.318  47.420  18.318  1.00  0.00    -0.101 NA
HETATM   14  N6  UNL     1     162.862  46.226  17.892  1.00  0.00    -0.036 NA
HETATM   15  N7  UNL     1     163.877  46.495  17.005  1.00  0.00    -0.101 NA
HETATM   16  C11 UNL     1     164.349  47.841  17.258  1.00  0.00     0.236 C 
HETATM   17  N8  UNL     1     165.711  47.763  17.766  1.00  0.00    -0.337 N 
ATOM     18  H8  UNL     1     165.837  47.665  18.773  1.00  0.00     0.164 HD
HETATM   19  C12 UNL     1     166.869  47.813  16.959  1.00  0.00     0.236 C 
HETATM   20  O3  UNL     1     167.862  47.135  17.330  1.00  0.00    -0.272 OA
HETATM   21  C13 UNL     1     166.994  48.605  15.714  1.00  0.00     0.225 C 
HETATM   22  N9  UNL     1     167.107  50.034  16.046  1.00  0.00    -0.350 N 
ATOM     23  H9  UNL     1     167.201  50.318  17.020  1.00  0.00     0.163 HD
HETATM   24  C14 UNL     1     167.087  51.020  15.029  1.00  0.00     0.242 C 
HETATM   25  O4  UNL     1     166.510  52.105  15.293  1.00  0.00    -0.271 OA
HETATM   26  C15 UNL     1     167.693  50.863  13.694  1.00  0.00     0.202 C 
HETATM   27  N11 UNL     1     167.182  49.764  12.936  1.00  0.00    -0.344 N 
ATOM     28  H11 UNL     1     167.768  48.932  12.866  1.00  0.00     0.163 HD
HETATM   29  C17 UNL     1     165.935  49.733  12.275  1.00  0.00     0.240 C 
HETATM   30  O5  UNL     1     165.471  48.612  11.944  1.00  0.00    -0.271 OA
ENDROOT
BRANCH   1  31
HETATM   31  C3  UNL     1     164.579  50.846  10.516  1.00  0.00     0.036 C 
BRANCH  31  32
HETATM   32  C2  UNL     1     165.640  51.415   9.590  1.00  0.00     0.030 C 
BRANCH  32  33
HETATM   33  C1  UNL     1     165.638  50.706   8.255  1.00  0.00     0.230 C 
BRANCH  33  34
HETATM   34  N1  UNL     1     166.920  50.754   7.598  1.00  0.00    -0.079 N 
ATOM     35  H13 UNL     1     167.200  51.717   7.414  1.00  0.00     0.274 HD
ATOM     36  H12 UNL     1     167.668  50.483   8.236  1.00  0.00     0.274 HD
ATOM     37  H11 UNL     1     166.946  50.196   6.745  1.00  0.00     0.274 HD
ENDBRANCH  33  34
ENDBRANCH  32  33
ENDBRANCH  31  32
ENDBRANCH   1  31
BRANCH  26  38
HETATM   38  C16 UNL     1     169.220  50.732  13.795  1.00  0.00     0.264 C 
BRANCH  38  39
HETATM   39  N10 UNL     1     169.770  51.810  14.588  1.00  0.00    -0.077 N 
ATOM     40 3H10 UNL     1     170.511  52.305  14.093  1.00  0.00     0.274 HD
ATOM     41 2H10 UNL     1     169.111  52.582  14.687  1.00  0.00     0.274 HD
ATOM     42 1H10 UNL     1     170.085  51.462  15.494  1.00  0.00     0.274 HD
ENDBRANCH  38  39
ENDBRANCH  26  38
BRANCH   7  43
HETATM   43  C8  UNL     1     160.718  49.661  16.082  1.00  0.00     0.271 C 
BRANCH  43  44
HETATM   44  N3  UNL     1     160.928  48.233  15.906  1.00  0.00    -0.076 N 
ATOM     45  H33 UNL     1     161.845  48.048  15.498  1.00  0.00     0.274 HD
ATOM     46  H32 UNL     1     161.049  47.769  16.806  1.00  0.00     0.274 HD
ATOM     47  H31 UNL     1     160.190  47.787  15.361  1.00  0.00     0.274 HD
ENDBRANCH  43  44
ENDBRANCH   7  43
TORSDOF 8
ENDMDL
MODEL 4
REMARK VINA RESULT: -5.889188132      2.883      7.990
REMARK  8 active torsions:
REMARK  status: ('A' for Active; 'I' for Inactive)
REMARK    1  A    between atoms: N1_1  and  C1_5 
REMARK    2  A    between atoms: C1_5  and  C2_6 
REMARK    3  A    between atoms: C2_6  and  C3_7 
REMARK    4  A    between atoms: C3_7  and  C4_8 
REMARK    5  A    between atoms: C7_14  and  C8_15 
REMARK    6  A    between atoms: C8_15  and  N3_16 
REMARK    7  A    between atoms: C15_38  and  C16_39 
REMARK    8  A    between atoms: C16_39  and  N10_40 
ROOT
HETATM    1  C4  UNL     1     163.303  46.932  18.600  1.00  0.00     0.169 C 
HETATM    2  N2  UNL     1     164.440  47.681  18.173  1.00  0.00    -0.407 N 
ATOM      3  H2  UNL     1     164.457  48.702  18.180  1.00  0.00     0.154 HD
HETATM    4  C5  UNL     1     165.556  46.898  17.732  1.00  0.00     0.141 C 
HETATM    5  C6  UNL     1     166.565  47.831  17.097  1.00  0.00     0.188 C 
HETATM    6  O1  UNL     1     165.883  48.729  16.317  1.00  0.00    -0.373 OA
HETATM    7  C7  UNL     1     166.589  49.926  16.127  1.00  0.00     0.238 C 
HETATM    8  C9  UNL     1     165.748  51.034  15.646  1.00  0.00     0.249 C 
HETATM    9  O2  UNL     1     165.044  51.565  16.596  1.00  0.00    -0.271 OA
HETATM   10  N4  UNL     1     165.593  51.584  14.382  1.00  0.00    -0.336 N 
ATOM     11  H4  UNL     1     165.851  52.569  14.322  1.00  0.00     0.164 HD
HETATM   12  C10 UNL     1     165.139  51.023  13.144  1.00  0.00     0.236 C 
HETATM   13  N5  UNL     1     166.183  50.507  12.291  1.00  0.00    -0.101 NA
HETATM   14  N6  UNL     1     165.564  49.572  11.489  1.00  0.00    -0.036 NA
HETATM   15  N7  UNL     1     164.528  49.003  12.191  1.00  0.00    -0.101 NA
HETATM   16  C11 UNL     1     164.134  49.926  13.235  1.00  0.00     0.236 C 
HETATM   17  N8  UNL     1     162.792  50.406  12.942  1.00  0.00    -0.337 N 
ATOM     18  H8  UNL     1     162.702  51.233  12.352  1.00  0.00     0.164 HD
HETATM   19  C12 UNL     1     161.606  49.806  13.418  1.00  0.00     0.236 C 
HETATM   20  O3  UNL     1     160.597  49.844  12.668  1.00  0.00    -0.272 OA
HETATM   21  C13 UNL     1     161.470  49.137  14.732  1.00  0.00     0.225 C 
HETATM   22  N9  UNL     1     161.441  50.148  15.801  1.00  0.00    -0.350 N 
ATOM     23  H9  UNL     1     161.401  51.138  15.557  1.00  0.00     0.163 HD
HETATM   24  C14 UNL     1     161.468  49.766  17.164  1.00  0.00     0.242 C 
HETATM   25  O4  UNL     1     162.109  50.505  17.955  1.00  0.00    -0.271 OA
HETATM   26  C15 UNL     1     160.802  48.572  17.717  1.00  0.00     0.202 C 
HETATM   27  N11 UNL     1     161.227  47.335  17.139  1.00  0.00    -0.344 N 
ATOM     28  H11 UNL     1     160.598  46.893  16.469  1.00  0.00     0.163 HD
HETATM   29  C17 UNL     1     162.443  46.675  17.418  1.00  0.00     0.240 C 
HETATM   30  O5  UNL     1     162.837  45.799  16.607  1.00  0.00    -0.271 OA
ENDROOT
BRANCH   1  31
HETATM   31  C3  UNL     1     163.780  45.636  19.236  1.00  0.00     0.036 C 
BRANCH  31  32
HETATM   32  C2  UNL     1     162.986  45.434  20.515  1.00  0.00     0.030 C 
BRANCH  32  33
HETATM   33  C1  UNL     1     162.052  44.251  20.398  1.00  0.00     0.230 C 
BRANCH  33  34
HETATM   34  N1  UNL     1     160.726  44.631  19.982  1.00  0.00    -0.079 N 
ATOM     35  H13 UNL     1     160.063  43.869  20.132  1.00  0.00     0.274 HD
ATOM     36  H12 UNL     1     160.327  45.323  20.616  1.00  0.00     0.274 HD
ATOM     37  H11 UNL     1     160.695  44.957  19.017  1.00  0.00     0.274 HD
ENDBRANCH  33  34
ENDBRANCH  32  33
ENDBRANCH  31  32
ENDBRANCH   1  31
BRANCH  26  38
HETATM   38  C16 UNL     1     159.276  48.685  17.586  1.00  0.00     0.264 C 
BRANCH  38  39
HETATM   39  N10 UNL     1     158.778  47.727  16.622  1.00  0.00    -0.077 N 
ATOM     40 3H10 UNL     1     158.003  47.180  16.996  1.00  0.00     0.274 HD
ATOM     41 2H10 UNL     1     158.286  48.183  15.854  1.00  0.00     0.274 HD
ATOM     42 1H10 UNL     1     159.536  47.132  16.287  1.00  0.00     0.274 HD
ENDBRANCH  38  39
ENDBRANCH  26  38
BRANCH   7  43
HETATM   43  C8  UNL     1     167.800  49.609  15.319  1.00  0.00     0.271 C 
BRANCH  43  44
HETATM   44  N3  UNL     1     167.512  48.753  14.179  1.00  0.00    -0.076 N 
ATOM     45  H33 UNL     1     166.591  48.324  14.269  1.00  0.00     0.274 HD
ATOM     46  H32 UNL     1     167.356  49.307  13.337  1.00  0.00     0.274 HD
ATOM     47  H31 UNL     1     168.230  48.045  14.023  1.00  0.00     0.274 HD
ENDBRANCH  43  44
ENDBRANCH   7  43
TORSDOF 8
ENDMDL
MODEL 5
REMARK VINA RESULT: -5.864435239      2.331      6.703
REMARK  8 active torsions:
REMARK  status: ('A' for Active; 'I' for Inactive)
REMARK    1  A    between atoms: N1_1  and  C1_5 
REMARK    2  A    between atoms: C1_5  and  C2_6 
REMARK    3  A    between atoms: C2_6  and  C3_7 
REMARK    4  A    between atoms: C3_7  and  C4_8 
REMARK    5  A    between atoms: C7_14  and  C8_15 
REMARK    6  A    between atoms: C8_15  and  N3_16 
REMARK    7  A    between atoms: C15_38  and  C16_39 
REMARK    8  A    between atoms: C16_39  and  N10_40 
ROOT
HETATM    1  C4  UNL     1     161.259  51.012  15.818  1.00  0.00     0.169 C 
HETATM    2  N2  UNL     1     161.773  50.911  14.490  1.00  0.00    -0.407 N 
ATOM      3  H2  UNL     1     162.066  50.022  14.083  1.00  0.00     0.154 HD
HETATM    4  C5  UNL     1     161.849  52.147  13.770  1.00  0.00     0.141 C 
HETATM    5  C6  UNL     1     162.628  51.903  12.495  1.00  0.00     0.188 C 
HETATM    6  O1  UNL     1     163.703  51.107  12.798  1.00  0.00    -0.373 OA
HETATM    7  C7  UNL     1     164.167  50.381  11.691  1.00  0.00     0.238 C 
HETATM    8  C9  UNL     1     165.035  49.249  12.055  1.00  0.00     0.249 C 
HETATM    9  O2  UNL     1     164.360  48.228  12.480  1.00  0.00    -0.271 OA
HETATM   10  N4  UNL     1     166.414  49.104  12.015  1.00  0.00    -0.336 N 
ATOM     11  H4  UNL     1     166.737  48.356  11.401  1.00  0.00     0.164 HD
HETATM   12  C10 UNL     1     167.470  49.811  12.677  1.00  0.00     0.236 C 
HETATM   13  N5  UNL     1     168.023  50.915  11.931  1.00  0.00    -0.101 NA
HETATM   14  N6  UNL     1     168.571  51.753  12.879  1.00  0.00    -0.036 NA
HETATM   15  N7  UNL     1     167.839  51.648  14.038  1.00  0.00    -0.101 NA
HETATM   16  C11 UNL     1     167.159  50.370  14.024  1.00  0.00     0.236 C 
HETATM   17  N8  UNL     1     167.713  49.543  15.085  1.00  0.00    -0.337 N 
ATOM     18  H8  UNL     1     168.527  48.969  14.865  1.00  0.00     0.164 HD
HETATM   19  C12 UNL     1     167.201  49.480  16.400  1.00  0.00     0.236 C 
HETATM   20  O3  UNL     1     168.026  49.305  17.334  1.00  0.00    -0.272 OA
HETATM   21  C13 UNL     1     165.768  49.605  16.752  1.00  0.00     0.225 C 
HETATM   22  N9  UNL     1     165.055  48.378  16.367  1.00  0.00    -0.350 N 
ATOM     23  H9  UNL     1     165.583  47.573  16.030  1.00  0.00     0.163 HD
HETATM   24  C14 UNL     1     163.643  48.298  16.457  1.00  0.00     0.242 C 
HETATM   25  O4  UNL     1     163.047  47.643  15.565  1.00  0.00    -0.271 OA
HETATM   26  C15 UNL     1     162.832  48.923  17.518  1.00  0.00     0.202 C 
HETATM   27  N11 UNL     1     162.973  50.343  17.613  1.00  0.00    -0.344 N 
ATOM     28  H11 UNL     1     163.541  50.706  18.378  1.00  0.00     0.163 HD
HETATM   29  C17 UNL     1     162.392  51.285  16.737  1.00  0.00     0.240 C 
HETATM   30  O5  UNL     1     162.864  52.450  16.728  1.00  0.00    -0.271 OA
ENDROOT
BRANCH   1  31
HETATM   31  C3  UNL     1     160.224  52.125  15.860  1.00  0.00     0.036 C 
BRANCH  31  32
HETATM   32  C2  UNL     1     159.372  51.912  17.100  1.00  0.00     0.030 C 
BRANCH  32  33
HETATM   33  C1  UNL     1     158.088  52.707  17.023  1.00  0.00     0.230 C 
BRANCH  33  34
HETATM   34  N1  UNL     1     158.223  53.904  16.233  1.00  0.00    -0.079 N 
ATOM     35  H13 UNL     1     159.012  53.832  15.591  1.00  0.00     0.274 HD
ATOM     36  H12 UNL     1     157.465  53.984  15.556  1.00  0.00     0.274 HD
ATOM     37  H11 UNL     1     158.293  54.746  16.805  1.00  0.00     0.274 HD
ENDBRANCH  33  34
ENDBRANCH  32  33
ENDBRANCH  31  32
ENDBRANCH   1  31
BRANCH  26  38
HETATM   38  C16 UNL     1     163.141  48.299  18.887  1.00  0.00     0.264 C 
BRANCH  38  39
HETATM   39  N10 UNL     1     163.051  46.857  18.817  1.00  0.00    -0.077 N 
ATOM     40 3H10 UNL     1     163.650  46.406  19.509  1.00  0.00     0.274 HD
ATOM     41 2H10 UNL     1     162.149  46.517  19.152  1.00  0.00     0.274 HD
ATOM     42 1H10 UNL     1     163.252  46.532  17.872  1.00  0.00     0.274 HD
ENDBRANCH  38  39
ENDBRANCH  26  38
BRANCH   7  43
HETATM   43  C8  UNL     1     164.720  51.359  10.713  1.00  0.00     0.271 C 
BRANCH  43  44
HETATM   44  N3  UNL     1     164.252  51.130   9.356  1.00  0.00    -0.076 N 
ATOM     45  H33 UNL     1     165.013  51.237   8.685  1.00  0.00     0.274 HD
ATOM     46  H32 UNL     1     164.036  50.144   9.206  1.00  0.00     0.274 HD
ATOM     47  H31 UNL     1     163.458  51.719   9.104  1.00  0.00     0.274 HD
ENDBRANCH  43  44
ENDBRANCH   7  43
TORSDOF 8
ENDMDL
