MODEL 1
REMARK VINA RESULT: -5.927045414      0.000      0.000
REMARK  9 active torsions:
REMARK  status: ('A' for Active; 'I' for Inactive)
REMARK    1  A    between atoms: S1_2  and  C2_5 
REMARK    2  A    between atoms: C3_10  and  S2_11 
REMARK    3  A    between atoms: S2_11  and  C4_12 
REMARK    4  A    between atoms: C4_12  and  O3_18 
REMARK    5  A    between atoms: N3_13  and  N4_15 
REMARK    6  A    between atoms: O3_18  and  C5_19 
REMARK    7  A    between atoms: C5_19  and  N6_23 
REMARK    8  A    between atoms: N6_23  and  C6_25 
REMARK    9  A    between atoms: C7_31  and  N10_32 
ROOT
HETATM    1  C4  UNL     1      29.723   3.569   7.125  1.00  0.00     0.212 C 
HETATM    2  N3  UNL     1      30.578   4.370   6.685  1.00  0.00    -0.280 N 
ATOM      3  H3  UNL     1      30.188   5.126   6.123  1.00  0.00     0.189 HD
ENDROOT
BRANCH   1   4
HETATM    4  S2  UNL     1      27.954   3.775   6.756  1.00  0.00    -0.007 SA
BRANCH   4   5
HETATM    5  C3  UNL     1      27.062   2.337   7.325  1.00  0.00     0.169 A 
HETATM    6  N2  UNL     1      27.455   1.331   8.105  1.00  0.00    -0.277 N 
HETATM    7  N1  UNL     1      26.458   0.468   8.273  1.00  0.00    -0.274 N 
ATOM      8  H2  UNL     1      28.384   1.236   8.513  1.00  0.00     0.189 HD
HETATM    9  C2  UNL     1      25.380   0.934   7.576  1.00  0.00     0.219 A 
ATOM     10  H1  UNL     1      26.492  -0.389   8.825  1.00  0.00     0.189 HD
HETATM   11  N11 UNL     1      25.787   2.090   7.002  1.00  0.00    -0.311 N 
ATOM     12  H11 UNL     1      25.208   2.686   6.410  1.00  0.00     0.170 HD
BRANCH   9  13
HETATM   13  S1  UNL     1      23.805   0.169   7.466  1.00  0.00     0.204 S 
HETATM   14  C1  UNL     1      23.958  -1.299   6.478  1.00  0.00     0.170 C 
HETATM   15  O1  UNL     1      22.903   1.112   6.717  1.00  0.00    -0.220 OA
HETATM   16  O2  UNL     1      23.294  -0.128   8.830  1.00  0.00    -0.220 OA
ENDBRANCH   9  13
ENDBRANCH   4   5
ENDBRANCH   1   4
BRANCH   1  17
HETATM   17  O3  UNL     1      30.147   2.503   7.913  1.00  0.00    -0.254 OA
BRANCH  17  18
HETATM   18  C5  UNL     1      30.452   2.697   9.266  1.00  0.00     0.221 C 
HETATM   19  N5  UNL     1      29.693   3.484   9.942  1.00  0.00    -0.365 N 
ATOM     20  H52 UNL     1      28.905   3.940   9.482  1.00  0.00     0.159 HD
ATOM     21  H51 UNL     1      29.915   3.625  10.927  1.00  0.00     0.159 HD
BRANCH  18  22
HETATM   22  N6  UNL     1      31.559   2.057   9.911  1.00  0.00    -0.330 N 
ATOM     23  H6  UNL     1      31.614   1.039   9.928  1.00  0.00     0.165 HD
BRANCH  22  24
HETATM   24  C6  UNL     1      32.597   2.836  10.538  1.00  0.00     0.270 A 
HETATM   25  N7  UNL     1      32.954   4.004   9.787  1.00  0.00    -0.092 NA
HETATM   26  N8  UNL     1      34.303   3.938   9.510  1.00  0.00    -0.243 N 
HETATM   27  N9  UNL     1      34.812   2.864   9.908  1.00  0.00    -0.275 N 
ATOM     28  H8  UNL     1      34.825   4.675   9.036  1.00  0.00     0.204 HD
HETATM   29  C7  UNL     1      33.833   2.033  10.532  1.00  0.00     0.131 A 
ATOM     30  H9  UNL     1      35.796   2.617   9.801  1.00  0.00     0.189 HD
BRANCH  29  31
HETATM   31  N10 UNL     1      33.982   0.841  10.993  1.00  0.00    -0.385 N 
ATOM     32 2H10 UNL     1      33.311   0.073  10.981  1.00  0.00     0.157 HD
ATOM     33 1H10 UNL     1      34.810   0.460  11.453  1.00  0.00     0.157 HD
ENDBRANCH  29  31
ENDBRANCH  22  24
ENDBRANCH  18  22
ENDBRANCH  17  18
ENDBRANCH   1  17
BRANCH   2  34
HETATM   34  N4  UNL     1      31.928   4.420   6.816  1.00  0.00    -0.343 N 
ATOM     35  H42 UNL     1      32.268   3.872   7.606  1.00  0.00     0.176 HD
ATOM     36  H41 UNL     1      32.650   4.899   6.277  1.00  0.00     0.176 HD
ENDBRANCH   2  34
TORSDOF 9
ENDMDL
MODEL 2
REMARK VINA RESULT: -5.870997105      1.190      1.851
REMARK  9 active torsions:
REMARK  status: ('A' for Active; 'I' for Inactive)
REMARK    1  A    between atoms: S1_2  and  C2_5 
REMARK    2  A    between atoms: C3_10  and  S2_11 
REMARK    3  A    between atoms: S2_11  and  C4_12 
REMARK    4  A    between atoms: C4_12  and  O3_18 
REMARK    5  A    between atoms: N3_13  and  N4_15 
REMARK    6  A    between atoms: O3_18  and  C5_19 
REMARK    7  A    between atoms: C5_19  and  N6_23 
REMARK    8  A    between atoms: N6_23  and  C6_25 
REMARK    9  A    between atoms: C7_31  and  N10_32 
ROOT
HETATM    1  C4  UNL     1      29.252   3.390   7.941  1.00  0.00     0.212 C 
HETATM    2  N3  UNL     1      28.960   3.220   9.146  1.00  0.00    -0.280 N 
ATOM      3  H3  UNL     1      28.183   2.577   9.298  1.00  0.00     0.189 HD
ENDROOT
BRANCH   1   4
HETATM    4  S2  UNL     1      28.334   2.548   6.616  1.00  0.00    -0.007 SA
BRANCH   4   5
HETATM    5  C3  UNL     1      27.122   1.455   7.341  1.00  0.00     0.169 A 
HETATM    6  N2  UNL     1      27.228   0.606   8.362  1.00  0.00    -0.277 N 
HETATM    7  N1  UNL     1      26.067  -0.010   8.563  1.00  0.00    -0.274 N 
ATOM      8  H2  UNL     1      28.074   0.451   8.908  1.00  0.00     0.189 HD
HETATM    9  C2  UNL     1      25.178   0.458   7.639  1.00  0.00     0.219 A 
ATOM     10  H1  UNL     1      25.875  -0.709   9.282  1.00  0.00     0.189 HD
HETATM   11  N11 UNL     1      25.862   1.363   6.900  1.00  0.00    -0.311 N 
ATOM     12  H11 UNL     1      25.475   1.895   6.121  1.00  0.00     0.170 HD
BRANCH   9  13
HETATM   13  S1  UNL     1      23.501  -0.030   7.470  1.00  0.00     0.204 S 
HETATM   14  C1  UNL     1      23.437  -1.488   6.458  1.00  0.00     0.170 C 
HETATM   15  O1  UNL     1      22.793   1.062   6.715  1.00  0.00    -0.220 OA
HETATM   16  O2  UNL     1      22.906  -0.256   8.813  1.00  0.00    -0.220 OA
ENDBRANCH   9  13
ENDBRANCH   4   5
ENDBRANCH   1   4
BRANCH   1  17
HETATM   17  O3  UNL     1      30.304   4.243   7.621  1.00  0.00    -0.254 OA
BRANCH  17  18
HETATM   18  C5  UNL     1      31.587   3.732   7.390  1.00  0.00     0.221 C 
HETATM   19  N5  UNL     1      32.353   4.382   6.587  1.00  0.00    -0.365 N 
ATOM     20  H52 UNL     1      32.011   5.236   6.147  1.00  0.00     0.159 HD
ATOM     21  H51 UNL     1      33.287   4.010   6.418  1.00  0.00     0.159 HD
BRANCH  18  22
HETATM   22  N6  UNL     1      32.068   2.533   8.008  1.00  0.00    -0.330 N 
ATOM     23  H6  UNL     1      31.931   1.635   7.542  1.00  0.00     0.165 HD
BRANCH  22  24
HETATM   24  C6  UNL     1      32.742   2.579   9.280  1.00  0.00     0.270 A 
HETATM   25  N7  UNL     1      32.752   3.888   9.864  1.00  0.00    -0.092 NA
HETATM   26  N8  UNL     1      34.065   4.250  10.078  1.00  0.00    -0.243 N 
HETATM   27  N9  UNL     1      34.866   3.393   9.638  1.00  0.00    -0.275 N 
ATOM     28  H8  UNL     1      34.351   5.113  10.540  1.00  0.00     0.204 HD
HETATM   29  C7  UNL     1      34.170   2.295   9.047  1.00  0.00     0.131 A 
ATOM     30  H9  UNL     1      35.882   3.468   9.696  1.00  0.00     0.189 HD
BRANCH  29  31
HETATM   31  N10 UNL     1      34.667   1.276   8.440  1.00  0.00    -0.385 N 
ATOM     32 2H10 UNL     1      34.182   0.594   7.856  1.00  0.00     0.157 HD
ATOM     33 1H10 UNL     1      35.642   0.976   8.441  1.00  0.00     0.157 HD
ENDBRANCH  29  31
ENDBRANCH  22  24
ENDBRANCH  18  22
ENDBRANCH  17  18
ENDBRANCH   1  17
BRANCH   2  34
HETATM   34  N4  UNL     1      29.483   3.732  10.289  1.00  0.00    -0.343 N 
ATOM     35  H42 UNL     1      30.242   4.391  10.114  1.00  0.00     0.176 HD
ATOM     36  H41 UNL     1      29.258   3.579  11.272  1.00  0.00     0.176 HD
ENDBRANCH   2  34
TORSDOF 9
ENDMDL
MODEL 3
REMARK VINA RESULT: -5.726923400      2.833      8.464
REMARK  9 active torsions:
REMARK  status: ('A' for Active; 'I' for Inactive)
REMARK    1  A    between atoms: S1_2  and  C2_5 
REMARK    2  A    between atoms: C3_10  and  S2_11 
REMARK    3  A    between atoms: S2_11  and  C4_12 
REMARK    4  A    between atoms: C4_12  and  O3_18 
REMARK    5  A    between atoms: N3_13  and  N4_15 
REMARK    6  A    between atoms: O3_18  and  C5_19 
REMARK    7  A    between atoms: C5_19  and  N6_23 
REMARK    8  A    between atoms: N6_23  and  C6_25 
REMARK    9  A    between atoms: C7_31  and  N10_32 
ROOT
HETATM    1  C4  UNL     1      27.292   1.163   7.297  1.00  0.00     0.212 C 
HETATM    2  N3  UNL     1      26.927   0.725   8.412  1.00  0.00    -0.280 N 
ATOM      3  H3  UNL     1      27.103   1.365   9.186  1.00  0.00     0.189 HD
ENDROOT
BRANCH   1   4
HETATM    4  S2  UNL     1      28.072   2.797   7.130  1.00  0.00    -0.007 SA
BRANCH   4   5
HETATM    5  C3  UNL     1      29.328   2.982   8.386  1.00  0.00     0.169 A 
HETATM    6  N2  UNL     1      29.214   3.224   9.691  1.00  0.00    -0.277 N 
HETATM    7  N1  UNL     1      30.418   3.283  10.250  1.00  0.00    -0.274 N 
ATOM      8  H2  UNL     1      28.332   3.345  10.188  1.00  0.00     0.189 HD
HETATM    9  C2  UNL     1      31.345   3.072   9.270  1.00  0.00     0.219 A 
ATOM     10  H1  UNL     1      30.615   3.456  11.236  1.00  0.00     0.189 HD
HETATM   11  N11 UNL     1      30.638   2.889   8.131  1.00  0.00    -0.311 N 
ATOM     12  H11 UNL     1      31.044   2.707   7.213  1.00  0.00     0.170 HD
BRANCH   9  13
HETATM   13  S1  UNL     1      33.088   3.048   9.477  1.00  0.00     0.204 S 
HETATM   14  C1  UNL     1      33.819   2.352   8.016  1.00  0.00     0.170 C 
HETATM   15  O1  UNL     1      33.389   2.108  10.612  1.00  0.00    -0.220 OA
HETATM   16  O2  UNL     1      33.581   4.424   9.746  1.00  0.00    -0.220 OA
ENDBRANCH   9  13
ENDBRANCH   4   5
ENDBRANCH   1   4
BRANCH   1  17
HETATM   17  O3  UNL     1      27.091   0.372   6.169  1.00  0.00    -0.254 OA
BRANCH  17  18
HETATM   18  C5  UNL     1      25.895   0.460   5.445  1.00  0.00     0.221 C 
HETATM   19  N5  UNL     1      25.811   1.369   4.540  1.00  0.00    -0.365 N 
ATOM     20  H52 UNL     1      26.602   1.992   4.378  1.00  0.00     0.159 HD
ATOM     21  H51 UNL     1      24.940   1.433   4.013  1.00  0.00     0.159 HD
BRANCH  18  22
HETATM   22  N6  UNL     1      24.784  -0.415   5.673  1.00  0.00    -0.330 N 
ATOM     23  H6  UNL     1      24.857  -1.400   5.419  1.00  0.00     0.165 HD
BRANCH  22  24
HETATM   24  C6  UNL     1      23.563   0.082   6.255  1.00  0.00     0.270 A 
HETATM   25  N7  UNL     1      23.781   1.124   7.215  1.00  0.00    -0.092 NA
HETATM   26  N8  UNL     1      23.228   0.724   8.413  1.00  0.00    -0.243 N 
HETATM   27  N9  UNL     1      22.774  -0.443   8.354  1.00  0.00    -0.275 N 
ATOM     28  H8  UNL     1      23.193   1.307   9.249  1.00  0.00     0.204 HD
HETATM   29  C7  UNL     1      22.969  -1.004   7.055  1.00  0.00     0.131 A 
ATOM     30  H9  UNL     1      22.324  -0.927   9.131  1.00  0.00     0.189 HD
BRANCH  29  31
HETATM   31  N10 UNL     1      22.691  -2.196   6.657  1.00  0.00    -0.385 N 
ATOM     32 2H10 UNL     1      21.893  -2.503   6.101  1.00  0.00     0.157 HD
ATOM     33 1H10 UNL     1      23.230  -3.044   6.835  1.00  0.00     0.157 HD
ENDBRANCH  29  31
ENDBRANCH  22  24
ENDBRANCH  18  22
ENDBRANCH  17  18
ENDBRANCH   1  17
BRANCH   2  34
HETATM   34  N4  UNL     1      26.341  -0.441   8.782  1.00  0.00    -0.343 N 
ATOM     35  H42 UNL     1      26.112  -1.037   7.987  1.00  0.00     0.176 HD
ATOM     36  H41 UNL     1      26.092  -0.821   9.696  1.00  0.00     0.176 HD
ENDBRANCH   2  34
TORSDOF 9
ENDMDL
MODEL 4
REMARK VINA RESULT: -5.706080717      6.260      9.293
REMARK  9 active torsions:
REMARK  status: ('A' for Active; 'I' for Inactive)
REMARK    1  A    between atoms: S1_2  and  C2_5 
REMARK    2  A    between atoms: C3_10  and  S2_11 
REMARK    3  A    between atoms: S2_11  and  C4_12 
REMARK    4  A    between atoms: C4_12  and  O3_18 
REMARK    5  A    between atoms: N3_13  and  N4_15 
REMARK    6  A    between atoms: O3_18  and  C5_19 
REMARK    7  A    between atoms: C5_19  and  N6_23 
REMARK    8  A    between atoms: N6_23  and  C6_25 
REMARK    9  A    between atoms: C7_31  and  N10_32 
ROOT
HETATM    1  C4  UNL     1      34.853  -1.155  11.110  1.00  0.00     0.212 C 
HETATM    2  N3  UNL     1      35.282  -1.151   9.934  1.00  0.00    -0.280 N 
ATOM      3  H3  UNL     1      35.411  -0.218   9.543  1.00  0.00     0.189 HD
ENDROOT
BRANCH   1   4
HETATM    4  S2  UNL     1      34.500   0.394  11.994  1.00  0.00    -0.007 SA
BRANCH   4   5
HETATM    5  C3  UNL     1      33.832   1.588  10.847  1.00  0.00     0.169 A 
HETATM    6  N2  UNL     1      32.582   1.778  10.429  1.00  0.00    -0.277 N 
HETATM    7  N1  UNL     1      32.539   2.788   9.566  1.00  0.00    -0.274 N 
ATOM      8  H2  UNL     1      31.776   1.230  10.727  1.00  0.00     0.189 HD
HETATM    9  C2  UNL     1      33.808   3.269   9.420  1.00  0.00     0.219 A 
ATOM     10  H1  UNL     1      31.705   3.141   9.096  1.00  0.00     0.189 HD
HETATM   11  N11 UNL     1      34.583   2.506  10.225  1.00  0.00    -0.311 N 
ATOM     12  H11 UNL     1      35.591   2.613  10.341  1.00  0.00     0.170 HD
BRANCH   9  13
HETATM   13  S1  UNL     1      34.302   4.604   8.392  1.00  0.00     0.204 S 
HETATM   14  C1  UNL     1      35.929   4.263   7.768  1.00  0.00     0.170 C 
HETATM   15  O1  UNL     1      34.411   5.822   9.268  1.00  0.00    -0.220 OA
HETATM   16  O2  UNL     1      33.312   4.789   7.299  1.00  0.00    -0.220 OA
ENDBRANCH   9  13
ENDBRANCH   4   5
ENDBRANCH   1   4
BRANCH   1  17
HETATM   17  O3  UNL     1      34.649  -2.377  11.744  1.00  0.00    -0.254 OA
BRANCH  17  18
HETATM   18  C5  UNL     1      35.434  -2.748  12.842  1.00  0.00     0.221 C 
HETATM   19  N5  UNL     1      34.850  -2.871  13.980  1.00  0.00    -0.365 N 
ATOM     20  H52 UNL     1      33.847  -2.697  14.052  1.00  0.00     0.159 HD
ATOM     21  H51 UNL     1      35.422  -3.141  14.780  1.00  0.00     0.159 HD
BRANCH  18  22
HETATM   22  N6  UNL     1      36.842  -2.993  12.742  1.00  0.00    -0.330 N 
ATOM     23  H6  UNL     1      37.481  -2.211  12.590  1.00  0.00     0.165 HD
BRANCH  22  24
HETATM   24  C6  UNL     1      37.368  -4.330  12.852  1.00  0.00     0.270 A 
HETATM   25  N7  UNL     1      36.819  -5.060  13.958  1.00  0.00    -0.092 NA
HETATM   26  N8  UNL     1      37.863  -5.461  14.764  1.00  0.00    -0.243 N 
HETATM   27  N9  UNL     1      38.964  -5.018  14.362  1.00  0.00    -0.275 N 
ATOM     28  H8  UNL     1      37.753  -6.049  15.590  1.00  0.00     0.204 HD
HETATM   29  C7  UNL     1      38.800  -4.228  13.184  1.00  0.00     0.131 A 
ATOM     30  H9  UNL     1      39.860  -5.198  14.816  1.00  0.00     0.189 HD
BRANCH  29  31
HETATM   31  N10 UNL     1      39.698  -3.566  12.542  1.00  0.00    -0.385 N 
ATOM     32 2H10 UNL     1      39.979  -2.595  12.677  1.00  0.00     0.157 HD
ATOM     33 1H10 UNL     1      40.284  -3.907  11.780  1.00  0.00     0.157 HD
ENDBRANCH  29  31
ENDBRANCH  22  24
ENDBRANCH  18  22
ENDBRANCH  17  18
ENDBRANCH   1  17
BRANCH   2  34
HETATM   34  N4  UNL     1      35.606  -2.157   9.082  1.00  0.00    -0.343 N 
ATOM     35  H42 UNL     1      36.611  -2.322   9.032  1.00  0.00     0.176 HD
ATOM     36  H41 UNL     1      35.036  -2.765   8.495  1.00  0.00     0.176 HD
ENDBRANCH   2  34
TORSDOF 9
ENDMDL
MODEL 5
REMARK VINA RESULT: -5.644370216      4.183      7.065
REMARK  9 active torsions:
REMARK  status: ('A' for Active; 'I' for Inactive)
REMARK    1  A    between atoms: S1_2  and  C2_5 
REMARK    2  A    between atoms: C3_10  and  S2_11 
REMARK    3  A    between atoms: S2_11  and  C4_12 
REMARK    4  A    between atoms: C4_12  and  O3_18 
REMARK    5  A    between atoms: N3_13  and  N4_15 
REMARK    6  A    between atoms: O3_18  and  C5_19 
REMARK    7  A    between atoms: C5_19  and  N6_23 
REMARK    8  A    between atoms: N6_23  and  C6_25 
REMARK    9  A    between atoms: C7_31  and  N10_32 
ROOT
HETATM    1  C4  UNL     1      34.719   0.026  10.227  1.00  0.00     0.212 C 
HETATM    2  N3  UNL     1      35.314  -0.640   9.350  1.00  0.00    -0.280 N 
ATOM      3  H3  UNL     1      35.661  -0.082   8.570  1.00  0.00     0.189 HD
ENDROOT
BRANCH   1   4
HETATM    4  S2  UNL     1      34.512   1.826  10.070  1.00  0.00    -0.007 SA
BRANCH   4   5
HETATM    5  C3  UNL     1      32.777   2.204   9.876  1.00  0.00     0.169 A 
HETATM    6  N2  UNL     1      31.779   2.155  10.757  1.00  0.00    -0.277 N 
HETATM    7  N1  UNL     1      30.642   2.524  10.178  1.00  0.00    -0.274 N 
ATOM      8  H2  UNL     1      31.874   1.875  11.733  1.00  0.00     0.189 HD
HETATM    9  C2  UNL     1      30.913   2.824   8.874  1.00  0.00     0.219 A 
ATOM     10  H1  UNL     1      29.728   2.575  10.628  1.00  0.00     0.189 HD
HETATM   11  N11 UNL     1      32.242   2.615   8.721  1.00  0.00    -0.311 N 
ATOM     12  H11 UNL     1      32.760   2.752   7.852  1.00  0.00     0.170 HD
BRANCH   9  13
HETATM   13  S1  UNL     1      29.758   3.365   7.670  1.00  0.00     0.204 S 
HETATM   14  C1  UNL     1      30.604   4.401   6.501  1.00  0.00     0.170 C 
HETATM   15  O1  UNL     1      28.749   4.229   8.377  1.00  0.00    -0.220 OA
HETATM   16  O2  UNL     1      29.124   2.189   7.017  1.00  0.00    -0.220 OA
ENDBRANCH   9  13
ENDBRANCH   4   5
ENDBRANCH   1   4
BRANCH   1  17
HETATM   17  O3  UNL     1      34.212  -0.636  11.341  1.00  0.00    -0.254 OA
BRANCH  17  18
HETATM   18  C5  UNL     1      34.905  -0.612  12.558  1.00  0.00     0.221 C 
HETATM   19  N5  UNL     1      34.586   0.296  13.410  1.00  0.00    -0.365 N 
ATOM     20  H52 UNL     1      33.850   0.964  13.180  1.00  0.00     0.159 HD
ATOM     21  H51 UNL     1      35.091   0.313  14.296  1.00  0.00     0.159 HD
BRANCH  18  22
HETATM   22  N6  UNL     1      35.939  -1.550  12.881  1.00  0.00    -0.330 N 
ATOM     23  H6  UNL     1      36.815  -1.216  13.285  1.00  0.00     0.165 HD
BRANCH  22  24
HETATM   24  C6  UNL     1      35.757  -2.959  12.641  1.00  0.00     0.270 A 
HETATM   25  N7  UNL     1      35.254  -3.664  13.783  1.00  0.00    -0.092 NA
HETATM   26  N8  UNL     1      36.148  -4.666  14.095  1.00  0.00    -0.243 N 
HETATM   27  N9  UNL     1      37.165  -4.631  13.363  1.00  0.00    -0.275 N 
ATOM     28  H8  UNL     1      36.000  -5.354  14.833  1.00  0.00     0.204 HD
HETATM   29  C7  UNL     1      37.086  -3.558  12.425  1.00  0.00     0.131 A 
ATOM     30  H9  UNL     1      37.946  -5.284  13.429  1.00  0.00     0.189 HD
BRANCH  29  31
HETATM   31  N10 UNL     1      37.974  -3.184  11.572  1.00  0.00    -0.385 N 
ATOM     32 2H10 UNL     1      38.607  -2.386  11.632  1.00  0.00     0.157 HD
ATOM     33 1H10 UNL     1      38.194  -3.628  10.680  1.00  0.00     0.157 HD
ENDBRANCH  29  31
ENDBRANCH  22  24
ENDBRANCH  18  22
ENDBRANCH  17  18
ENDBRANCH   1  17
BRANCH   2  34
HETATM   34  N4  UNL     1      35.583  -1.966   9.243  1.00  0.00    -0.343 N 
ATOM     35  H42 UNL     1      36.344  -2.264   9.852  1.00  0.00     0.176 HD
ATOM     36  H41 UNL     1      35.168  -2.704   8.673  1.00  0.00     0.176 HD
ENDBRANCH   2  34
TORSDOF 9
ENDMDL
