MODEL 1
REMARK VINA RESULT: -5.740986719      0.000      0.000
REMARK  6 active torsions:
REMARK  status: ('A' for Active; 'I' for Inactive)
REMARK    1  A    between atoms: C4_7  and  C5_8 
REMARK    2  A    between atoms: C4_7  and  C6_11 
REMARK    3  A    between atoms: C5_8  and  O2_9 
REMARK    4  A    between atoms: C6_11  and  O3_12 
REMARK    5  A    between atoms: C7_15  and  N3_16 
REMARK    6  A    between atoms: N3_16  and  N4_18 
ROOT
HETATM    1  N1  UNL     1      26.762  -0.238   8.074  1.00  0.00    -0.193 NA
HETATM    2  C1  UNL     1      25.775  -0.190   7.462  1.00  0.00     0.119 C 
HETATM    3  C2  UNL     1      24.542  -0.144   6.723  1.00  0.00     0.286 C 
HETATM    4  C3  UNL     1      23.425  -0.354   7.626  1.00  0.00     0.119 C 
HETATM    5  N2  UNL     1      22.550  -0.516   8.344  1.00  0.00    -0.193 NA
HETATM    6  O1  UNL     1      24.424   1.050   6.057  1.00  0.00    -0.308 OA
HETATM    7  C4  UNL     1      24.696   0.828   4.731  1.00  0.00     0.212 C 
HETATM    8  O4  UNL     1      25.196  -0.445   4.598  1.00  0.00    -0.320 OA
HETATM    9  C7  UNL     1      24.492  -1.162   5.573  1.00  0.00     0.304 C 
ENDROOT
BRANCH   9  10
HETATM   10  N3  UNL     1      25.253  -2.309   5.933  1.00  0.00    -0.293 N 
ATOM     11  H3  UNL     1      25.652  -2.314   6.871  1.00  0.00     0.184 HD
BRANCH  10  12
HETATM   12  N4  UNL     1      25.518  -3.450   5.121  1.00  0.00    -0.231 N 
HETATM   13  C8  UNL     1      24.805  -4.580   5.146  1.00  0.00     0.120 A 
HETATM   14  C9  UNL     1      25.179  -5.569   4.296  1.00  0.00     0.056 A 
HETATM   15  C12 UNL     1      23.632  -5.125   5.889  1.00  0.00     0.129 A 
HETATM   16  S1  UNL     1      26.510  -4.905   3.484  1.00  0.00    -0.049 SA
HETATM   17  C11 UNL     1      24.300  -6.795   4.412  1.00  0.00     0.111 A 
HETATM   18  C10 UNL     1      26.537  -3.384   4.266  1.00  0.00     0.165 A 
HETATM   19  N5  UNL     1      27.393  -2.405   4.029  1.00  0.00    -0.378 N 
ATOM     20  H52 UNL     1      27.409  -1.497   4.496  1.00  0.00     0.158 HD
ATOM     21  H51 UNL     1      28.173  -2.355   3.374  1.00  0.00     0.158 HD
HETATM   22  N6  UNL     1      23.365  -6.474   5.410  1.00  0.00    -0.349 N 
ATOM     23  H6  UNL     1      22.620  -7.087   5.744  1.00  0.00     0.167 HD
HETATM   24  N7  UNL     1      22.898  -4.638   6.797  1.00  0.00    -0.384 N 
ATOM     25  H72 UNL     1      23.086  -3.694   7.132  1.00  0.00     0.157 HD
ATOM     26  H71 UNL     1      22.096  -5.011   7.305  1.00  0.00     0.157 HD
ENDBRANCH  10  12
ENDBRANCH   9  10
BRANCH   7  27
HETATM   27  C5  UNL     1      25.749   1.845   4.300  1.00  0.00     0.235 C 
BRANCH  27  28
HETATM   28  O2  UNL     1      25.183   3.096   4.387  1.00  0.00    -0.395 OA
ATOM     29  H2  UNL     1      25.317   3.414   5.272  1.00  0.00     0.209 HD
ENDBRANCH  27  28
ENDBRANCH   7  27
BRANCH   7  30
HETATM   30  C6  UNL     1      23.484   0.968   3.844  1.00  0.00     0.235 C 
BRANCH  30  31
HETATM   31  O3  UNL     1      22.622   1.882   4.466  1.00  0.00    -0.395 OA
ATOM     32  H3  UNL     1      23.062   2.724   4.467  1.00  0.00     0.209 HD
ENDBRANCH  30  31
ENDBRANCH   7  30
TORSDOF 6
ENDMDL
MODEL 2
REMARK VINA RESULT: -5.689372067      4.537      7.303
REMARK  6 active torsions:
REMARK  status: ('A' for Active; 'I' for Inactive)
REMARK    1  A    between atoms: C4_7  and  C5_8 
REMARK    2  A    between atoms: C4_7  and  C6_11 
REMARK    3  A    between atoms: C5_8  and  O2_9 
REMARK    4  A    between atoms: C6_11  and  O3_12 
REMARK    5  A    between atoms: C7_15  and  N3_16 
REMARK    6  A    between atoms: N3_16  and  N4_18 
ROOT
HETATM    1  N1  UNL     1      26.373  -0.948   4.211  1.00  0.00    -0.193 NA
HETATM    2  C1  UNL     1      26.118   0.154   4.482  1.00  0.00     0.119 C 
HETATM    3  C2  UNL     1      25.783   1.516   4.799  1.00  0.00     0.286 C 
HETATM    4  C3  UNL     1      24.393   1.766   4.464  1.00  0.00     0.119 C 
HETATM    5  N2  UNL     1      23.296   1.954   4.203  1.00  0.00    -0.193 NA
HETATM    6  O1  UNL     1      26.030   1.776   6.123  1.00  0.00    -0.308 OA
HETATM    7  C4  UNL     1      27.187   2.508   6.206  1.00  0.00     0.212 C 
HETATM    8  O4  UNL     1      27.783   2.520   4.967  1.00  0.00    -0.320 OA
HETATM    9  C7  UNL     1      26.689   2.538   4.094  1.00  0.00     0.304 C 
ENDROOT
BRANCH   9  10
HETATM   10  N3  UNL     1      27.100   2.008   2.839  1.00  0.00    -0.293 N 
ATOM     11  H3  UNL     1      26.404   1.472   2.321  1.00  0.00     0.184 HD
BRANCH  10  12
HETATM   12  N4  UNL     1      28.380   2.147   2.229  1.00  0.00    -0.231 N 
HETATM   13  C8  UNL     1      28.836   3.273   1.669  1.00  0.00     0.120 A 
HETATM   14  C9  UNL     1      30.087   3.243   1.145  1.00  0.00     0.056 A 
HETATM   15  C12 UNL     1      28.341   4.658   1.424  1.00  0.00     0.129 A 
HETATM   16  S1  UNL     1      30.599   1.655   1.442  1.00  0.00    -0.049 SA
HETATM   17  C11 UNL     1      30.493   4.570   0.543  1.00  0.00     0.111 A 
HETATM   18  C10 UNL     1      29.189   1.089   2.227  1.00  0.00     0.165 A 
HETATM   19  N5  UNL     1      29.004  -0.129   2.708  1.00  0.00    -0.378 N 
ATOM     20  H52 UNL     1      28.163  -0.467   3.176  1.00  0.00     0.158 HD
ATOM     21  H51 UNL     1      29.623  -0.939   2.707  1.00  0.00     0.158 HD
HETATM   22  N6  UNL     1      29.382   5.408   0.736  1.00  0.00    -0.349 N 
ATOM     23  H6  UNL     1      29.316   6.383   0.441  1.00  0.00     0.167 HD
HETATM   24  N7  UNL     1      27.248   5.233   1.697  1.00  0.00    -0.384 N 
ATOM     25  H72 UNL     1      26.519   4.707   2.180  1.00  0.00     0.157 HD
ATOM     26  H71 UNL     1      26.910   6.180   1.530  1.00  0.00     0.157 HD
ENDBRANCH  10  12
ENDBRANCH   9  10
BRANCH   7  27
HETATM   27  C5  UNL     1      28.100   1.813   7.213  1.00  0.00     0.235 C 
BRANCH  27  28
HETATM   28  O2  UNL     1      27.321   1.392   8.265  1.00  0.00    -0.395 OA
ATOM     29  H2  UNL     1      26.625   0.850   7.912  1.00  0.00     0.209 HD
ENDBRANCH  27  28
ENDBRANCH   7  27
BRANCH   7  30
HETATM   30  C6  UNL     1      26.961   3.932   6.648  1.00  0.00     0.235 C 
BRANCH  30  31
HETATM   31  O3  UNL     1      28.075   4.309   7.410  1.00  0.00    -0.395 OA
ATOM     32  H3  UNL     1      27.933   3.984   8.291  1.00  0.00     0.209 HD
ENDBRANCH  30  31
ENDBRANCH   7  30
TORSDOF 6
ENDMDL
MODEL 3
REMARK VINA RESULT: -5.688906990      6.386      8.658
REMARK  6 active torsions:
REMARK  status: ('A' for Active; 'I' for Inactive)
REMARK    1  A    between atoms: C4_7  and  C5_8 
REMARK    2  A    between atoms: C4_7  and  C6_11 
REMARK    3  A    between atoms: C5_8  and  O2_9 
REMARK    4  A    between atoms: C6_11  and  O3_12 
REMARK    5  A    between atoms: C7_15  and  N3_16 
REMARK    6  A    between atoms: N3_16  and  N4_18 
ROOT
HETATM    1  N1  UNL     1      29.424   5.079   5.872  1.00  0.00    -0.193 NA
HETATM    2  C1  UNL     1      29.231   4.220   6.631  1.00  0.00     0.119 C 
HETATM    3  C2  UNL     1      29.004   3.171   7.588  1.00  0.00     0.286 C 
HETATM    4  C3  UNL     1      29.029   3.723   8.930  1.00  0.00     0.119 C 
HETATM    5  N2  UNL     1      29.045   4.166   9.985  1.00  0.00    -0.193 NA
HETATM    6  O1  UNL     1      27.815   2.536   7.334  1.00  0.00    -0.308 OA
HETATM    7  C4  UNL     1      28.093   1.330   6.742  1.00  0.00     0.212 C 
HETATM    8  O4  UNL     1      29.429   1.300   6.423  1.00  0.00    -0.320 OA
HETATM    9  C7  UNL     1      30.017   2.021   7.471  1.00  0.00     0.304 C 
ENDROOT
BRANCH   9  10
HETATM   10  N3  UNL     1      31.263   2.541   7.022  1.00  0.00    -0.293 N 
ATOM     11  H3  UNL     1      31.228   3.408   6.487  1.00  0.00     0.184 HD
BRANCH  10  12
HETATM   12  N4  UNL     1      32.554   1.979   7.241  1.00  0.00    -0.231 N 
HETATM   13  C8  UNL     1      33.221   2.039   8.398  1.00  0.00     0.120 A 
HETATM   14  C9  UNL     1      34.436   1.437   8.445  1.00  0.00     0.056 A 
HETATM   15  C12 UNL     1      33.018   2.618   9.756  1.00  0.00     0.129 A 
HETATM   16  S1  UNL     1      34.622   0.804   6.885  1.00  0.00    -0.049 SA
HETATM   17  C11 UNL     1      35.094   1.569   9.801  1.00  0.00     0.111 A 
HETATM   18  C10 UNL     1      33.134   1.335   6.229  1.00  0.00     0.165 A 
HETATM   19  N5  UNL     1      32.707   1.119   4.997  1.00  0.00    -0.378 N 
ATOM     20  H52 UNL     1      31.820   1.436   4.606  1.00  0.00     0.158 HD
ATOM     21  H51 UNL     1      33.151   0.626   4.222  1.00  0.00     0.158 HD
HETATM   22  N6  UNL     1      34.183   2.309  10.573  1.00  0.00    -0.349 N 
ATOM     23  H6  UNL     1      34.316   2.584  11.547  1.00  0.00     0.167 HD
HETATM   24  N7  UNL     1      32.070   3.284  10.266  1.00  0.00    -0.384 N 
ATOM     25  H72 UNL     1      31.254   3.500   9.693  1.00  0.00     0.157 HD
ATOM     26  H71 UNL     1      31.930   3.680  11.195  1.00  0.00     0.157 HD
ENDBRANCH  10  12
ENDBRANCH   9  10
BRANCH   7  27
HETATM   27  C5  UNL     1      27.255   1.239   5.469  1.00  0.00     0.235 C 
BRANCH  27  28
HETATM   28  O2  UNL     1      25.943   1.464   5.814  1.00  0.00    -0.395 OA
ATOM     29  H2  UNL     1      25.593   0.655   6.167  1.00  0.00     0.209 HD
ENDBRANCH  27  28
ENDBRANCH   7  27
BRANCH   7  30
HETATM   30  C6  UNL     1      27.778   0.148   7.624  1.00  0.00     0.235 C 
BRANCH  30  31
HETATM   31  O3  UNL     1      26.767   0.550   8.507  1.00  0.00    -0.395 OA
ATOM     32  H3  UNL     1      26.953   0.146   9.346  1.00  0.00     0.209 HD
ENDBRANCH  30  31
ENDBRANCH   7  30
TORSDOF 6
ENDMDL
MODEL 4
REMARK VINA RESULT: -5.672027397      3.045      4.869
REMARK  6 active torsions:
REMARK  status: ('A' for Active; 'I' for Inactive)
REMARK    1  A    between atoms: C4_7  and  C5_8 
REMARK    2  A    between atoms: C4_7  and  C6_11 
REMARK    3  A    between atoms: C5_8  and  O2_9 
REMARK    4  A    between atoms: C6_11  and  O3_12 
REMARK    5  A    between atoms: C7_15  and  N3_16 
REMARK    6  A    between atoms: N3_16  and  N4_18 
ROOT
HETATM    1  N1  UNL     1      27.049  -0.998   8.045  1.00  0.00    -0.193 NA
HETATM    2  C1  UNL     1      26.498  -0.046   7.667  1.00  0.00     0.119 C 
HETATM    3  C2  UNL     1      25.793   1.118   7.201  1.00  0.00     0.286 C 
HETATM    4  C3  UNL     1      24.404   1.043   7.613  1.00  0.00     0.119 C 
HETATM    5  N2  UNL     1      23.311   0.979   7.946  1.00  0.00    -0.193 NA
HETATM    6  O1  UNL     1      26.390   2.261   7.670  1.00  0.00    -0.308 OA
HETATM    7  C4  UNL     1      27.100   2.825   6.641  1.00  0.00     0.212 C 
HETATM    8  O4  UNL     1      27.134   1.932   5.596  1.00  0.00    -0.320 OA
HETATM    9  C7  UNL     1      25.884   1.306   5.678  1.00  0.00     0.304 C 
ENDROOT
BRANCH   9  10
HETATM   10  N3  UNL     1      25.973   0.030   5.056  1.00  0.00    -0.293 N 
ATOM     11  H3  UNL     1      26.536  -0.672   5.534  1.00  0.00     0.184 HD
BRANCH  10  12
HETATM   12  N4  UNL     1      25.358  -0.371   3.835  1.00  0.00    -0.231 N 
HETATM   13  C8  UNL     1      25.628   0.162   2.638  1.00  0.00     0.120 A 
HETATM   14  C9  UNL     1      24.965  -0.347   1.569  1.00  0.00     0.056 A 
HETATM   15  C12 UNL     1      26.503   1.234   2.084  1.00  0.00     0.129 A 
HETATM   16  S1  UNL     1      23.986  -1.550   2.250  1.00  0.00    -0.049 SA
HETATM   17  C11 UNL     1      25.353   0.331   0.274  1.00  0.00     0.111 A 
HETATM   18  C10 UNL     1      24.462  -1.356   3.881  1.00  0.00     0.165 A 
HETATM   19  N5  UNL     1      24.015  -2.057   4.909  1.00  0.00    -0.378 N 
ATOM     20  H52 UNL     1      24.299  -1.941   5.882  1.00  0.00     0.158 HD
ATOM     21  H51 UNL     1      23.329  -2.811   4.945  1.00  0.00     0.158 HD
HETATM   22  N6  UNL     1      26.299   1.301   0.643  1.00  0.00    -0.349 N 
ATOM     23  H6  UNL     1      26.767   1.946   0.007  1.00  0.00     0.167 HD
HETATM   24  N7  UNL     1      27.324   2.029   2.626  1.00  0.00    -0.384 N 
ATOM     25  H72 UNL     1      27.465   1.981   3.635  1.00  0.00     0.157 HD
ATOM     26  H71 UNL     1      27.922   2.762   2.247  1.00  0.00     0.157 HD
ENDBRANCH  10  12
ENDBRANCH   9  10
BRANCH   7  27
HETATM   27  C5  UNL     1      28.517   3.083   7.147  1.00  0.00     0.235 C 
BRANCH  27  28
HETATM   28  O2  UNL     1      28.550   4.355   7.670  1.00  0.00    -0.395 OA
ATOM     29  H2  UNL     1      28.842   4.290   8.572  1.00  0.00     0.209 HD
ENDBRANCH  27  28
ENDBRANCH   7  27
BRANCH   7  30
HETATM   30  C6  UNL     1      26.508   4.122   6.150  1.00  0.00     0.235 C 
BRANCH  30  31
HETATM   31  O3  UNL     1      27.032   4.355   4.870  1.00  0.00    -0.395 OA
ATOM     32  H3  UNL     1      27.504   5.178   4.908  1.00  0.00     0.209 HD
ENDBRANCH  30  31
ENDBRANCH   7  30
TORSDOF 6
ENDMDL
MODEL 5
REMARK VINA RESULT: -5.671262075      2.028      3.436
REMARK  6 active torsions:
REMARK  status: ('A' for Active; 'I' for Inactive)
REMARK    1  A    between atoms: C4_7  and  C5_8 
REMARK    2  A    between atoms: C4_7  and  C6_11 
REMARK    3  A    between atoms: C5_8  and  O2_9 
REMARK    4  A    between atoms: C6_11  and  O3_12 
REMARK    5  A    between atoms: C7_15  and  N3_16 
REMARK    6  A    between atoms: N3_16  and  N4_18 
ROOT
HETATM    1  N1  UNL     1      22.556   1.361   3.897  1.00  0.00    -0.193 NA
HETATM    2  C1  UNL     1      23.605   1.292   4.395  1.00  0.00     0.119 C 
HETATM    3  C2  UNL     1      24.913   1.208   4.987  1.00  0.00     0.286 C 
HETATM    4  C3  UNL     1      25.893   1.786   4.086  1.00  0.00     0.119 C 
HETATM    5  N2  UNL     1      26.659   2.247   3.373  1.00  0.00    -0.193 NA
HETATM    6  O1  UNL     1      24.930   1.834   6.207  1.00  0.00    -0.308 OA
HETATM    7  C4  UNL     1      24.911   0.869   7.182  1.00  0.00     0.212 C 
HETATM    8  O4  UNL     1      24.662  -0.345   6.587  1.00  0.00    -0.320 OA
HETATM    9  C7  UNL     1      25.315  -0.230   5.354  1.00  0.00     0.304 C 
ENDROOT
BRANCH   9  10
HETATM   10  N3  UNL     1      24.712  -1.132   4.434  1.00  0.00    -0.293 N 
ATOM     11  H3  UNL     1      24.083  -0.724   3.743  1.00  0.00     0.184 HD
BRANCH  10  12
HETATM   12  N4  UNL     1      24.893  -2.544   4.376  1.00  0.00    -0.231 N 
HETATM   13  C8  UNL     1      24.217  -3.427   5.118  1.00  0.00     0.120 A 
HETATM   14  C9  UNL     1      24.498  -4.741   4.928  1.00  0.00     0.056 A 
HETATM   15  C12 UNL     1      23.169  -3.399   6.177  1.00  0.00     0.129 A 
HETATM   16  S1  UNL     1      25.692  -4.717   3.726  1.00  0.00    -0.049 SA
HETATM   17  C11 UNL     1      23.673  -5.642   5.820  1.00  0.00     0.111 A 
HETATM   18  C10 UNL     1      25.787  -3.023   3.512  1.00  0.00     0.165 A 
HETATM   19  N5  UNL     1      26.579  -2.391   2.663  1.00  0.00    -0.378 N 
ATOM     20  H52 UNL     1      26.636  -1.380   2.535  1.00  0.00     0.158 HD
ATOM     21  H51 UNL     1      27.263  -2.758   2.001  1.00  0.00     0.158 HD
HETATM   22  N6  UNL     1      22.872  -4.769   6.574  1.00  0.00    -0.349 N 
ATOM     23  H6  UNL     1      22.195  -5.048   7.283  1.00  0.00     0.167 HD
HETATM   24  N7  UNL     1      22.551  -2.449   6.740  1.00  0.00    -0.384 N 
ATOM     25  H72 UNL     1      22.759  -1.490   6.462  1.00  0.00     0.157 HD
ATOM     26  H71 UNL     1      21.834  -2.431   7.465  1.00  0.00     0.157 HD
ENDBRANCH  10  12
ENDBRANCH   9  10
BRANCH   7  27
HETATM   27  C5  UNL     1      23.782   1.213   8.150  1.00  0.00     0.235 C 
BRANCH  27  28
HETATM   28  O2  UNL     1      23.081   0.057   8.404  1.00  0.00    -0.395 OA
ATOM     29  H2  UNL     1      23.583  -0.456   9.026  1.00  0.00     0.209 HD
ENDBRANCH  27  28
ENDBRANCH   7  27
BRANCH   7  30
HETATM   30  C6  UNL     1      26.206   0.774   7.950  1.00  0.00     0.235 C 
BRANCH  30  31
HETATM   31  O3  UNL     1      25.912   0.170   9.181  1.00  0.00    -0.395 OA
ATOM     32  H3  UNL     1      25.361  -0.581   8.997  1.00  0.00     0.209 HD
ENDBRANCH  30  31
ENDBRANCH   7  30
TORSDOF 6
ENDMDL
