MODEL 1
REMARK VINA RESULT: -6.713712061      0.000      0.000
REMARK  8 active torsions:
REMARK  status: ('A' for Active; 'I' for Inactive)
REMARK    1  A    between atoms: N1_1  and  C1_4 
REMARK    2  A    between atoms: C3_8  and  C4_9 
REMARK       I    between atoms: C4_9  and  N3_11 
REMARK    3  A    between atoms: N3_11  and  N4_13 
REMARK    4  A    between atoms: C5_15  and  O2_16 
REMARK    5  A    between atoms: C5_15  and  N5_18 
REMARK    6  A    between atoms: C6_23  and  C7_24 
REMARK    7  A    between atoms: C7_24  and  O5_25 
REMARK    8  A    between atoms: C7_24  and  O6_27 
ROOT
HETATM    1  C1  UNL     1      29.277   3.516   4.188  1.00  0.00     0.144 A 
HETATM    2  N2  UNL     1      29.305   3.142   5.471  1.00  0.00    -0.333 N 
ATOM      3  H2  UNL     1      30.181   3.150   5.994  1.00  0.00     0.168 HD
HETATM    4  C2  UNL     1      28.195   2.769   6.042  1.00  0.00     0.101 A 
HETATM    5  C3  UNL     1      28.182   2.362   7.386  1.00  0.00     0.133 C 
HETATM    6  N6  UNL     1      27.409   1.352   7.918  1.00  0.00    -0.345 N 
ATOM      7  H6  UNL     1      27.814   0.828   8.695  1.00  0.00     0.166 HD
HETATM    8  C6  UNL     1      26.179   0.984   7.521  1.00  0.00     0.133 C 
HETATM    9  C8  UNL     1      25.370   1.551   6.579  1.00  0.00     0.274 C 
HETATM   10  O7  UNL     1      24.153   1.241   6.613  1.00  0.00    -0.266 OA
HETATM   11  N7  UNL     1      25.763   2.431   5.596  1.00  0.00    -0.314 N 
ATOM     12  H7  UNL     1      25.022   2.866   5.047  1.00  0.00     0.170 HD
HETATM   13  C9  UNL     1      27.051   2.779   5.283  1.00  0.00     0.110 A 
HETATM   14  S1  UNL     1      27.630   3.332   3.775  1.00  0.00    -0.034 SA
ENDROOT
BRANCH   5  15
HETATM   15  C4  UNL     1      29.015   3.070   8.332  1.00  0.00     0.289 C 
HETATM   16  O1  UNL     1      28.876   4.337   8.380  1.00  0.00    -0.264 OA
HETATM   17  N3  UNL     1      29.954   2.429   9.172  1.00  0.00    -0.261 N 
ATOM     18  H3  UNL     1      30.078   1.417   9.134  1.00  0.00     0.190 HD
BRANCH  17  19
HETATM   19  N4  UNL     1      30.724   3.218  10.073  1.00  0.00    -0.258 N 
HETATM   20  C5  UNL     1      32.002   3.252   9.945  1.00  0.00     0.301 C 
ATOM     21  H4  UNL     1      30.266   3.750  10.813  1.00  0.00     0.191 HD
BRANCH  20  22
HETATM   22  O2  UNL     1      32.731   4.024  10.828  1.00  0.00    -0.327 OA
ATOM     23  H2  UNL     1      33.377   4.626  10.477  1.00  0.00     0.221 HD
ENDBRANCH  20  22
BRANCH  20  24
HETATM   24  N5  UNL     1      32.641   2.513   8.919  1.00  0.00    -0.070 N 
HETATM   25  O3  UNL     1      33.522   1.671   9.229  1.00  0.00    -0.529 OA
HETATM   26  O4  UNL     1      32.333   2.685   7.599  1.00  0.00    -0.529 OA
ENDBRANCH  20  24
ENDBRANCH  17  19
ENDBRANCH   5  15
BRANCH   8  27
HETATM   27  C7  UNL     1      25.584  -0.215   8.189  1.00  0.00     0.311 C 
BRANCH  27  28
HETATM   28  O5  UNL     1      26.627  -0.870   8.846  1.00  0.00    -0.366 OA
ATOM     29  H5  UNL     1      26.460  -1.802   8.766  1.00  0.00     0.213 HD
ENDBRANCH  27  28
BRANCH  27  30
HETATM   30  O6  UNL     1      24.582   0.152   9.093  1.00  0.00    -0.366 OA
ATOM     31  H6  UNL     1      24.244  -0.603   9.560  1.00  0.00     0.213 HD
ENDBRANCH  27  30
ENDBRANCH   8  27
BRANCH   1  32
HETATM   32  N1  UNL     1      30.261   3.926   3.421  1.00  0.00    -0.380 N 
ATOM     33  H12 UNL     1      31.114   4.412   3.699  1.00  0.00     0.158 HD
ATOM     34  H11 UNL     1      30.368   3.842   2.410  1.00  0.00     0.158 HD
ENDBRANCH   1  32
TORSDOF 8
ENDMDL
MODEL 2
REMARK VINA RESULT: -6.241364060      3.982      7.502
REMARK  8 active torsions:
REMARK  status: ('A' for Active; 'I' for Inactive)
REMARK    1  A    between atoms: N1_1  and  C1_4 
REMARK    2  A    between atoms: C3_8  and  C4_9 
REMARK       I    between atoms: C4_9  and  N3_11 
REMARK    3  A    between atoms: N3_11  and  N4_13 
REMARK    4  A    between atoms: C5_15  and  O2_16 
REMARK    5  A    between atoms: C5_15  and  N5_18 
REMARK    6  A    between atoms: C6_23  and  C7_24 
REMARK    7  A    between atoms: C7_24  and  O5_25 
REMARK    8  A    between atoms: C7_24  and  O6_27 
ROOT
HETATM    1  C1  UNL     1      35.649   2.326   7.333  1.00  0.00     0.144 A 
HETATM    2  N2  UNL     1      34.870   2.530   8.400  1.00  0.00    -0.333 N 
ATOM      3  H2  UNL     1      34.494   3.457   8.597  1.00  0.00     0.168 HD
HETATM    4  C2  UNL     1      34.601   1.525   9.185  1.00  0.00     0.101 A 
HETATM    5  C3  UNL     1      33.793   1.697  10.321  1.00  0.00     0.133 C 
HETATM    6  N6  UNL     1      33.961   1.070  11.536  1.00  0.00    -0.345 N 
ATOM      7  H6  UNL     1      33.690   1.601  12.364  1.00  0.00     0.166 HD
HETATM    8  C6  UNL     1      34.445  -0.166  11.744  1.00  0.00     0.133 C 
HETATM    9  C8  UNL     1      34.800  -1.120  10.834  1.00  0.00     0.274 C 
HETATM   10  O7  UNL     1      34.909  -2.298  11.257  1.00  0.00    -0.266 OA
HETATM   11  N7  UNL     1      35.050  -0.910   9.497  1.00  0.00    -0.314 N 
ATOM     12  H7  UNL     1      35.181  -1.740   8.919  1.00  0.00     0.170 HD
HETATM   13  C9  UNL     1      35.140   0.303   8.865  1.00  0.00     0.110 A 
HETATM   14  S1  UNL     1      36.012   0.661   7.442  1.00  0.00    -0.034 SA
ENDROOT
BRANCH   5  15
HETATM   15  C4  UNL     1      32.651   2.579  10.229  1.00  0.00     0.289 C 
HETATM   16  O1  UNL     1      32.893   3.832  10.238  1.00  0.00    -0.264 OA
HETATM   17  N3  UNL     1      31.318   2.118  10.141  1.00  0.00    -0.261 N 
ATOM     18  H3  UNL     1      31.114   1.118  10.142  1.00  0.00     0.190 HD
BRANCH  17  19
HETATM   19  N4  UNL     1      30.263   3.070  10.050  1.00  0.00    -0.258 N 
HETATM   20  C5  UNL     1      29.732   3.313   8.905  1.00  0.00     0.301 C 
ATOM     21  H4  UNL     1      29.933   3.554  10.885  1.00  0.00     0.191 HD
BRANCH  20  22
HETATM   22  O2  UNL     1      28.710   4.240   8.838  1.00  0.00    -0.327 OA
ATOM     23  H2  UNL     1      28.380   4.488   7.982  1.00  0.00     0.221 HD
ENDBRANCH  20  22
BRANCH  20  24
HETATM   24  N5  UNL     1      30.190   2.644   7.743  1.00  0.00    -0.070 N 
HETATM   25  O3  UNL     1      29.557   1.642   7.325  1.00  0.00    -0.529 OA
HETATM   26  O4  UNL     1      31.300   3.052   7.059  1.00  0.00    -0.529 OA
ENDBRANCH  20  24
ENDBRANCH  17  19
ENDBRANCH   5  15
BRANCH   8  27
HETATM   27  C7  UNL     1      34.630  -0.588  13.167  1.00  0.00     0.311 C 
BRANCH  27  28
HETATM   28  O5  UNL     1      35.978  -0.916  13.319  1.00  0.00    -0.366 OA
ATOM     29  H5  UNL     1      36.264  -0.533  14.141  1.00  0.00     0.213 HD
ENDBRANCH  27  28
BRANCH  27  30
HETATM   30  O6  UNL     1      34.266   0.434  14.052  1.00  0.00    -0.366 OA
ATOM     31  H6  UNL     1      34.964   0.622  14.668  1.00  0.00     0.213 HD
ENDBRANCH  27  30
ENDBRANCH   8  27
BRANCH   1  32
HETATM   32  N1  UNL     1      36.044   3.180   6.418  1.00  0.00    -0.380 N 
ATOM     33  H12 UNL     1      36.987   3.537   6.259  1.00  0.00     0.158 HD
ATOM     34  H11 UNL     1      35.499   3.650   5.696  1.00  0.00     0.158 HD
ENDBRANCH   1  32
TORSDOF 8
ENDMDL
MODEL 3
REMARK VINA RESULT: -6.233426687      2.553      4.234
REMARK  8 active torsions:
REMARK  status: ('A' for Active; 'I' for Inactive)
REMARK    1  A    between atoms: N1_1  and  C1_4 
REMARK    2  A    between atoms: C3_8  and  C4_9 
REMARK       I    between atoms: C4_9  and  N3_11 
REMARK    3  A    between atoms: N3_11  and  N4_13 
REMARK    4  A    between atoms: C5_15  and  O2_16 
REMARK    5  A    between atoms: C5_15  and  N5_18 
REMARK    6  A    between atoms: C6_23  and  C7_24 
REMARK    7  A    between atoms: C7_24  and  O5_25 
REMARK    8  A    between atoms: C7_24  and  O6_27 
ROOT
HETATM    1  C1  UNL     1      25.938   0.152   8.545  1.00  0.00     0.144 A 
HETATM    2  N2  UNL     1      26.683   1.250   8.383  1.00  0.00    -0.333 N 
ATOM      3  H2  UNL     1      26.765   1.936   9.133  1.00  0.00     0.168 HD
HETATM    4  C2  UNL     1      27.303   1.429   7.251  1.00  0.00     0.101 A 
HETATM    5  C3  UNL     1      28.091   2.572   7.037  1.00  0.00     0.133 C 
HETATM    6  N6  UNL     1      28.207   3.263   5.851  1.00  0.00    -0.345 N 
ATOM      7  H6  UNL     1      28.354   4.271   5.923  1.00  0.00     0.166 HD
HETATM    8  C6  UNL     1      28.148   2.751   4.610  1.00  0.00     0.133 C 
HETATM    9  C8  UNL     1      28.046   1.447   4.218  1.00  0.00     0.274 C 
HETATM   10  O7  UNL     1      28.338   1.188   3.023  1.00  0.00    -0.266 OA
HETATM   11  N7  UNL     1      27.656   0.391   5.008  1.00  0.00    -0.314 N 
ATOM     12  H7  UNL     1      27.751  -0.542   4.608  1.00  0.00     0.170 HD
HETATM   13  C9  UNL     1      27.151   0.469   6.281  1.00  0.00     0.110 A 
HETATM   14  S1  UNL     1      26.118  -0.652   7.049  1.00  0.00    -0.034 SA
ENDROOT
BRANCH   5  15
HETATM   15  C4  UNL     1      28.894   3.073   8.130  1.00  0.00     0.289 C 
HETATM   16  O1  UNL     1      28.738   4.301   8.438  1.00  0.00    -0.264 OA
HETATM   17  N3  UNL     1      29.820   2.278   8.843  1.00  0.00    -0.261 N 
ATOM     18  H3  UNL     1      29.957   1.297   8.598  1.00  0.00     0.190 HD
BRANCH  17  19
HETATM   19  N4  UNL     1      30.558   2.867   9.908  1.00  0.00    -0.258 N 
HETATM   20  C5  UNL     1      31.774   3.229   9.705  1.00  0.00     0.301 C 
ATOM     21  H4  UNL     1      30.127   3.001  10.822  1.00  0.00     0.191 HD
BRANCH  20  22
HETATM   22  O2  UNL     1      32.475   3.800  10.750  1.00  0.00    -0.327 OA
ATOM     23  H2  UNL     1      33.418   3.689  10.777  1.00  0.00     0.221 HD
ENDBRANCH  20  22
BRANCH  20  24
HETATM   24  N5  UNL     1      32.378   3.044   8.436  1.00  0.00    -0.070 N 
HETATM   25  O3  UNL     1      33.063   2.010   8.229  1.00  0.00    -0.529 OA
HETATM   26  O4  UNL     1      32.240   3.953   7.426  1.00  0.00    -0.529 OA
ENDBRANCH  20  24
ENDBRANCH  17  19
ENDBRANCH   5  15
BRANCH   8  27
HETATM   27  C7  UNL     1      28.197   3.724   3.475  1.00  0.00     0.311 C 
BRANCH  27  28
HETATM   28  O5  UNL     1      26.878   4.081   3.190  1.00  0.00    -0.366 OA
ATOM     29  H5  UNL     1      26.796   5.007   3.385  1.00  0.00     0.213 HD
ENDBRANCH  27  28
BRANCH  27  30
HETATM   30  O6  UNL     1      28.956   4.852   3.805  1.00  0.00    -0.366 OA
ATOM     31  H6  UNL     1      29.080   5.417   3.052  1.00  0.00     0.213 HD
ENDBRANCH  27  30
ENDBRANCH   8  27
BRANCH   1  32
HETATM   32  N1  UNL     1      25.236  -0.229   9.587  1.00  0.00    -0.380 N 
ATOM     33  H12 UNL     1      25.531  -0.832  10.355  1.00  0.00     0.158 HD
ATOM     34  H11 UNL     1      24.273  -0.003   9.833  1.00  0.00     0.158 HD
ENDBRANCH   1  32
TORSDOF 8
ENDMDL
MODEL 4
REMARK VINA RESULT: -5.977430080      2.001      6.186
REMARK  8 active torsions:
REMARK  status: ('A' for Active; 'I' for Inactive)
REMARK    1  A    between atoms: N1_1  and  C1_4 
REMARK    2  A    between atoms: C3_8  and  C4_9 
REMARK       I    between atoms: C4_9  and  N3_11 
REMARK    3  A    between atoms: N3_11  and  N4_13 
REMARK    4  A    between atoms: C5_15  and  O2_16 
REMARK    5  A    between atoms: C5_15  and  N5_18 
REMARK    6  A    between atoms: C6_23  and  C7_24 
REMARK    7  A    between atoms: C7_24  and  O5_25 
REMARK    8  A    between atoms: C7_24  and  O6_27 
ROOT
HETATM    1  C1  UNL     1      28.084   3.139   3.513  1.00  0.00     0.144 A 
HETATM    2  N2  UNL     1      27.591   2.819   4.714  1.00  0.00    -0.333 N 
ATOM      3  H2  UNL     1      26.583   2.770   4.864  1.00  0.00     0.168 HD
HETATM    4  C2  UNL     1      28.420   2.571   5.688  1.00  0.00     0.101 A 
HETATM    5  C3  UNL     1      27.945   2.237   6.967  1.00  0.00     0.133 C 
HETATM    6  N6  UNL     1      28.508   2.622   8.164  1.00  0.00    -0.345 N 
ATOM      7  H6  UNL     1      27.866   2.771   8.944  1.00  0.00     0.166 HD
HETATM    8  C6  UNL     1      29.813   2.820   8.415  1.00  0.00     0.133 C 
HETATM    9  C8  UNL     1      30.890   2.616   7.599  1.00  0.00     0.274 C 
HETATM   10  O7  UNL     1      32.017   2.555   8.150  1.00  0.00    -0.266 OA
HETATM   11  N7  UNL     1      30.854   2.471   6.231  1.00  0.00    -0.314 N 
ATOM     12  H7  UNL     1      31.725   2.198   5.776  1.00  0.00     0.170 HD
HETATM   13  C9  UNL     1      29.764   2.656   5.421  1.00  0.00     0.110 A 
HETATM   14  S1  UNL     1      29.771   3.089   3.769  1.00  0.00    -0.034 SA
ENDROOT
BRANCH   5  15
HETATM   15  C4  UNL     1      26.781   1.385   7.072  1.00  0.00     0.289 C 
HETATM   16  O1  UNL     1      26.998   0.133   7.185  1.00  0.00    -0.264 OA
HETATM   17  N3  UNL     1      25.456   1.874   7.048  1.00  0.00    -0.261 N 
ATOM     18  H3  UNL     1      25.273   2.873   6.950  1.00  0.00     0.190 HD
BRANCH  17  19
HETATM   19  N4  UNL     1      24.378   0.951   7.164  1.00  0.00    -0.258 N 
HETATM   20  C5  UNL     1      23.656   0.695   6.133  1.00  0.00     0.301 C 
ATOM     21  H4  UNL     1      24.182   0.497   8.056  1.00  0.00     0.191 HD
BRANCH  20  22
HETATM   22  O2  UNL     1      22.616  -0.205   6.264  1.00  0.00    -0.327 OA
ATOM     23  H2  UNL     1      22.591  -0.957   5.684  1.00  0.00     0.221 HD
ENDBRANCH  20  22
BRANCH  20  24
HETATM   24  N5  UNL     1      23.925   1.324   4.892  1.00  0.00    -0.070 N 
HETATM   25  O3  UNL     1      23.051   2.068   4.380  1.00  0.00    -0.529 OA
HETATM   26  O4  UNL     1      25.108   1.149   4.230  1.00  0.00    -0.529 OA
ENDBRANCH  20  24
ENDBRANCH  17  19
ENDBRANCH   5  15
BRANCH   8  27
HETATM   27  C7  UNL     1      30.170   3.337   9.772  1.00  0.00     0.311 C 
BRANCH  27  28
HETATM   28  O5  UNL     1      29.040   3.992  10.265  1.00  0.00    -0.366 OA
ATOM     29  H5  UNL     1      29.288   4.898  10.408  1.00  0.00     0.213 HD
ENDBRANCH  27  28
BRANCH  27  30
HETATM   30  O6  UNL     1      30.553   2.298  10.627  1.00  0.00    -0.366 OA
ATOM     31  H6  UNL     1      30.291   2.474  11.523  1.00  0.00     0.213 HD
ENDBRANCH  27  30
ENDBRANCH   8  27
BRANCH   1  32
HETATM   32  N1  UNL     1      27.444   3.424   2.402  1.00  0.00    -0.380 N 
ATOM     33  H12 UNL     1      27.492   2.935   1.508  1.00  0.00     0.158 HD
ATOM     34  H11 UNL     1      26.782   4.176   2.214  1.00  0.00     0.158 HD
ENDBRANCH   1  32
TORSDOF 8
ENDMDL
MODEL 5
REMARK VINA RESULT: -5.889921473      1.948      5.606
REMARK  8 active torsions:
REMARK  status: ('A' for Active; 'I' for Inactive)
REMARK    1  A    between atoms: N1_1  and  C1_4 
REMARK    2  A    between atoms: C3_8  and  C4_9 
REMARK       I    between atoms: C4_9  and  N3_11 
REMARK    3  A    between atoms: N3_11  and  N4_13 
REMARK    4  A    between atoms: C5_15  and  O2_16 
REMARK    5  A    between atoms: C5_15  and  N5_18 
REMARK    6  A    between atoms: C6_23  and  C7_24 
REMARK    7  A    between atoms: C7_24  and  O5_25 
REMARK    8  A    between atoms: C7_24  and  O6_27 
ROOT
HETATM    1  C1  UNL     1      29.247   4.733   3.444  1.00  0.00     0.144 A 
HETATM    2  N2  UNL     1      28.557   4.156   4.432  1.00  0.00    -0.333 N 
ATOM      3  H2  UNL     1      27.540   4.094   4.387  1.00  0.00     0.168 HD
HETATM    4  C2  UNL     1      29.206   3.673   5.454  1.00  0.00     0.101 A 
HETATM    5  C3  UNL     1      28.519   3.063   6.517  1.00  0.00     0.133 C 
HETATM    6  N6  UNL     1      28.854   3.150   7.851  1.00  0.00    -0.345 N 
ATOM      7  H6  UNL     1      28.081   3.129   8.517  1.00  0.00     0.166 HD
HETATM    8  C6  UNL     1      30.090   3.259   8.367  1.00  0.00     0.133 C 
HETATM    9  C8  UNL     1      31.298   3.226   7.729  1.00  0.00     0.274 C 
HETATM   10  O7  UNL     1      32.312   3.016   8.442  1.00  0.00    -0.266 OA
HETATM   11  N7  UNL     1      31.507   3.400   6.381  1.00  0.00    -0.314 N 
ATOM     12  H7  UNL     1      32.451   3.222   6.036  1.00  0.00     0.170 HD
HETATM   13  C9  UNL     1      30.574   3.790   5.455  1.00  0.00     0.110 A 
HETATM   14  S1  UNL     1      30.863   4.591   3.976  1.00  0.00    -0.034 SA
ENDROOT
BRANCH   5  15
HETATM   15  C4  UNL     1      27.374   2.234   6.216  1.00  0.00     0.289 C 
HETATM   16  O1  UNL     1      27.383   1.633   5.091  1.00  0.00    -0.264 OA
HETATM   17  N3  UNL     1      26.278   2.075   7.094  1.00  0.00    -0.261 N 
ATOM     18  H3  UNL     1      26.258   2.559   7.992  1.00  0.00     0.190 HD
BRANCH  17  19
HETATM   19  N4  UNL     1      25.200   1.231   6.704  1.00  0.00    -0.258 N 
HETATM   20  C5  UNL     1      25.016   0.120   7.324  1.00  0.00     0.301 C 
ATOM     21  H4  UNL     1      24.580   1.504   5.942  1.00  0.00     0.191 HD
BRANCH  20  22
HETATM   22  O2  UNL     1      23.965  -0.686   6.932  1.00  0.00    -0.327 OA
ATOM     23  H2  UNL     1      23.934  -1.580   7.254  1.00  0.00     0.221 HD
ENDBRANCH  20  22
BRANCH  20  24
HETATM   24  N5  UNL     1      25.875  -0.264   8.383  1.00  0.00    -0.070 N 
HETATM   25  O3  UNL     1      25.492  -0.107   9.570  1.00  0.00    -0.529 OA
HETATM   26  O4  UNL     1      27.111  -0.801   8.157  1.00  0.00    -0.529 OA
ENDBRANCH  20  24
ENDBRANCH  17  19
ENDBRANCH   5  15
BRANCH   8  27
HETATM   27  C7  UNL     1      30.191   3.442   9.847  1.00  0.00     0.311 C 
BRANCH  27  28
HETATM   28  O5  UNL     1      28.983   4.000  10.269  1.00  0.00    -0.366 OA
ATOM     29  H5  UNL     1      28.654   3.448  10.969  1.00  0.00     0.213 HD
ENDBRANCH  27  28
BRANCH  27  30
HETATM   30  O6  UNL     1      30.428   2.225  10.496  1.00  0.00    -0.366 OA
ATOM     31  H6  UNL     1      30.918   2.351  11.299  1.00  0.00     0.213 HD
ENDBRANCH  27  30
ENDBRANCH   8  27
BRANCH   1  32
HETATM   32  N1  UNL     1      28.808   5.279   2.333  1.00  0.00    -0.380 N 
ATOM     33  H12 UNL     1      29.356   5.650   1.557  1.00  0.00     0.158 HD
ATOM     34  H11 UNL     1      27.847   5.438   2.029  1.00  0.00     0.158 HD
ENDBRANCH   1  32
TORSDOF 8
ENDMDL
