MODEL 1
REMARK VINA RESULT: -5.735616785      0.000      0.000
REMARK  9 active torsions:
REMARK  status: ('A' for Active; 'I' for Inactive)
REMARK    1  A    between atoms: N1_1  and  N2_4 
REMARK    2  A    between atoms: N2_4  and  N3_5 
REMARK    3  A    between atoms: N3_5  and  O1_6 
REMARK    4  A    between atoms: N3_5  and  N4_8 
REMARK    5  A    between atoms: C2_16  and  N8_17 
REMARK    6  A    between atoms: N8_17  and  N9_19 
REMARK    7  A    between atoms: C7_27  and  N11_28 
REMARK    8  A    between atoms: N11_28  and  N12_30 
REMARK    9  A    between atoms: N12_30  and  C8_32 
ROOT
HETATM    1  N9  UNL     1      33.484   2.062   7.333  1.00  0.00    -0.287 N 
ATOM      2  H9  UNL     1      32.686   2.093   7.967  1.00  0.00     0.187 HD
HETATM    3  C3  UNL     1      33.280   1.963   6.074  1.00  0.00     0.071 C 
HETATM    4  C4  UNL     1      34.431   1.919   5.157  1.00  0.00     0.064 C 
HETATM    5  C5  UNL     1      34.130   2.815   3.970  1.00  0.00     0.026 C 
HETATM    6  C6  UNL     1      32.788   2.562   3.385  1.00  0.00     0.121 C 
HETATM    7  N10 UNL     1      31.759   2.176   4.294  1.00  0.00    -0.374 N 
ATOM      8  H10 UNL     1      30.807   2.120   3.932  1.00  0.00     0.161 HD
HETATM    9  C7  UNL     1      31.938   1.893   5.533  1.00  0.00     0.140 C 
ENDROOT
BRANCH   1  10
HETATM   10  N8  UNL     1      34.781   2.130   7.858  1.00  0.00    -0.128 N 
ATOM     11  H8  UNL     1      35.370   1.298   7.891  1.00  0.00     0.205 HD
BRANCH  10  12
HETATM   12  C2  UNL     1      35.265   3.377   8.346  1.00  0.00     0.748 A 
HETATM   13  N4  UNL     1      34.543   4.014   9.415  1.00  0.00     0.019 N 
HETATM   14  N5  UNL     1      35.007   5.233   9.898  1.00  0.00    -0.259 N 
HETATM   15  C1  UNL     1      36.168   5.802   9.322  1.00  0.00     0.216 A 
ATOM     16  H5  UNL     1      34.518   5.709  10.655  1.00  0.00     0.190 HD
HETATM   17  N6  UNL     1      36.754   5.168   8.369  1.00  0.00    -0.281 N 
HETATM   18  N7  UNL     1      36.318   3.944   7.859  1.00  0.00    -0.127 N 
ATOM     19  H6  UNL     1      37.591   5.586   7.960  1.00  0.00     0.188 HD
ATOM     20  H7  UNL     1      36.832   3.497   7.099  1.00  0.00     0.206 HD
BRANCH  13  21
HETATM   21  N3  UNL     1      33.427   3.387   9.914  1.00  0.00     0.124 NA
BRANCH  21  22
HETATM   22  N2  UNL     1      33.802   2.320  10.658  1.00  0.00    -0.221 NA
BRANCH  22  23
HETATM   23  N1  UNL     1      34.104   1.431  11.299  1.00  0.00    -0.262 N 
ATOM     24  H12 UNL     1      34.323   2.427  11.304  1.00  0.00     0.193 HD
ATOM     25  H11 UNL     1      34.364   0.622  11.863  1.00  0.00     0.193 HD
ENDBRANCH  22  23
ENDBRANCH  21  22
BRANCH  21  26
HETATM   26  O1  UNL     1      32.655   4.191  10.692  1.00  0.00    -0.262 OA
ATOM     27  H1  UNL     1      32.968   5.082  10.595  1.00  0.00     0.242 HD
ENDBRANCH  21  26
ENDBRANCH  13  21
ENDBRANCH  10  12
ENDBRANCH   1  10
BRANCH   9  28
HETATM   28  N11 UNL     1      30.830   1.513   6.372  1.00  0.00    -0.282 N 
ATOM     29  H11 UNL     1      30.632   0.524   6.524  1.00  0.00     0.188 HD
BRANCH  28  30
HETATM   30  N12 UNL     1      30.038   2.460   6.968  1.00  0.00    -0.282 N 
ATOM     31  H12 UNL     1      29.429   3.023   6.373  1.00  0.00     0.188 HD
BRANCH  30  32
HETATM   32  C8  UNL     1      30.019   2.702   8.378  1.00  0.00     0.153 A 
HETATM   33  C9  UNL     1      29.320   3.689   9.037  1.00  0.00     0.159 A 
HETATM   34  N13 UNL     1      29.563   3.586  10.367  1.00  0.00    -0.294 N 
HETATM   35  N14 UNL     1      30.380   2.572  10.500  1.00  0.00    -0.241 N 
ATOM     36  H13 UNL     1      29.188   4.176  11.109  1.00  0.00     0.187 HD
HETATM   37  N15 UNL     1      30.670   2.024   9.332  1.00  0.00    -0.269 N 
ATOM     38  H14 UNL     1      30.746   2.244  11.393  1.00  0.00     0.208 HD
ATOM     39  H15 UNL     1      31.284   1.223   9.183  1.00  0.00     0.190 HD
ENDBRANCH  30  32
ENDBRANCH  28  30
ENDBRANCH   9  28
TORSDOF 9
ENDMDL
MODEL 2
REMARK VINA RESULT: -5.473791603      6.016      9.355
REMARK  9 active torsions:
REMARK  status: ('A' for Active; 'I' for Inactive)
REMARK    1  A    between atoms: N1_1  and  N2_4 
REMARK    2  A    between atoms: N2_4  and  N3_5 
REMARK    3  A    between atoms: N3_5  and  O1_6 
REMARK    4  A    between atoms: N3_5  and  N4_8 
REMARK    5  A    between atoms: C2_16  and  N8_17 
REMARK    6  A    between atoms: N8_17  and  N9_19 
REMARK    7  A    between atoms: C7_27  and  N11_28 
REMARK    8  A    between atoms: N11_28  and  N12_30 
REMARK    9  A    between atoms: N12_30  and  C8_32 
ROOT
HETATM    1  N9  UNL     1      26.587   1.771   5.598  1.00  0.00    -0.287 N 
ATOM      2  H9  UNL     1      26.423   0.773   5.729  1.00  0.00     0.187 HD
HETATM    3  C3  UNL     1      27.207   2.428   6.504  1.00  0.00     0.071 C 
HETATM    4  C4  UNL     1      27.447   3.869   6.316  1.00  0.00     0.064 C 
HETATM    5  C5  UNL     1      28.871   4.175   6.737  1.00  0.00     0.026 C 
HETATM    6  C6  UNL     1      29.215   3.599   8.062  1.00  0.00     0.121 C 
HETATM    7  N10 UNL     1      28.602   2.354   8.395  1.00  0.00    -0.374 N 
ATOM      8  H10 UNL     1      28.921   1.884   9.242  1.00  0.00     0.161 HD
HETATM    9  C7  UNL     1      27.680   1.781   7.710  1.00  0.00     0.140 C 
ENDROOT
BRANCH   1  10
HETATM   10  N8  UNL     1      26.129   2.395   4.429  1.00  0.00    -0.128 N 
ATOM     11  H8  UNL     1      25.792   3.357   4.455  1.00  0.00     0.205 HD
BRANCH  10  12
HETATM   12  C2  UNL     1      26.141   1.665   3.207  1.00  0.00     0.748 A 
HETATM   13  N4  UNL     1      25.377   0.449   3.134  1.00  0.00     0.019 N 
HETATM   14  N5  UNL     1      25.382  -0.271   1.944  1.00  0.00    -0.259 N 
HETATM   15  C1  UNL     1      26.140   0.215   0.851  1.00  0.00     0.216 A 
ATOM     16  H5  UNL     1      24.850  -1.137   1.861  1.00  0.00     0.190 HD
HETATM   17  N6  UNL     1      26.797   1.311   0.999  1.00  0.00    -0.281 N 
HETATM   18  N7  UNL     1      26.814   2.060   2.177  1.00  0.00    -0.127 N 
ATOM     19  H6  UNL     1      27.339   1.654   0.206  1.00  0.00     0.188 HD
ATOM     20  H7  UNL     1      27.359   2.921   2.224  1.00  0.00     0.206 HD
BRANCH  13  21
HETATM   21  N3  UNL     1      24.671   0.054   4.245  1.00  0.00     0.124 NA
BRANCH  21  22
HETATM   22  N2  UNL     1      23.603   0.868   4.414  1.00  0.00    -0.221 NA
BRANCH  22  23
HETATM   23  N1  UNL     1      22.692   1.537   4.548  1.00  0.00    -0.262 N 
ATOM     24  H12 UNL     1      22.852   0.530   4.565  1.00  0.00     0.193 HD
ATOM     25  H11 UNL     1      21.888   2.152   4.664  1.00  0.00     0.193 HD
ENDBRANCH  22  23
ENDBRANCH  21  22
BRANCH  21  26
HETATM   26  O1  UNL     1      24.217  -1.225   4.173  1.00  0.00    -0.262 OA
ATOM     27  H1  UNL     1      23.469  -1.239   3.588  1.00  0.00     0.242 HD
ENDBRANCH  21  26
ENDBRANCH  13  21
ENDBRANCH  10  12
ENDBRANCH   1  10
BRANCH   9  28
HETATM   28  N11 UNL     1      27.123   0.521   8.131  1.00  0.00    -0.282 N 
ATOM     29  H11 UNL     1      27.640  -0.341   7.953  1.00  0.00     0.188 HD
BRANCH  28  30
HETATM   30  N12 UNL     1      25.910   0.462   8.766  1.00  0.00    -0.282 N 
ATOM     31  H12 UNL     1      25.869   0.719   9.753  1.00  0.00     0.188 HD
BRANCH  30  32
HETATM   32  C8  UNL     1      24.697   0.060   8.121  1.00  0.00     0.153 A 
HETATM   33  C9  UNL     1      23.430   0.531   8.379  1.00  0.00     0.159 A 
HETATM   34  N13 UNL     1      22.552  -0.098   7.559  1.00  0.00    -0.294 N 
HETATM   35  N14 UNL     1      23.270  -0.917   6.834  1.00  0.00    -0.241 N 
ATOM     36  H13 UNL     1      21.542   0.040   7.516  1.00  0.00     0.187 HD
HETATM   37  N15 UNL     1      24.553  -0.846   7.146  1.00  0.00    -0.269 N 
ATOM     38  H14 UNL     1      22.887  -1.533   6.118  1.00  0.00     0.208 HD
ATOM     39  H15 UNL     1      25.304  -1.389   6.717  1.00  0.00     0.190 HD
ENDBRANCH  30  32
ENDBRANCH  28  30
ENDBRANCH   9  28
TORSDOF 9
ENDMDL
MODEL 3
REMARK VINA RESULT: -5.454705257      2.983      3.877
REMARK  9 active torsions:
REMARK  status: ('A' for Active; 'I' for Inactive)
REMARK    1  A    between atoms: N1_1  and  N2_4 
REMARK    2  A    between atoms: N2_4  and  N3_5 
REMARK    3  A    between atoms: N3_5  and  O1_6 
REMARK    4  A    between atoms: N3_5  and  N4_8 
REMARK    5  A    between atoms: C2_16  and  N8_17 
REMARK    6  A    between atoms: N8_17  and  N9_19 
REMARK    7  A    between atoms: C7_27  and  N11_28 
REMARK    8  A    between atoms: N11_28  and  N12_30 
REMARK    9  A    between atoms: N12_30  and  C8_32 
ROOT
HETATM    1  N9  UNL     1      31.248   2.314   7.223  1.00  0.00    -0.287 N 
ATOM      2  H9  UNL     1      30.841   1.634   7.865  1.00  0.00     0.187 HD
HETATM    3  C3  UNL     1      30.517   2.824   6.306  1.00  0.00     0.071 C 
HETATM    4  C4  UNL     1      31.102   3.807   5.379  1.00  0.00     0.064 C 
HETATM    5  C5  UNL     1      30.114   4.944   5.201  1.00  0.00     0.026 C 
HETATM    6  C6  UNL     1      28.738   4.468   4.902  1.00  0.00     0.121 C 
HETATM    7  N10 UNL     1      28.344   3.239   5.510  1.00  0.00    -0.374 N 
ATOM      8  H10 UNL     1      27.366   2.961   5.419  1.00  0.00     0.161 HD
HETATM    9  C7  UNL     1      29.124   2.455   6.162  1.00  0.00     0.140 C 
ENDROOT
BRANCH   1  10
HETATM   10  N8  UNL     1      32.596   2.670   7.364  1.00  0.00    -0.128 N 
ATOM     11  H8  UNL     1      33.014   3.368   6.749  1.00  0.00     0.205 HD
BRANCH  10  12
HETATM   12  C2  UNL     1      33.373   2.042   8.378  1.00  0.00     0.748 A 
HETATM   13  N4  UNL     1      33.277   2.550   9.720  1.00  0.00     0.019 N 
HETATM   14  N5  UNL     1      34.032   1.944  10.718  1.00  0.00    -0.259 N 
HETATM   15  C1  UNL     1      34.869   0.854  10.379  1.00  0.00     0.216 A 
ATOM     16  H5  UNL     1      33.986   2.281  11.679  1.00  0.00     0.190 HD
HETATM   17  N6  UNL     1      34.899   0.461   9.154  1.00  0.00    -0.281 N 
HETATM   18  N7  UNL     1      34.154   1.044   8.127  1.00  0.00    -0.127 N 
ATOM     19  H6  UNL     1      35.504  -0.326   8.919  1.00  0.00     0.188 HD
ATOM     20  H7  UNL     1      34.228   0.681   7.176  1.00  0.00     0.206 HD
BRANCH  13  21
HETATM   21  N3  UNL     1      32.438   3.612   9.957  1.00  0.00     0.124 NA
BRANCH  21  22
HETATM   22  N2  UNL     1      31.187   3.154  10.199  1.00  0.00    -0.221 NA
BRANCH  22  23
HETATM   23  N1  UNL     1      30.130   2.790  10.409  1.00  0.00    -0.262 N 
ATOM     24  H12 UNL     1      30.829   2.592   9.694  1.00  0.00     0.193 HD
ATOM     25  H11 UNL     1      29.182   2.476  10.612  1.00  0.00     0.193 HD
ENDBRANCH  22  23
ENDBRANCH  21  22
BRANCH  21  26
HETATM   26  O1  UNL     1      32.816   4.378  11.014  1.00  0.00    -0.262 OA
ATOM     27  H1  UNL     1      33.251   5.152  10.676  1.00  0.00     0.242 HD
ENDBRANCH  21  26
ENDBRANCH  13  21
ENDBRANCH  10  12
ENDBRANCH   1  10
BRANCH   9  28
HETATM   28  N11 UNL     1      28.628   1.233   6.740  1.00  0.00    -0.282 N 
ATOM     29  H11 UNL     1      28.799   0.347   6.264  1.00  0.00     0.188 HD
BRANCH  28  30
HETATM   30  N12 UNL     1      27.929   1.242   7.920  1.00  0.00    -0.282 N 
ATOM     31  H12 UNL     1      28.443   1.423   8.783  1.00  0.00     0.188 HD
BRANCH  30  32
HETATM   32  C8  UNL     1      26.520   1.011   8.008  1.00  0.00     0.153 A 
HETATM   33  C9  UNL     1      25.538   1.599   7.243  1.00  0.00     0.159 A 
HETATM   34  N13 UNL     1      24.332   1.117   7.631  1.00  0.00    -0.294 N 
HETATM   35  N14 UNL     1      24.583   0.269   8.596  1.00  0.00    -0.241 N 
ATOM     36  H13 UNL     1      23.418   1.364   7.251  1.00  0.00     0.187 HD
HETATM   37  N15 UNL     1      25.879   0.184   8.844  1.00  0.00    -0.269 N 
ATOM     38  H14 UNL     1      23.868  -0.260   9.095  1.00  0.00     0.208 HD
ATOM     39  H15 UNL     1      26.315  -0.409   9.550  1.00  0.00     0.190 HD
ENDBRANCH  30  32
ENDBRANCH  28  30
ENDBRANCH   9  28
TORSDOF 9
ENDMDL
MODEL 4
REMARK VINA RESULT: -5.321803377      1.952      2.143
REMARK  9 active torsions:
REMARK  status: ('A' for Active; 'I' for Inactive)
REMARK    1  A    between atoms: N1_1  and  N2_4 
REMARK    2  A    between atoms: N2_4  and  N3_5 
REMARK    3  A    between atoms: N3_5  and  O1_6 
REMARK    4  A    between atoms: N3_5  and  N4_8 
REMARK    5  A    between atoms: C2_16  and  N8_17 
REMARK    6  A    between atoms: N8_17  and  N9_19 
REMARK    7  A    between atoms: C7_27  and  N11_28 
REMARK    8  A    between atoms: N11_28  and  N12_30 
REMARK    9  A    between atoms: N12_30  and  C8_32 
ROOT
HETATM    1  N9  UNL     1      32.567   4.537   7.184  1.00  0.00    -0.287 N 
ATOM      2  H9  UNL     1      32.296   3.720   7.733  1.00  0.00     0.187 HD
HETATM    3  C3  UNL     1      32.040   4.721   6.034  1.00  0.00     0.071 C 
HETATM    4  C4  UNL     1      32.428   5.900   5.242  1.00  0.00     0.064 C 
HETATM    5  C5  UNL     1      31.174   6.504   4.639  1.00  0.00     0.026 C 
HETATM    6  C6  UNL     1      30.313   5.494   3.971  1.00  0.00     0.121 C 
HETATM    7  N10 UNL     1      30.295   4.190   4.549  1.00  0.00    -0.374 N 
ATOM      8  H10 UNL     1      29.618   3.521   4.183  1.00  0.00     0.161 HD
HETATM    9  C7  UNL     1      31.067   3.793   5.496  1.00  0.00     0.140 C 
ENDROOT
BRANCH   1  10
HETATM   10  N8  UNL     1      33.508   5.434   7.708  1.00  0.00    -0.128 N 
ATOM     11  H8  UNL     1      33.270   6.418   7.833  1.00  0.00     0.205 HD
BRANCH  10  12
HETATM   12  C2  UNL     1      34.799   4.951   8.063  1.00  0.00     0.748 A 
HETATM   13  N4  UNL     1      34.888   3.914   9.055  1.00  0.00     0.019 N 
HETATM   14  N5  UNL     1      36.145   3.436   9.409  1.00  0.00    -0.259 N 
HETATM   15  C1  UNL     1      37.290   3.987   8.783  1.00  0.00     0.216 A 
ATOM     16  H5  UNL     1      36.241   2.701  10.109  1.00  0.00     0.190 HD
HETATM   17  N6  UNL     1      37.124   4.913   7.906  1.00  0.00    -0.281 N 
HETATM   18  N7  UNL     1      35.879   5.416   7.526  1.00  0.00    -0.127 N 
ATOM     19  H6  UNL     1      37.954   5.303   7.460  1.00  0.00     0.188 HD
ATOM     20  H7  UNL     1      35.821   6.153   6.822  1.00  0.00     0.206 HD
BRANCH  13  21
HETATM   21  N3  UNL     1      33.724   3.438   9.608  1.00  0.00     0.124 NA
BRANCH  21  22
HETATM   22  N2  UNL     1      34.008   2.419  10.453  1.00  0.00    -0.221 NA
BRANCH  22  23
HETATM   23  N1  UNL     1      34.230   1.569  11.175  1.00  0.00    -0.262 N 
ATOM     24  H12 UNL     1      33.820   1.631  10.243  1.00  0.00     0.193 HD
ATOM     25  H11 UNL     1      34.436   0.820  11.835  1.00  0.00     0.193 HD
ENDBRANCH  22  23
ENDBRANCH  21  22
BRANCH  21  26
HETATM   26  O1  UNL     1      33.029   4.378  10.303  1.00  0.00    -0.262 OA
ATOM     27  H1  UNL     1      33.392   5.229  10.088  1.00  0.00     0.242 HD
ENDBRANCH  21  26
ENDBRANCH  13  21
ENDBRANCH  10  12
ENDBRANCH   1  10
BRANCH   9  28
HETATM   28  N11 UNL     1      30.972   2.452   6.013  1.00  0.00    -0.282 N 
ATOM     29  H11 UNL     1      31.606   1.733   5.665  1.00  0.00     0.188 HD
BRANCH  28  30
HETATM   30  N12 UNL     1      30.040   2.127   6.965  1.00  0.00    -0.282 N 
ATOM     31  H12 UNL     1      29.248   1.548   6.686  1.00  0.00     0.188 HD
BRANCH  30  32
HETATM   32  C8  UNL     1      30.120   2.555   8.328  1.00  0.00     0.153 A 
HETATM   33  C9  UNL     1      29.321   3.489   8.948  1.00  0.00     0.159 A 
HETATM   34  N13 UNL     1      29.713   3.614  10.240  1.00  0.00    -0.294 N 
HETATM   35  N14 UNL     1      30.712   2.782  10.389  1.00  0.00    -0.241 N 
ATOM     36  H13 UNL     1      29.312   4.228  10.949  1.00  0.00     0.187 HD
HETATM   37  N15 UNL     1      30.979   2.136   9.266  1.00  0.00    -0.269 N 
ATOM     38  H14 UNL     1      31.222   2.649  11.262  1.00  0.00     0.208 HD
ATOM     39  H15 UNL     1      31.713   1.439   9.137  1.00  0.00     0.190 HD
ENDBRANCH  30  32
ENDBRANCH  28  30
ENDBRANCH   9  28
TORSDOF 9
ENDMDL
MODEL 5
REMARK VINA RESULT: -5.238673100      2.869      4.458
REMARK  9 active torsions:
REMARK  status: ('A' for Active; 'I' for Inactive)
REMARK    1  A    between atoms: N1_1  and  N2_4 
REMARK    2  A    between atoms: N2_4  and  N3_5 
REMARK    3  A    between atoms: N3_5  and  O1_6 
REMARK    4  A    between atoms: N3_5  and  N4_8 
REMARK    5  A    between atoms: C2_16  and  N8_17 
REMARK    6  A    between atoms: N8_17  and  N9_19 
REMARK    7  A    between atoms: C7_27  and  N11_28 
REMARK    8  A    between atoms: N11_28  and  N12_30 
REMARK    9  A    between atoms: N12_30  and  C8_32 
ROOT
HETATM    1  N9  UNL     1      31.098   3.888   7.090  1.00  0.00    -0.287 N 
ATOM      2  H9  UNL     1      31.215   4.471   7.919  1.00  0.00     0.187 HD
HETATM    3  C3  UNL     1      30.302   2.888   7.135  1.00  0.00     0.071 C 
HETATM    4  C4  UNL     1      30.131   2.048   5.938  1.00  0.00     0.064 C 
HETATM    5  C5  UNL     1      28.653   1.750   5.770  1.00  0.00     0.026 C 
HETATM    6  C6  UNL     1      28.016   1.278   7.026  1.00  0.00     0.121 C 
HETATM    7  N10 UNL     1      28.522   1.825   8.243  1.00  0.00    -0.374 N 
ATOM      8  H10 UNL     1      28.017   1.609   9.103  1.00  0.00     0.161 HD
HETATM    9  C7  UNL     1      29.565   2.568   8.339  1.00  0.00     0.140 C 
ENDROOT
BRANCH   1  10
HETATM   10  N8  UNL     1      31.813   4.201   5.926  1.00  0.00    -0.128 N 
ATOM     11  H8  UNL     1      32.015   3.480   5.234  1.00  0.00     0.205 HD
BRANCH  10  12
HETATM   12  C2  UNL     1      32.251   5.540   5.723  1.00  0.00     0.748 A 
HETATM   13  N4  UNL     1      33.215   6.086   6.640  1.00  0.00     0.019 N 
HETATM   14  N5  UNL     1      33.650   7.393   6.451  1.00  0.00    -0.259 N 
HETATM   15  C1  UNL     1      33.128   8.140   5.367  1.00  0.00     0.216 A 
ATOM     16  H5  UNL     1      34.333   7.808   7.084  1.00  0.00     0.190 HD
HETATM   17  N6  UNL     1      32.268   7.578   4.593  1.00  0.00    -0.281 N 
HETATM   18  N7  UNL     1      31.810   6.269   4.751  1.00  0.00    -0.127 N 
ATOM     19  H6  UNL     1      31.899   8.123   3.813  1.00  0.00     0.188 HD
ATOM     20  H7  UNL     1      31.125   5.887   4.099  1.00  0.00     0.206 HD
BRANCH  13  21
HETATM   21  N3  UNL     1      33.667   5.288   7.664  1.00  0.00     0.124 NA
BRANCH  21  22
HETATM   22  N2  UNL     1      34.451   4.306   7.159  1.00  0.00    -0.221 NA
BRANCH  22  23
HETATM   23  N1  UNL     1      35.121   3.481   6.754  1.00  0.00    -0.262 N 
ATOM     24  H12 UNL     1      35.069   3.998   7.631  1.00  0.00     0.193 HD
ATOM     25  H11 UNL     1      35.711   2.742   6.374  1.00  0.00     0.193 HD
ENDBRANCH  22  23
ENDBRANCH  21  22
BRANCH  21  26
HETATM   26  O1  UNL     1      34.386   5.960   8.600  1.00  0.00    -0.262 OA
ATOM     27  H1  UNL     1      33.782   6.291   9.254  1.00  0.00     0.242 HD
ENDBRANCH  21  26
ENDBRANCH  13  21
ENDBRANCH  10  12
ENDBRANCH   1  10
BRANCH   9  28
HETATM   28  N11 UNL     1      29.997   3.073   9.617  1.00  0.00    -0.282 N 
ATOM     29  H11 UNL     1      29.626   3.960   9.958  1.00  0.00     0.188 HD
BRANCH  28  30
HETATM   30  N12 UNL     1      30.898   2.378  10.383  1.00  0.00    -0.282 N 
ATOM     31  H12 UNL     1      30.539   1.682  11.037  1.00  0.00     0.188 HD
BRANCH  30  32
HETATM   32  C8  UNL     1      32.313   2.577  10.315  1.00  0.00     0.153 A 
HETATM   33  C9  UNL     1      33.289   1.616  10.456  1.00  0.00     0.159 A 
HETATM   34  N13 UNL     1      34.505   2.203  10.326  1.00  0.00    -0.294 N 
HETATM   35  N14 UNL     1      34.264   3.472  10.114  1.00  0.00    -0.241 N 
ATOM     36  H13 UNL     1      35.416   1.749  10.382  1.00  0.00     0.187 HD
HETATM   37  N15 UNL     1      32.966   3.727  10.102  1.00  0.00    -0.269 N 
ATOM     38  H14 UNL     1      34.988   4.177   9.976  1.00  0.00     0.208 HD
ATOM     39  H15 UNL     1      32.538   4.640   9.956  1.00  0.00     0.190 HD
ENDBRANCH  30  32
ENDBRANCH  28  30
ENDBRANCH   9  28
TORSDOF 9
ENDMDL
