MODEL 1
REMARK VINA RESULT: -6.163387764      0.000      0.000
REMARK  6 active torsions:
REMARK  status: ('A' for Active; 'I' for Inactive)
REMARK       I    between atoms: N1_2  and  C2_4 
REMARK       I    between atoms: C2_4  and  N2_6 
REMARK    1  A    between atoms: N2_6  and  N3_8 
REMARK    2  A    between atoms: C3_10  and  C4_11 
REMARK    3  A    between atoms: N6_18  and  C6_19 
REMARK    4  A    between atoms: C7_20  and  N7_21 
REMARK    5  A    between atoms: N9_29  and  O5_30 
REMARK    6  A    between atoms: C10_32  and  O6_33 
ROOT
HETATM    1  C4  UNL     1      23.494  -1.994   6.541  1.00  0.00     0.117 A 
HETATM    2  N4  UNL     1      22.908  -1.166   7.425  1.00  0.00    -0.186 N 
ATOM      3  H4  UNL     1      22.103  -1.409   8.002  1.00  0.00     0.184 HD
HETATM    4  C5  UNL     1      23.529   0.023   7.444  1.00  0.00     0.686 A 
HETATM    5  N5  UNL     1      23.233   1.060   8.177  1.00  0.00    -0.234 N 
ATOM      6  H51 UNL     1      23.705   1.965   8.191  1.00  0.00     0.174 HD
ATOM      7  H52 UNL     1      22.469   1.103   8.851  1.00  0.00     0.174 HD
HETATM    8  N6  UNL     1      24.545  -0.034   6.549  1.00  0.00    -0.103 N 
HETATM    9  C10 UNL     1      24.527  -1.262   5.996  1.00  0.00     0.194 A 
ENDROOT
BRANCH   8  10
HETATM   10  C6  UNL     1      25.421   1.048   6.306  1.00  0.00     0.212 A 
HETATM   11  C7  UNL     1      25.389   1.857   5.193  1.00  0.00     0.221 A 
HETATM   12  N8  UNL     1      26.273   2.881   5.041  1.00  0.00    -0.339 N 
HETATM   13  C8  UNL     1      27.202   3.136   5.970  1.00  0.00     0.167 A 
ATOM     14  H8  UNL     1      26.226   3.464   4.205  1.00  0.00     0.167 HD
HETATM   15  C9  UNL     1      27.239   2.331   7.086  1.00  0.00     0.288 A 
HETATM   16  O4  UNL     1      28.125   2.575   7.970  1.00  0.00    -0.264 OA
HETATM   17  N9  UNL     1      26.367   1.326   7.226  1.00  0.00    -0.164 N 
BRANCH  11  18
HETATM   18  N7  UNL     1      24.402   1.602   4.188  1.00  0.00    -0.094 N 
HETATM   19  O2  UNL     1      24.686   0.878   3.215  1.00  0.00    -0.530 OA
HETATM   20  O3  UNL     1      23.142   2.133   4.258  1.00  0.00    -0.530 OA
ENDBRANCH  11  18
BRANCH  17  21
HETATM   21  O5  UNL     1      26.440   0.548   8.357  1.00  0.00    -0.278 OA
ATOM     22  H5  UNL     1      27.277   0.166   8.596  1.00  0.00     0.245 HD
ENDBRANCH  17  21
ENDBRANCH   8  10
BRANCH   9  23
HETATM   23  O6  UNL     1      25.430  -1.688   5.027  1.00  0.00    -0.344 OA
ATOM     24  H6  UNL     1      25.807  -2.556   4.944  1.00  0.00     0.219 HD
ENDBRANCH   9  23
BRANCH   1  25
HETATM   25  C3  UNL     1      23.109  -3.366   6.235  1.00  0.00     0.141 C 
HETATM   26  N3  UNL     1      24.023  -4.258   6.051  1.00  0.00    -0.306 N 
ATOM     27  H3  UNL     1      24.999  -3.969   6.126  1.00  0.00     0.186 HD
BRANCH  26  28
HETATM   28  N2  UNL     1      23.756  -5.583   5.757  1.00  0.00    -0.252 N 
HETATM   29  C2  UNL     1      24.453  -6.302   4.746  1.00  0.00     0.334 C 
HETATM   30  N1  UNL     1      24.171  -7.663   4.452  1.00  0.00    -0.346 N 
HETATM   31  O1  UNL     1      25.349  -5.700   4.097  1.00  0.00    -0.246 OA
HETATM   32  C1  UNL     1      24.907  -8.352   3.415  1.00  0.00     0.151 C 
ATOM     33  H1  UNL     1      23.448  -8.156   4.975  1.00  0.00     0.163 HD
ATOM     34  H2  UNL     1      23.030  -6.065   6.287  1.00  0.00     0.191 HD
ENDBRANCH  26  28
ENDBRANCH   1  25
TORSDOF 6
ENDMDL
MODEL 2
REMARK VINA RESULT: -6.063294964      1.235      2.639
REMARK  6 active torsions:
REMARK  status: ('A' for Active; 'I' for Inactive)
REMARK       I    between atoms: N1_2  and  C2_4 
REMARK       I    between atoms: C2_4  and  N2_6 
REMARK    1  A    between atoms: N2_6  and  N3_8 
REMARK    2  A    between atoms: C3_10  and  C4_11 
REMARK    3  A    between atoms: N6_18  and  C6_19 
REMARK    4  A    between atoms: C7_20  and  N7_21 
REMARK    5  A    between atoms: N9_29  and  O5_30 
REMARK    6  A    between atoms: C10_32  and  O6_33 
ROOT
HETATM    1  C4  UNL     1      23.321  -2.681   6.087  1.00  0.00     0.117 A 
HETATM    2  N4  UNL     1      22.551  -1.942   6.907  1.00  0.00    -0.186 N 
ATOM      3  H4  UNL     1      21.676  -2.259   7.322  1.00  0.00     0.184 HD
HETATM    4  C5  UNL     1      23.095  -0.732   7.104  1.00  0.00     0.686 A 
HETATM    5  N5  UNL     1      22.625   0.238   7.838  1.00  0.00    -0.234 N 
ATOM      6  H51 UNL     1      23.039   1.159   7.987  1.00  0.00     0.174 HD
ATOM      7  H52 UNL     1      21.758   0.202   8.372  1.00  0.00     0.174 HD
HETATM    8  N6  UNL     1      24.249  -0.684   6.394  1.00  0.00    -0.103 N 
HETATM    9  C10 UNL     1      24.390  -1.870   5.772  1.00  0.00     0.194 A 
ENDROOT
BRANCH   8  10
HETATM   10  C6  UNL     1      25.093   0.449   6.370  1.00  0.00     0.212 A 
HETATM   11  C7  UNL     1      26.054   0.739   7.311  1.00  0.00     0.221 A 
HETATM   12  N8  UNL     1      26.827   1.855   7.208  1.00  0.00    -0.339 N 
HETATM   13  C8  UNL     1      26.677   2.708   6.187  1.00  0.00     0.167 A 
ATOM     14  H8  UNL     1      27.532   2.045   7.921  1.00  0.00     0.167 HD
HETATM   15  C9  UNL     1      25.717   2.424   5.243  1.00  0.00     0.288 A 
HETATM   16  O4  UNL     1      25.575   3.237   4.271  1.00  0.00    -0.264 OA
HETATM   17  N9  UNL     1      24.963   1.325   5.352  1.00  0.00    -0.164 N 
BRANCH  11  18
HETATM   18  N7  UNL     1      26.232  -0.161   8.409  1.00  0.00    -0.094 N 
HETATM   19  O2  UNL     1      27.123  -1.031   8.355  1.00  0.00    -0.530 OA
HETATM   20  O3  UNL     1      25.450  -0.100   9.532  1.00  0.00    -0.530 OA
ENDBRANCH  11  18
BRANCH  17  21
HETATM   21  O5  UNL     1      24.016   1.081   4.386  1.00  0.00    -0.278 OA
ATOM     22  H5  UNL     1      23.486   0.294   4.452  1.00  0.00     0.245 HD
ENDBRANCH  17  21
ENDBRANCH   8  10
BRANCH   9  23
HETATM   23  O6  UNL     1      25.464  -2.189   4.948  1.00  0.00    -0.344 OA
ATOM     24  H6  UNL     1      25.500  -2.890   4.307  1.00  0.00     0.219 HD
ENDBRANCH   9  23
BRANCH   1  25
HETATM   25  C3  UNL     1      23.067  -4.044   5.637  1.00  0.00     0.141 C 
HETATM   26  N3  UNL     1      23.958  -4.956   5.833  1.00  0.00    -0.306 N 
ATOM     27  H3  UNL     1      24.824  -4.689   6.304  1.00  0.00     0.186 HD
BRANCH  26  28
HETATM   28  N2  UNL     1      23.808  -6.275   5.443  1.00  0.00    -0.252 N 
HETATM   29  C2  UNL     1      24.549  -6.848   4.371  1.00  0.00     0.334 C 
HETATM   30  N1  UNL     1      24.387  -8.204   3.978  1.00  0.00    -0.346 N 
HETATM   31  O1  UNL     1      25.373  -6.119   3.760  1.00  0.00    -0.246 OA
HETATM   32  C1  UNL     1      25.163  -8.742   2.882  1.00  0.00     0.151 C 
ATOM     33  H1  UNL     1      23.721  -8.799   4.470  1.00  0.00     0.163 HD
ATOM     34  H2  UNL     1      23.139  -6.860   5.943  1.00  0.00     0.191 HD
ENDBRANCH  26  28
ENDBRANCH   1  25
TORSDOF 6
ENDMDL
MODEL 3
REMARK VINA RESULT: -5.936588860      3.005      7.560
REMARK  6 active torsions:
REMARK  status: ('A' for Active; 'I' for Inactive)
REMARK       I    between atoms: N1_2  and  C2_4 
REMARK       I    between atoms: C2_4  and  N2_6 
REMARK    1  A    between atoms: N2_6  and  N3_8 
REMARK    2  A    between atoms: C3_10  and  C4_11 
REMARK    3  A    between atoms: N6_18  and  C6_19 
REMARK    4  A    between atoms: C7_20  and  N7_21 
REMARK    5  A    between atoms: N9_29  and  O5_30 
REMARK    6  A    between atoms: C10_32  and  O6_33 
ROOT
HETATM    1  C4  UNL     1      27.475   2.113   7.209  1.00  0.00     0.117 A 
HETATM    2  N4  UNL     1      26.822   2.568   6.124  1.00  0.00    -0.186 N 
ATOM      3  H4  UNL     1      26.949   3.495   5.718  1.00  0.00     0.184 HD
HETATM    4  C5  UNL     1      25.984   1.635   5.649  1.00  0.00     0.686 A 
HETATM    5  N5  UNL     1      25.196   1.730   4.614  1.00  0.00    -0.234 N 
ATOM      6  H51 UNL     1      24.558   1.020   4.254  1.00  0.00     0.174 HD
ATOM      7  H52 UNL     1      25.113   2.550   4.014  1.00  0.00     0.174 HD
HETATM    8  N6  UNL     1      26.095   0.545   6.447  1.00  0.00    -0.103 N 
HETATM    9  C10 UNL     1      27.002   0.832   7.399  1.00  0.00     0.194 A 
ENDROOT
BRANCH   8  10
HETATM   10  C6  UNL     1      25.354  -0.641   6.240  1.00  0.00     0.212 A 
HETATM   11  C7  UNL     1      24.056  -0.844   6.646  1.00  0.00     0.221 A 
HETATM   12  N8  UNL     1      23.416  -2.021   6.403  1.00  0.00    -0.339 N 
HETATM   13  C8  UNL     1      24.031  -3.020   5.759  1.00  0.00     0.167 A 
ATOM     14  H8  UNL     1      22.453  -2.143   6.716  1.00  0.00     0.167 HD
HETATM   15  C9  UNL     1      25.330  -2.824   5.350  1.00  0.00     0.288 A 
HETATM   16  O4  UNL     1      25.915  -3.778   4.737  1.00  0.00    -0.264 OA
HETATM   17  N9  UNL     1      25.950  -1.665   5.594  1.00  0.00    -0.164 N 
BRANCH  11  18
HETATM   18  N7  UNL     1      23.379   0.214   7.335  1.00  0.00    -0.094 N 
HETATM   19  O2  UNL     1      22.721   1.049   6.686  1.00  0.00    -0.530 OA
HETATM   20  O3  UNL     1      23.431   0.343   8.697  1.00  0.00    -0.530 OA
ENDBRANCH  11  18
BRANCH  17  21
HETATM   21  O5  UNL     1      27.248  -1.513   5.168  1.00  0.00    -0.278 OA
ATOM     22  H5  UNL     1      27.946  -1.521   5.813  1.00  0.00     0.245 HD
ENDBRANCH  17  21
ENDBRANCH   8  10
BRANCH   9  23
HETATM   23  O6  UNL     1      27.379  -0.055   8.403  1.00  0.00    -0.344 OA
ATOM     24  H6  UNL     1      27.765  -0.914   8.286  1.00  0.00     0.219 HD
ENDBRANCH   9  23
BRANCH   1  25
HETATM   25  C3  UNL     1      28.465   2.830   8.003  1.00  0.00     0.141 C 
HETATM   26  N3  UNL     1      29.271   2.170   8.764  1.00  0.00    -0.306 N 
ATOM     27  H3  UNL     1      29.186   1.153   8.786  1.00  0.00     0.186 HD
BRANCH  26  28
HETATM   28  N2  UNL     1      30.241   2.761   9.553  1.00  0.00    -0.252 N 
HETATM   29  C2  UNL     1      31.597   2.887   9.137  1.00  0.00     0.334 C 
HETATM   30  N1  UNL     1      32.587   3.497   9.955  1.00  0.00    -0.346 N 
HETATM   31  O1  UNL     1      31.917   2.440   8.005  1.00  0.00    -0.246 OA
HETATM   32  C1  UNL     1      33.952   3.601   9.489  1.00  0.00     0.151 C 
ATOM     33  H1  UNL     1      32.333   3.861  10.872  1.00  0.00     0.163 HD
ATOM     34  H2  UNL     1      29.975   3.122  10.469  1.00  0.00     0.191 HD
ENDBRANCH  26  28
ENDBRANCH   1  25
TORSDOF 6
ENDMDL
MODEL 4
REMARK VINA RESULT: -5.869837154      3.309      7.703
REMARK  6 active torsions:
REMARK  status: ('A' for Active; 'I' for Inactive)
REMARK       I    between atoms: N1_2  and  C2_4 
REMARK       I    between atoms: C2_4  and  N2_6 
REMARK    1  A    between atoms: N2_6  and  N3_8 
REMARK    2  A    between atoms: C3_10  and  C4_11 
REMARK    3  A    between atoms: N6_18  and  C6_19 
REMARK    4  A    between atoms: C7_20  and  N7_21 
REMARK    5  A    between atoms: N9_29  and  O5_30 
REMARK    6  A    between atoms: C10_32  and  O6_33 
ROOT
HETATM    1  C4  UNL     1      27.893   2.787   7.332  1.00  0.00     0.117 A 
HETATM    2  N4  UNL     1      27.219   3.358   6.317  1.00  0.00    -0.186 N 
ATOM      3  H4  UNL     1      27.389   4.300   5.966  1.00  0.00     0.184 HD
HETATM    4  C5  UNL     1      26.294   2.517   5.830  1.00  0.00     0.686 A 
HETATM    5  N5  UNL     1      25.463   2.735   4.849  1.00  0.00    -0.234 N 
ATOM      6  H51 UNL     1      24.759   2.096   4.480  1.00  0.00     0.174 HD
ATOM      7  H52 UNL     1      25.406   3.599   4.309  1.00  0.00     0.174 HD
HETATM    8  N6  UNL     1      26.369   1.370   6.548  1.00  0.00    -0.103 N 
HETATM    9  C10 UNL     1      27.342   1.530   7.465  1.00  0.00     0.194 A 
ENDROOT
BRANCH   8  10
HETATM   10  C6  UNL     1      25.538   0.253   6.306  1.00  0.00     0.212 A 
HETATM   11  C7  UNL     1      25.763  -0.708   5.348  1.00  0.00     0.221 A 
HETATM   12  N8  UNL     1      24.908  -1.755   5.185  1.00  0.00    -0.339 N 
HETATM   13  C8  UNL     1      23.819  -1.883   5.953  1.00  0.00     0.167 A 
ATOM     14  H8  UNL     1      25.100  -2.452   4.466  1.00  0.00     0.167 HD
HETATM   15  C9  UNL     1      23.588  -0.925   6.913  1.00  0.00     0.288 A 
HETATM   16  O4  UNL     1      22.550  -1.049   7.644  1.00  0.00    -0.264 OA
HETATM   17  N9  UNL     1      24.433   0.100   7.066  1.00  0.00    -0.164 N 
BRANCH  11  18
HETATM   18  N7  UNL     1      26.923  -0.590   4.518  1.00  0.00    -0.094 N 
HETATM   19  O2  UNL     1      27.975  -1.174   4.842  1.00  0.00    -0.530 OA
HETATM   20  O3  UNL     1      26.919   0.150   3.366  1.00  0.00    -0.530 OA
ENDBRANCH  11  18
BRANCH  17  21
HETATM   21  O5  UNL     1      24.163   1.034   8.038  1.00  0.00    -0.278 OA
ATOM     22  H5  UNL     1      23.419   0.894   8.613  1.00  0.00     0.245 HD
ENDBRANCH  17  21
ENDBRANCH   8  10
BRANCH   9  23
HETATM   23  O6  UNL     1      27.708   0.554   8.386  1.00  0.00    -0.344 OA
ATOM     24  H6  UNL     1      28.053   0.697   9.259  1.00  0.00     0.219 HD
ENDBRANCH   9  23
BRANCH   1  25
HETATM   25  C3  UNL     1      28.970   3.381   8.115  1.00  0.00     0.141 C 
HETATM   26  N3  UNL     1      29.619   2.654   8.960  1.00  0.00    -0.306 N 
ATOM     27  H3  UNL     1      29.353   1.673   9.054  1.00  0.00     0.186 HD
BRANCH  26  28
HETATM   28  N2  UNL     1      30.655   3.127   9.745  1.00  0.00    -0.252 N 
HETATM   29  C2  UNL     1      32.004   3.170   9.293  1.00  0.00     0.334 C 
HETATM   30  N1  UNL     1      33.061   3.659  10.107  1.00  0.00    -0.346 N 
HETATM   31  O1  UNL     1      32.256   2.759   8.130  1.00  0.00    -0.246 OA
HETATM   32  C1  UNL     1      34.417   3.683   9.604  1.00  0.00     0.151 C 
ATOM     33  H1  UNL     1      32.863   3.994  11.050  1.00  0.00     0.163 HD
ATOM     34  H2  UNL     1      30.444   3.459  10.686  1.00  0.00     0.191 HD
ENDBRANCH  26  28
ENDBRANCH   1  25
TORSDOF 6
ENDMDL
MODEL 5
REMARK VINA RESULT: -5.864383741      4.196      8.093
REMARK  6 active torsions:
REMARK  status: ('A' for Active; 'I' for Inactive)
REMARK       I    between atoms: N1_2  and  C2_4 
REMARK       I    between atoms: C2_4  and  N2_6 
REMARK    1  A    between atoms: N2_6  and  N3_8 
REMARK    2  A    between atoms: C3_10  and  C4_11 
REMARK    3  A    between atoms: N6_18  and  C6_19 
REMARK    4  A    between atoms: C7_20  and  N7_21 
REMARK    5  A    between atoms: N9_29  and  O5_30 
REMARK    6  A    between atoms: C10_32  and  O6_33 
ROOT
HETATM    1  C4  UNL     1      28.884   2.389   8.037  1.00  0.00     0.117 A 
HETATM    2  N4  UNL     1      28.873   1.044   7.976  1.00  0.00    -0.186 N 
ATOM      3  H4  UNL     1      29.599   0.441   8.361  1.00  0.00     0.184 HD
HETATM    4  C5  UNL     1      27.775   0.608   7.341  1.00  0.00     0.686 A 
HETATM    5  N5  UNL     1      27.438  -0.629   7.101  1.00  0.00    -0.234 N 
ATOM      6  H51 UNL     1      26.603  -0.961   6.617  1.00  0.00     0.174 HD
ATOM      7  H52 UNL     1      27.980  -1.449   7.373  1.00  0.00     0.174 HD
HETATM    8  N6  UNL     1      27.054   1.697   6.980  1.00  0.00    -0.103 N 
HETATM    9  C10 UNL     1      27.726   2.785   7.402  1.00  0.00     0.194 A 
ENDROOT
BRANCH   8  10
HETATM   10  C6  UNL     1      25.824   1.613   6.289  1.00  0.00     0.212 A 
HETATM   11  C7  UNL     1      25.620   2.005   4.986  1.00  0.00     0.221 A 
HETATM   12  N8  UNL     1      24.399   1.886   4.397  1.00  0.00    -0.339 N 
HETATM   13  C8  UNL     1      23.355   1.384   5.067  1.00  0.00     0.167 A 
ATOM     14  H8  UNL     1      24.277   2.186   3.429  1.00  0.00     0.167 HD
HETATM   15  C9  UNL     1      23.552   0.990   6.370  1.00  0.00     0.288 A 
HETATM   16  O4  UNL     1      22.556   0.511   7.008  1.00  0.00    -0.264 OA
HETATM   17  N9  UNL     1      24.755   1.110   6.941  1.00  0.00    -0.164 N 
BRANCH  11  18
HETATM   18  N7  UNL     1      26.724   2.544   4.251  1.00  0.00    -0.094 N 
HETATM   19  O2  UNL     1      27.529   1.772   3.694  1.00  0.00    -0.530 OA
HETATM   20  O3  UNL     1      26.931   3.892   4.136  1.00  0.00    -0.530 OA
ENDBRANCH  11  18
BRANCH  17  21
HETATM   21  O5  UNL     1      24.906   0.704   8.246  1.00  0.00    -0.278 OA
ATOM     22  H5  UNL     1      24.157   0.336   8.700  1.00  0.00     0.245 HD
ENDBRANCH  17  21
ENDBRANCH   8  10
BRANCH   9  23
HETATM   23  O6  UNL     1      27.287   4.090   7.209  1.00  0.00    -0.344 OA
ATOM     24  H6  UNL     1      26.812   4.425   6.457  1.00  0.00     0.219 HD
ENDBRANCH   9  23
BRANCH   1  25
HETATM   25  C3  UNL     1      29.905   3.232   8.646  1.00  0.00     0.141 C 
HETATM   26  N3  UNL     1      30.822   2.695   9.378  1.00  0.00    -0.306 N 
ATOM     27  H3  UNL     1      30.801   1.683   9.508  1.00  0.00     0.186 HD
BRANCH  26  28
HETATM   28  N2  UNL     1      31.830   3.412   9.996  1.00  0.00    -0.252 N 
HETATM   29  C2  UNL     1      33.056   3.729   9.346  1.00  0.00     0.334 C 
HETATM   30  N1  UNL     1      34.086   4.467   9.990  1.00  0.00    -0.346 N 
HETATM   31  O1  UNL     1      33.221   3.339   8.161  1.00  0.00    -0.246 OA
HETATM   32  C1  UNL     1      35.316   4.766   9.289  1.00  0.00     0.151 C 
ATOM     33  H1  UNL     1      33.958   4.787  10.950  1.00  0.00     0.163 HD
ATOM     34  H2  UNL     1      31.690   3.726  10.956  1.00  0.00     0.191 HD
ENDBRANCH  26  28
ENDBRANCH   1  25
TORSDOF 6
ENDMDL
