MODEL 1
REMARK VINA RESULT: -5.851304226      0.000      0.000
REMARK  8 active torsions:
REMARK  status: ('A' for Active; 'I' for Inactive)
REMARK    1  A    between atoms: O1_2  and  C2_3 
REMARK    2  A    between atoms: C2_3  and  C3_5 
REMARK    3  A    between atoms: C4_8  and  C5_9 
REMARK       I    between atoms: C5_9  and  N2_11 
REMARK    4  A    between atoms: N2_11  and  N3_13 
REMARK    5  A    between atoms: C6_20  and  C7_21 
REMARK    6  A    between atoms: C8_23  and  N6_24 
REMARK    7  A    between atoms: C9_29  and  C10_30 
REMARK       I    between atoms: C10_30  and  N8_32 
REMARK    8  A    between atoms: N8_32  and  N9_34 
ROOT
HETATM    1  C3  UNL     1      34.925   0.201   9.664  1.00  0.00     0.140 A 
HETATM    2  N1  UNL     1      35.093  -0.752  10.640  1.00  0.00    -0.330 N 
ATOM      3  H1  UNL     1      35.349  -1.702  10.371  1.00  0.00     0.168 HD
HETATM    4  C4  UNL     1      34.926  -0.457  11.939  1.00  0.00     0.191 A 
HETATM    5  N4  UNL     1      34.589   0.790  12.290  1.00  0.00    -0.280 N 
ATOM      6  H4  UNL     1      34.458   1.029  13.273  1.00  0.00     0.188 HD
HETATM    7  N5  UNL     1      34.434   1.678  11.389  1.00  0.00    -0.295 N 
ATOM      8  H5  UNL     1      34.176   2.621  11.682  1.00  0.00     0.187 HD
HETATM    9  C6  UNL     1      34.592   1.442  10.050  1.00  0.00     0.100 A 
ENDROOT
BRANCH   9  10
HETATM   10  C7  UNL     1      34.570   2.657   9.222  1.00  0.00     0.071 A 
HETATM   11  S1  UNL     1      35.917   3.510   8.576  1.00  0.00    -0.050 SA
HETATM   12  C8  UNL     1      35.095   4.739   7.754  1.00  0.00     0.143 A 
HETATM   13  N7  UNL     1      33.824   4.449   8.005  1.00  0.00    -0.331 N 
HETATM   14  C9  UNL     1      33.528   3.401   8.744  1.00  0.00     0.124 A 
ATOM     15  H7  UNL     1      33.080   5.037   7.628  1.00  0.00     0.168 HD
BRANCH  12  16
HETATM   16  N6  UNL     1      35.567   5.746   7.039  1.00  0.00    -0.380 N 
ATOM     17  H62 UNL     1      36.462   5.797   6.552  1.00  0.00     0.158 HD
ATOM     18  H61 UNL     1      35.150   6.652   6.827  1.00  0.00     0.158 HD
ENDBRANCH  12  16
BRANCH  14  19
HETATM   19  C10 UNL     1      32.105   3.014   8.939  1.00  0.00     0.287 C 
HETATM   20  O4  UNL     1      31.494   2.480   8.007  1.00  0.00    -0.264 OA
HETATM   21  N8  UNL     1      31.433   3.245  10.180  1.00  0.00    -0.271 N 
ATOM     22  H8  UNL     1      31.944   3.687  10.944  1.00  0.00     0.189 HD
BRANCH  21  23
HETATM   23  N9  UNL     1      30.102   2.886  10.374  1.00  0.00    -0.342 N 
ATOM     24  H92 UNL     1      29.720   2.132   9.803  1.00  0.00     0.176 HD
ATOM     25  H91 UNL     1      29.513   3.353  11.064  1.00  0.00     0.176 HD
ENDBRANCH  21  23
ENDBRANCH  14  19
ENDBRANCH   9  10
BRANCH   1  26
HETATM   26  C2  UNL     1      35.064  -0.219   8.292  1.00  0.00     0.312 C 
HETATM   27  O2  UNL     1      36.046  -0.785   7.811  1.00  0.00    -0.258 OA
BRANCH  26  28
HETATM   28  O1  UNL     1      34.024   0.003   7.367  1.00  0.00    -0.321 OA
HETATM   29  C1  UNL     1      34.255   0.696   6.155  1.00  0.00     0.213 C 
ENDBRANCH  26  28
ENDBRANCH   1  26
BRANCH   4  30
HETATM   30  C5  UNL     1      35.101  -1.455  12.987  1.00  0.00     0.304 C 
HETATM   31  O3  UNL     1      35.192  -1.071  14.182  1.00  0.00    -0.263 OA
HETATM   32  N2  UNL     1      35.174  -2.837  12.717  1.00  0.00    -0.270 N 
ATOM     33  H2  UNL     1      35.102  -3.159  11.752  1.00  0.00     0.189 HD
BRANCH  32  34
HETATM   34  N3  UNL     1      35.341  -3.778  13.735  1.00  0.00    -0.342 N 
ATOM     35  H32 UNL     1      36.222  -4.291  13.774  1.00  0.00     0.176 HD
ATOM     36  H31 UNL     1      34.614  -3.957  14.427  1.00  0.00     0.176 HD
ENDBRANCH  32  34
ENDBRANCH   4  30
TORSDOF 8
ENDMDL
MODEL 2
REMARK VINA RESULT: -5.637117698      5.330      8.153
REMARK  8 active torsions:
REMARK  status: ('A' for Active; 'I' for Inactive)
REMARK    1  A    between atoms: O1_2  and  C2_3 
REMARK    2  A    between atoms: C2_3  and  C3_5 
REMARK    3  A    between atoms: C4_8  and  C5_9 
REMARK       I    between atoms: C5_9  and  N2_11 
REMARK    4  A    between atoms: N2_11  and  N3_13 
REMARK    5  A    between atoms: C6_20  and  C7_21 
REMARK    6  A    between atoms: C8_23  and  N6_24 
REMARK    7  A    between atoms: C9_29  and  C10_30 
REMARK       I    between atoms: C10_30  and  N8_32 
REMARK    8  A    between atoms: N8_32  and  N9_34 
ROOT
HETATM    1  C3  UNL     1      27.186   2.351   6.904  1.00  0.00     0.140 A 
HETATM    2  N1  UNL     1      25.949   1.818   7.178  1.00  0.00    -0.330 N 
ATOM      3  H1  UNL     1      25.113   2.361   6.965  1.00  0.00     0.168 HD
HETATM    4  C4  UNL     1      25.821   0.596   7.721  1.00  0.00     0.191 A 
HETATM    5  N4  UNL     1      26.921  -0.115   8.000  1.00  0.00    -0.280 N 
ATOM      6  H4  UNL     1      26.838  -1.044   8.413  1.00  0.00     0.188 HD
HETATM    7  N5  UNL     1      28.069   0.375   7.746  1.00  0.00    -0.295 N 
ATOM      8  H5  UNL     1      28.891  -0.187   7.969  1.00  0.00     0.187 HD
HETATM    9  C6  UNL     1      28.266   1.610   7.192  1.00  0.00     0.100 A 
ENDROOT
BRANCH   9  10
HETATM   10  C7  UNL     1      29.659   1.874   6.797  1.00  0.00     0.071 A 
HETATM   11  S1  UNL     1      30.365   1.664   5.244  1.00  0.00    -0.050 SA
HETATM   12  C8  UNL     1      31.939   2.180   5.585  1.00  0.00     0.143 A 
HETATM   13  N7  UNL     1      31.863   2.494   6.874  1.00  0.00    -0.331 N 
HETATM   14  C9  UNL     1      30.722   2.350   7.513  1.00  0.00     0.124 A 
ATOM     15  H7  UNL     1      32.685   2.844   7.365  1.00  0.00     0.168 HD
BRANCH  12  16
HETATM   16  N6  UNL     1      32.997   2.262   4.797  1.00  0.00    -0.380 N 
ATOM     17  H62 UNL     1      33.146   1.790   3.904  1.00  0.00     0.158 HD
ATOM     18  H61 UNL     1      33.858   2.796   4.908  1.00  0.00     0.158 HD
ENDBRANCH  12  16
BRANCH  14  19
HETATM   19  C10 UNL     1      30.606   2.799   8.926  1.00  0.00     0.287 C 
HETATM   20  O4  UNL     1      31.547   2.596   9.700  1.00  0.00    -0.264 OA
HETATM   21  N8  UNL     1      29.431   3.461   9.404  1.00  0.00    -0.271 N 
ATOM     22  H8  UNL     1      28.659   3.624   8.758  1.00  0.00     0.189 HD
BRANCH  21  23
HETATM   23  N9  UNL     1      29.311   3.886  10.724  1.00  0.00    -0.342 N 
ATOM     24  H92 UNL     1      30.057   4.466  11.110  1.00  0.00     0.176 HD
ATOM     25  H91 UNL     1      28.509   3.635  11.300  1.00  0.00     0.176 HD
ENDBRANCH  21  23
ENDBRANCH  14  19
ENDBRANCH   9  10
BRANCH   1  26
HETATM   26  C2  UNL     1      27.230   3.694   6.380  1.00  0.00     0.312 C 
HETATM   27  O2  UNL     1      27.792   4.652   6.910  1.00  0.00    -0.258 OA
BRANCH  26  28
HETATM   28  O1  UNL     1      26.598   4.007   5.160  1.00  0.00    -0.321 OA
HETATM   29  C1  UNL     1      27.050   3.458   3.937  1.00  0.00     0.213 C 
ENDBRANCH  26  28
ENDBRANCH   1  26
BRANCH   4  30
HETATM   30  C5  UNL     1      24.518   0.015   8.017  1.00  0.00     0.304 C 
HETATM   31  O3  UNL     1      24.012   0.207   9.153  1.00  0.00    -0.263 OA
HETATM   32  N2  UNL     1      23.798  -0.756   7.081  1.00  0.00    -0.270 N 
ATOM     33  H2  UNL     1      24.200  -0.919   6.158  1.00  0.00     0.189 HD
BRANCH  32  34
HETATM   34  N3  UNL     1      22.550  -1.304   7.384  1.00  0.00    -0.342 N 
ATOM     35  H32 UNL     1      22.504  -2.299   7.604  1.00  0.00     0.176 HD
ATOM     36  H31 UNL     1      21.702  -0.739   7.389  1.00  0.00     0.176 HD
ENDBRANCH  32  34
ENDBRANCH   4  30
TORSDOF 8
ENDMDL
MODEL 3
REMARK VINA RESULT: -5.621894549      6.172      8.593
REMARK  8 active torsions:
REMARK  status: ('A' for Active; 'I' for Inactive)
REMARK    1  A    between atoms: O1_2  and  C2_3 
REMARK    2  A    between atoms: C2_3  and  C3_5 
REMARK    3  A    between atoms: C4_8  and  C5_9 
REMARK       I    between atoms: C5_9  and  N2_11 
REMARK    4  A    between atoms: N2_11  and  N3_13 
REMARK    5  A    between atoms: C6_20  and  C7_21 
REMARK    6  A    between atoms: C8_23  and  N6_24 
REMARK    7  A    between atoms: C9_29  and  C10_30 
REMARK       I    between atoms: C10_30  and  N8_32 
REMARK    8  A    between atoms: N8_32  and  N9_34 
ROOT
HETATM    1  C3  UNL     1      28.126   1.120   7.569  1.00  0.00     0.140 A 
HETATM    2  N1  UNL     1      29.331   1.494   8.115  1.00  0.00    -0.330 N 
ATOM      3  H1  UNL     1      29.939   0.782   8.519  1.00  0.00     0.168 HD
HETATM    4  C4  UNL     1      29.723   2.778   8.125  1.00  0.00     0.191 A 
HETATM    5  N4  UNL     1      28.924   3.712   7.594  1.00  0.00    -0.280 N 
ATOM      6  H4  UNL     1      29.208   4.691   7.596  1.00  0.00     0.188 HD
HETATM    7  N5  UNL     1      27.806   3.370   7.086  1.00  0.00    -0.295 N 
ATOM      8  H5  UNL     1      27.216   4.100   6.688  1.00  0.00     0.187 HD
HETATM    9  C6  UNL     1      27.352   2.080   7.042  1.00  0.00     0.100 A 
ENDROOT
BRANCH   9  10
HETATM   10  C7  UNL     1      26.141   1.900   6.224  1.00  0.00     0.071 A 
HETATM   11  S1  UNL     1      24.651   1.188   6.702  1.00  0.00    -0.050 SA
HETATM   12  C8  UNL     1      23.788   1.363   5.258  1.00  0.00     0.143 A 
HETATM   13  N7  UNL     1      24.673   1.960   4.468  1.00  0.00    -0.331 N 
HETATM   14  C9  UNL     1      25.871   2.245   4.930  1.00  0.00     0.124 A 
ATOM     15  H7  UNL     1      24.424   2.195   3.507  1.00  0.00     0.168 HD
BRANCH  12  16
HETATM   16  N6  UNL     1      22.550   1.008   4.959  1.00  0.00    -0.380 N 
ATOM     17  H62 UNL     1      21.685   1.362   5.368  1.00  0.00     0.158 HD
ATOM     18  H61 UNL     1      22.209   0.328   4.279  1.00  0.00     0.158 HD
ENDBRANCH  12  16
BRANCH  14  19
HETATM   19  C10 UNL     1      26.827   3.006   4.082  1.00  0.00     0.287 C 
HETATM   20  O4  UNL     1      26.970   4.217   4.277  1.00  0.00    -0.264 OA
HETATM   21  N8  UNL     1      27.582   2.365   3.050  1.00  0.00    -0.271 N 
ATOM     22  H8  UNL     1      27.458   1.365   2.896  1.00  0.00     0.189 HD
BRANCH  21  23
HETATM   23  N9  UNL     1      28.481   3.067   2.251  1.00  0.00    -0.342 N 
ATOM     24  H92 UNL     1      28.138   3.456   1.372  1.00  0.00     0.176 HD
ATOM     25  H91 UNL     1      29.455   3.197   2.522  1.00  0.00     0.176 HD
ENDBRANCH  21  23
ENDBRANCH  14  19
ENDBRANCH   9  10
BRANCH   1  26
HETATM   26  C2  UNL     1      27.759  -0.271   7.658  1.00  0.00     0.312 C 
HETATM   27  O2  UNL     1      26.950  -0.751   8.452  1.00  0.00    -0.258 OA
BRANCH  26  28
HETATM   28  O1  UNL     1      28.336  -1.220   6.790  1.00  0.00    -0.321 OA
HETATM   29  C1  UNL     1      27.902  -1.349   5.449  1.00  0.00     0.213 C 
ENDBRANCH  26  28
ENDBRANCH   1  26
BRANCH   4  30
HETATM   30  C5  UNL     1      30.997   3.192   8.698  1.00  0.00     0.304 C 
HETATM   31  O3  UNL     1      31.914   3.575   7.926  1.00  0.00    -0.263 OA
HETATM   32  N2  UNL     1      31.248   3.180  10.086  1.00  0.00    -0.270 N 
ATOM     33  H2  UNL     1      30.513   2.870  10.721  1.00  0.00     0.189 HD
BRANCH  32  34
HETATM   34  N3  UNL     1      32.476   3.581  10.615  1.00  0.00    -0.342 N 
ATOM     35  H32 UNL     1      32.622   4.575  10.792  1.00  0.00     0.176 HD
ATOM     36  H31 UNL     1      33.216   2.911  10.825  1.00  0.00     0.176 HD
ENDBRANCH  32  34
ENDBRANCH   4  30
TORSDOF 8
ENDMDL
MODEL 4
REMARK VINA RESULT: -5.561678899      6.355      8.887
REMARK  8 active torsions:
REMARK  status: ('A' for Active; 'I' for Inactive)
REMARK    1  A    between atoms: O1_2  and  C2_3 
REMARK    2  A    between atoms: C2_3  and  C3_5 
REMARK    3  A    between atoms: C4_8  and  C5_9 
REMARK       I    between atoms: C5_9  and  N2_11 
REMARK    4  A    between atoms: N2_11  and  N3_13 
REMARK    5  A    between atoms: C6_20  and  C7_21 
REMARK    6  A    between atoms: C8_23  and  N6_24 
REMARK    7  A    between atoms: C9_29  and  C10_30 
REMARK       I    between atoms: C10_30  and  N8_32 
REMARK    8  A    between atoms: N8_32  and  N9_34 
ROOT
HETATM    1  C3  UNL     1      26.456   2.004   5.700  1.00  0.00     0.140 A 
HETATM    2  N1  UNL     1      25.262   1.348   5.879  1.00  0.00    -0.330 N 
ATOM      3  H1  UNL     1      24.417   1.719   5.446  1.00  0.00     0.168 HD
HETATM    4  C4  UNL     1      25.187   0.226   6.614  1.00  0.00     0.191 A 
HETATM    5  N4  UNL     1      26.298  -0.261   7.182  1.00  0.00    -0.280 N 
ATOM      6  H4  UNL     1      26.255  -1.111   7.744  1.00  0.00     0.188 HD
HETATM    7  N5  UNL     1      27.407   0.344   7.017  1.00  0.00    -0.295 N 
ATOM      8  H5  UNL     1      28.238  -0.047   7.462  1.00  0.00     0.187 HD
HETATM    9  C6  UNL     1      27.550   1.488   6.279  1.00  0.00     0.100 A 
ENDROOT
BRANCH   9  10
HETATM   10  C7  UNL     1      28.949   1.885   6.056  1.00  0.00     0.071 A 
HETATM   11  S1  UNL     1      29.959   1.461   4.730  1.00  0.00    -0.050 SA
HETATM   12  C8  UNL     1      31.362   2.292   5.179  1.00  0.00     0.143 A 
HETATM   13  N7  UNL     1      31.003   2.861   6.324  1.00  0.00    -0.331 N 
HETATM   14  C9  UNL     1      29.788   2.674   6.792  1.00  0.00     0.124 A 
ATOM     15  H7  UNL     1      31.667   3.440   6.839  1.00  0.00     0.168 HD
BRANCH  12  16
HETATM   16  N6  UNL     1      32.534   2.373   4.570  1.00  0.00    -0.380 N 
ATOM     17  H62 UNL     1      33.200   3.145   4.604  1.00  0.00     0.158 HD
ATOM     18  H61 UNL     1      33.004   1.704   3.961  1.00  0.00     0.158 HD
ENDBRANCH  12  16
BRANCH  14  19
HETATM   19  C10 UNL     1      29.350   3.394   8.018  1.00  0.00     0.287 C 
HETATM   20  O4  UNL     1      28.602   4.370   7.906  1.00  0.00    -0.264 OA
HETATM   21  N8  UNL     1      29.775   2.978   9.318  1.00  0.00    -0.271 N 
ATOM     22  H8  UNL     1      30.393   2.171   9.402  1.00  0.00     0.189 HD
BRANCH  21  23
HETATM   23  N9  UNL     1      29.371   3.642  10.473  1.00  0.00    -0.342 N 
ATOM     24  H92 UNL     1      29.957   3.560  11.304  1.00  0.00     0.176 HD
ATOM     25  H91 UNL     1      28.517   4.200  10.502  1.00  0.00     0.176 HD
ENDBRANCH  21  23
ENDBRANCH  14  19
ENDBRANCH   9  10
BRANCH   1  26
HETATM   26  C2  UNL     1      26.432   3.235   4.948  1.00  0.00     0.312 C 
HETATM   27  O2  UNL     1      26.386   4.368   5.428  1.00  0.00    -0.258 OA
BRANCH  26  28
HETATM   28  O1  UNL     1      26.462   3.213   3.539  1.00  0.00    -0.321 OA
HETATM   29  C1  UNL     1      27.451   3.919   2.814  1.00  0.00     0.213 C 
ENDBRANCH  26  28
ENDBRANCH   1  26
BRANCH   4  30
HETATM   30  C5  UNL     1      23.931  -0.484   6.814  1.00  0.00     0.304 C 
HETATM   31  O3  UNL     1      22.953   0.139   7.305  1.00  0.00    -0.263 OA
HETATM   32  N2  UNL     1      23.763  -1.844   6.480  1.00  0.00    -0.270 N 
ATOM     33  H2  UNL     1      24.549  -2.358   6.083  1.00  0.00     0.189 HD
BRANCH  32  34
HETATM   34  N3  UNL     1      22.550  -2.506   6.679  1.00  0.00    -0.342 N 
ATOM     35  H32 UNL     1      21.693  -1.952   6.671  1.00  0.00     0.176 HD
ATOM     36  H31 UNL     1      22.506  -3.514   6.828  1.00  0.00     0.176 HD
ENDBRANCH  32  34
ENDBRANCH   4  30
TORSDOF 8
ENDMDL
MODEL 5
REMARK VINA RESULT: -5.546059409      7.397      9.601
REMARK  8 active torsions:
REMARK  status: ('A' for Active; 'I' for Inactive)
REMARK    1  A    between atoms: O1_2  and  C2_3 
REMARK    2  A    between atoms: C2_3  and  C3_5 
REMARK    3  A    between atoms: C4_8  and  C5_9 
REMARK       I    between atoms: C5_9  and  N2_11 
REMARK    4  A    between atoms: N2_11  and  N3_13 
REMARK    5  A    between atoms: C6_20  and  C7_21 
REMARK    6  A    between atoms: C8_23  and  N6_24 
REMARK    7  A    between atoms: C9_29  and  C10_30 
REMARK       I    between atoms: C10_30  and  N8_32 
REMARK    8  A    between atoms: N8_32  and  N9_34 
ROOT
HETATM    1  C3  UNL     1      27.320   0.517   6.383  1.00  0.00     0.140 A 
HETATM    2  N1  UNL     1      28.035   1.120   7.389  1.00  0.00    -0.330 N 
ATOM      3  H1  UNL     1      28.428   0.547   8.136  1.00  0.00     0.168 HD
HETATM    4  C4  UNL     1      28.226   2.449   7.408  1.00  0.00     0.191 A 
HETATM    5  N4  UNL     1      27.710   3.200   6.428  1.00  0.00    -0.280 N 
ATOM      6  H4  UNL     1      27.846   4.211   6.430  1.00  0.00     0.188 HD
HETATM    7  N5  UNL     1      27.047   2.644   5.492  1.00  0.00    -0.295 N 
ATOM      8  H5  UNL     1      26.663   3.239   4.757  1.00  0.00     0.187 HD
HETATM    9  C6  UNL     1      26.819   1.297   5.414  1.00  0.00     0.100 A 
ENDROOT
BRANCH   9  10
HETATM   10  C7  UNL     1      26.216   0.865   4.143  1.00  0.00     0.071 A 
HETATM   11  S1  UNL     1      27.022   0.223   2.766  1.00  0.00    -0.050 SA
HETATM   12  C8  UNL     1      25.685  -0.036   1.763  1.00  0.00     0.143 A 
HETATM   13  N7  UNL     1      24.675   0.377   2.521  1.00  0.00    -0.331 N 
HETATM   14  C9  UNL     1      24.914   0.837   3.730  1.00  0.00     0.124 A 
ATOM     15  H7  UNL     1      23.719   0.339   2.166  1.00  0.00     0.168 HD
BRANCH  12  16
HETATM   16  N6  UNL     1      25.625  -0.522   0.534  1.00  0.00    -0.380 N 
ATOM     17  H62 UNL     1      25.631   0.000  -0.342  1.00  0.00     0.158 HD
ATOM     18  H61 UNL     1      25.564  -1.488   0.214  1.00  0.00     0.158 HD
ENDBRANCH  12  16
BRANCH  14  19
HETATM   19  C10 UNL     1      23.778   1.201   4.619  1.00  0.00     0.287 C 
HETATM   20  O4  UNL     1      22.964   2.048   4.236  1.00  0.00    -0.264 OA
HETATM   21  N8  UNL     1      23.610   0.591   5.901  1.00  0.00    -0.271 N 
ATOM     22  H8  UNL     1      24.286  -0.107   6.209  1.00  0.00     0.189 HD
BRANCH  21  23
HETATM   23  N9  UNL     1      22.550   0.923   6.741  1.00  0.00    -0.342 N 
ATOM     24  H92 UNL     1      21.602   0.735   6.414  1.00  0.00     0.176 HD
ATOM     25  H91 UNL     1      22.701   1.342   7.658  1.00  0.00     0.176 HD
ENDBRANCH  21  23
ENDBRANCH  14  19
ENDBRANCH   9  10
BRANCH   1  26
HETATM   26  C2  UNL     1      27.111  -0.907   6.477  1.00  0.00     0.312 C 
HETATM   27  O2  UNL     1      27.998  -1.760   6.528  1.00  0.00    -0.258 OA
BRANCH  26  28
HETATM   28  O1  UNL     1      25.806  -1.438   6.518  1.00  0.00    -0.321 OA
HETATM   29  C1  UNL     1      25.399  -2.457   5.624  1.00  0.00     0.213 C 
ENDBRANCH  26  28
ENDBRANCH   1  26
BRANCH   4  30
HETATM   30  C5  UNL     1      28.983   3.106   8.466  1.00  0.00     0.304 C 
HETATM   31  O3  UNL     1      28.864   4.350   8.616  1.00  0.00    -0.263 OA
HETATM   32  N2  UNL     1      29.847   2.404   9.333  1.00  0.00    -0.270 N 
ATOM     33  H2  UNL     1      29.951   1.396   9.220  1.00  0.00     0.189 HD
BRANCH  32  34
HETATM   34  N3  UNL     1      30.563   3.051  10.341  1.00  0.00    -0.342 N 
ATOM     35  H32 UNL     1      31.579   3.094  10.257  1.00  0.00     0.176 HD
ATOM     36  H31 UNL     1      30.098   3.474  11.145  1.00  0.00     0.176 HD
ENDBRANCH  32  34
ENDBRANCH   4  30
TORSDOF 8
ENDMDL
