MODEL 1
REMARK VINA RESULT: -4.744776117      0.000      0.000
REMARK  2 active torsions:
REMARK  status: ('A' for Active; 'I' for Inactive)
REMARK    1  A    between atoms: C1_4  and  C2_6 
REMARK    2  A    between atoms: C5_11  and  N4_12 
ROOT
HETATM    1  C2  UNL     1      43.701  55.248  17.983  1.00  0.00     0.119 C 
HETATM    2  C3  UNL     1      43.886  54.708  19.386  1.00  0.00     0.039 C 
HETATM    3  C4  UNL     1      42.846  53.606  19.398  1.00  0.00     0.122 C 
HETATM    4  N3  UNL     1      41.839  54.128  18.484  1.00  0.00    -0.379 N 
ATOM      5  H3  UNL     1      40.871  53.805  18.473  1.00  0.00     0.160 HD
HETATM    6  C5  UNL     1      42.281  55.023  17.704  1.00  0.00     0.088 C 
ENDROOT
BRANCH   1   7
HETATM    7  C1  UNL     1      44.594  54.541  17.022  1.00  0.00     0.098 C 
HETATM    8  N1  UNL     1      45.732  54.127  17.470  1.00  0.00    -0.390 N 
ATOM      9  H12 UNL     1      46.343  53.643  16.812  1.00  0.00     0.157 HD
ATOM     10  H11 UNL     1      46.000  54.282  18.442  1.00  0.00     0.157 HD
HETATM   11  N2  UNL     1      44.222  54.326  15.670  1.00  0.00    -0.087 NA
ENDBRANCH   1   7
BRANCH   6  12
HETATM   12  N4  UNL     1      41.503  55.700  16.711  1.00  0.00    -0.344 N 
HETATM   13  C6  UNL     1      40.747  55.101  15.871  1.00  0.00     0.191 C 
HETATM   14  N5  UNL     1      40.035  55.914  14.943  1.00  0.00    -0.097 NA
ATOM     15  H4  UNL     1      41.555  56.718  16.671  1.00  0.00     0.167 HD
ENDBRANCH   6  12
TORSDOF 2
ENDMDL
MODEL 2
REMARK VINA RESULT: -4.565713151      2.674      3.086
REMARK  2 active torsions:
REMARK  status: ('A' for Active; 'I' for Inactive)
REMARK    1  A    between atoms: C1_4  and  C2_6 
REMARK    2  A    between atoms: C5_11  and  N4_12 
ROOT
HETATM    1  C2  UNL     1      42.101  56.827  19.177  1.00  0.00     0.119 C 
HETATM    2  C3  UNL     1      41.400  57.703  20.196  1.00  0.00     0.039 C 
HETATM    3  C4  UNL     1      40.622  56.658  20.971  1.00  0.00     0.122 C 
HETATM    4  N3  UNL     1      40.376  55.645  19.953  1.00  0.00    -0.379 N 
ATOM      5  H3  UNL     1      39.637  54.946  20.026  1.00  0.00     0.160 HD
HETATM    6  C5  UNL     1      41.168  55.717  18.967  1.00  0.00     0.088 C 
ENDROOT
BRANCH   1   7
HETATM    7  C1  UNL     1      43.425  56.375  19.689  1.00  0.00     0.098 C 
HETATM    8  N1  UNL     1      44.314  57.286  19.907  1.00  0.00    -0.390 N 
ATOM      9  H12 UNL     1      45.220  56.977  20.258  1.00  0.00     0.157 HD
ATOM     10  H11 UNL     1      44.109  58.269  19.734  1.00  0.00     0.157 HD
HETATM   11  N2  UNL     1      43.710  55.007  19.930  1.00  0.00    -0.087 NA
ENDBRANCH   1   7
BRANCH   6  12
HETATM   12  N4  UNL     1      41.144  54.845  17.832  1.00  0.00    -0.344 N 
HETATM   13  C6  UNL     1      41.125  55.255  16.621  1.00  0.00     0.191 C 
HETATM   14  N5  UNL     1      41.102  54.264  15.598  1.00  0.00    -0.097 NA
ATOM     15  H4  UNL     1      41.141  53.839  17.999  1.00  0.00     0.167 HD
ENDBRANCH   6  12
TORSDOF 2
ENDMDL
MODEL 3
REMARK VINA RESULT: -4.467256850      2.209      2.869
REMARK  2 active torsions:
REMARK  status: ('A' for Active; 'I' for Inactive)
REMARK    1  A    between atoms: C1_4  and  C2_6 
REMARK    2  A    between atoms: C5_11  and  N4_12 
ROOT
HETATM    1  C2  UNL     1      45.144  55.012  17.888  1.00  0.00     0.119 C 
HETATM    2  C3  UNL     1      45.859  53.732  18.270  1.00  0.00     0.039 C 
HETATM    3  C4  UNL     1      44.720  52.957  18.905  1.00  0.00     0.122 C 
HETATM    4  N3  UNL     1      43.892  54.025  19.448  1.00  0.00    -0.379 N 
ATOM      5  H3  UNL     1      43.207  53.880  20.190  1.00  0.00     0.160 HD
HETATM    6  C5  UNL     1      44.105  55.153  18.911  1.00  0.00     0.088 C 
ENDROOT
BRANCH   1   7
HETATM    7  C1  UNL     1      44.584  54.915  16.511  1.00  0.00     0.098 C 
HETATM    8  N1  UNL     1      45.428  54.842  15.536  1.00  0.00    -0.390 N 
ATOM      9  H12 UNL     1      45.046  54.775  14.593  1.00  0.00     0.157 HD
ATOM     10  H11 UNL     1      46.433  54.851  15.712  1.00  0.00     0.157 HD
HETATM   11  N2  UNL     1      43.187  54.902  16.267  1.00  0.00    -0.087 NA
ENDBRANCH   1   7
BRANCH   6  12
HETATM   12  N4  UNL     1      43.428  56.366  19.259  1.00  0.00    -0.344 N 
HETATM   13  C6  UNL     1      42.249  56.405  19.753  1.00  0.00     0.191 C 
HETATM   14  N5  UNL     1      41.710  57.690  20.047  1.00  0.00    -0.097 NA
ATOM     15  H4  UNL     1      43.915  57.249  19.104  1.00  0.00     0.167 HD
ENDBRANCH   6  12
TORSDOF 2
ENDMDL
MODEL 4
REMARK VINA RESULT: -4.445666118      3.085      4.164
REMARK  2 active torsions:
REMARK  status: ('A' for Active; 'I' for Inactive)
REMARK    1  A    between atoms: C1_4  and  C2_6 
REMARK    2  A    between atoms: C5_11  and  N4_12 
ROOT
HETATM    1  C2  UNL     1      46.621  53.390  19.710  1.00  0.00     0.119 C 
HETATM    2  C3  UNL     1      46.767  54.221  20.969  1.00  0.00     0.039 C 
HETATM    3  C4  UNL     1      45.439  54.952  20.974  1.00  0.00     0.122 C 
HETATM    4  N3  UNL     1      45.141  55.052  19.551  1.00  0.00    -0.379 N 
ATOM      5  H3  UNL     1      44.488  55.732  19.162  1.00  0.00     0.160 HD
HETATM    6  C5  UNL     1      45.773  54.212  18.843  1.00  0.00     0.088 C 
ENDROOT
BRANCH   1   7
HETATM    7  C1  UNL     1      46.014  52.065  20.018  1.00  0.00     0.098 C 
HETATM    8  N1  UNL     1      46.569  51.364  20.949  1.00  0.00    -0.390 N 
ATOM      9  H12 UNL     1      46.154  50.457  21.160  1.00  0.00     0.157 HD
ATOM     10  H11 UNL     1      47.389  51.712  21.447  1.00  0.00     0.157 HD
HETATM   11  N2  UNL     1      44.874  51.582  19.325  1.00  0.00    -0.087 NA
ENDBRANCH   1   7
BRANCH   6  12
HETATM   12  N4  UNL     1      45.665  54.096  17.420  1.00  0.00    -0.344 N 
HETATM   13  C6  UNL     1      45.153  54.997  16.671  1.00  0.00     0.191 C 
HETATM   14  N5  UNL     1      45.117  54.735  15.271  1.00  0.00    -0.097 NA
ATOM     15  H4  UNL     1      46.017  53.246  16.979  1.00  0.00     0.167 HD
ENDBRANCH   6  12
TORSDOF 2
ENDMDL
MODEL 5
REMARK VINA RESULT: -4.444226742      1.671      1.706
REMARK  2 active torsions:
REMARK  status: ('A' for Active; 'I' for Inactive)
REMARK    1  A    between atoms: C1_4  and  C2_6 
REMARK    2  A    between atoms: C5_11  and  N4_12 
ROOT
HETATM    1  C2  UNL     1      42.926  55.405  17.265  1.00  0.00     0.119 C 
HETATM    2  C3  UNL     1      42.846  55.669  18.755  1.00  0.00     0.039 C 
HETATM    3  C4  UNL     1      42.588  54.268  19.271  1.00  0.00     0.122 C 
HETATM    4  N3  UNL     1      41.859  53.665  18.163  1.00  0.00    -0.379 N 
ATOM      5  H3  UNL     1      41.269  52.838  18.265  1.00  0.00     0.160 HD
HETATM    6  C5  UNL     1      42.028  54.266  17.061  1.00  0.00     0.088 C 
ENDROOT
BRANCH   1   7
HETATM    7  C1  UNL     1      44.328  55.110  16.854  1.00  0.00     0.098 C 
HETATM    8  N1  UNL     1      45.264  55.415  17.690  1.00  0.00    -0.390 N 
ATOM      9  H12 UNL     1      46.223  55.214  17.410  1.00  0.00     0.157 HD
ATOM     10  H11 UNL     1      45.043  55.840  18.591  1.00  0.00     0.157 HD
HETATM   11  N2  UNL     1      44.636  54.519  15.602  1.00  0.00    -0.087 NA
ENDBRANCH   1   7
BRANCH   6  12
HETATM   12  N4  UNL     1      41.427  53.883  15.819  1.00  0.00    -0.344 N 
HETATM   13  C6  UNL     1      41.582  52.733  15.281  1.00  0.00     0.191 C 
HETATM   14  N5  UNL     1      40.919  52.500  14.042  1.00  0.00    -0.097 NA
ATOM     15  H4  UNL     1      40.843  54.565  15.336  1.00  0.00     0.167 HD
ENDBRANCH   6  12
TORSDOF 2
ENDMDL
