MODEL 1
REMARK VINA RESULT: -4.612048542      0.000      0.000
REMARK  5 active torsions:
REMARK  status: ('A' for Active; 'I' for Inactive)
REMARK    1  A    between atoms: N1_1  and  C1_4 
REMARK    2  A    between atoms: N3_7  and  O1_8 
REMARK    3  A    between atoms: C3_13  and  C4_14 
REMARK    4  A    between atoms: C4_14  and  C5_15 
REMARK    5  A    between atoms: C5_15  and  N5_16 
ROOT
HETATM    1  C1  UNL     1      38.486  50.822  10.853  1.00  0.00     0.124 A 
HETATM    2  N2  UNL     1      38.684  51.928  10.104  1.00  0.00    -0.243 N 
ATOM      3  H2  UNL     1      38.330  51.975   9.148  1.00  0.00     0.192 HD
HETATM    4  N3  UNL     1      39.339  52.946  10.621  1.00  0.00    -0.094 N 
HETATM    5  N4  UNL     1      39.826  52.967  11.843  1.00  0.00    -0.270 N 
ATOM      6  H4  UNL     1      40.326  53.784  12.194  1.00  0.00     0.190 HD
HETATM    7  C2  UNL     1      39.644  51.876  12.623  1.00  0.00     0.122 A 
HETATM    8  C3  UNL     1      38.971  50.765  12.161  1.00  0.00     0.005 A 
ENDROOT
BRANCH   8   9
HETATM    9  C4  UNL     1      38.759  49.567  13.007  1.00  0.00     0.071 C 
BRANCH   9  10
HETATM   10  C5  UNL     1      39.303  49.829  14.410  1.00  0.00     0.234 C 
BRANCH  10  11
HETATM   11  N5  UNL     1      38.640  49.027  15.386  1.00  0.00    -0.079 N 
ATOM     12  H53 UNL     1      37.626  49.108  15.310  1.00  0.00     0.274 HD
ATOM     13  H52 UNL     1      38.735  48.033  15.178  1.00  0.00     0.274 HD
ATOM     14  H51 UNL     1      38.962  49.244  16.330  1.00  0.00     0.274 HD
ENDBRANCH  10  11
ENDBRANCH   9  10
ENDBRANCH   8   9
BRANCH   1  15
HETATM   15  N1  UNL     1      37.866  49.786  10.433  1.00  0.00    -0.384 N 
ATOM     16  H12 UNL     1      36.988  49.953   9.941  1.00  0.00     0.157 HD
ATOM     17  H11 UNL     1      38.204  48.833  10.568  1.00  0.00     0.157 HD
ENDBRANCH   1  15
BRANCH   4  18
HETATM   18  O1  UNL     1      39.528  54.059   9.846  1.00  0.00    -0.253 OA
ATOM     19  H1  UNL     1      40.402  54.427   9.790  1.00  0.00     0.248 HD
ENDBRANCH   4  18
TORSDOF 5
ENDMDL
MODEL 2
REMARK VINA RESULT: -4.275932329      1.192      2.345
REMARK  5 active torsions:
REMARK  status: ('A' for Active; 'I' for Inactive)
REMARK    1  A    between atoms: N1_1  and  C1_4 
REMARK    2  A    between atoms: N3_7  and  O1_8 
REMARK    3  A    between atoms: C3_13  and  C4_14 
REMARK    4  A    between atoms: C4_14  and  C5_15 
REMARK    5  A    between atoms: C5_15  and  N5_16 
ROOT
HETATM    1  C1  UNL     1      40.243  51.927  13.095  1.00  0.00     0.124 A 
HETATM    2  N2  UNL     1      40.069  52.751  12.040  1.00  0.00    -0.243 N 
ATOM      3  H2  UNL     1      40.704  53.535  11.887  1.00  0.00     0.192 HD
HETATM    4  N3  UNL     1      39.073  52.531  11.209  1.00  0.00    -0.094 N 
HETATM    5  N4  UNL     1      38.213  51.543  11.332  1.00  0.00    -0.270 N 
ATOM      6  H4  UNL     1      37.457  51.419  10.658  1.00  0.00     0.190 HD
HETATM    7  C2  UNL     1      38.357  50.696  12.378  1.00  0.00     0.122 A 
HETATM    8  C3  UNL     1      39.373  50.854  13.297  1.00  0.00     0.005 A 
ENDROOT
BRANCH   8   9
HETATM    9  C4  UNL     1      39.547  49.929  14.441  1.00  0.00     0.071 C 
BRANCH   9  10
HETATM   10  C5  UNL     1      38.448  48.868  14.414  1.00  0.00     0.234 C 
BRANCH  10  11
HETATM   11  N5  UNL     1      38.223  48.314  15.709  1.00  0.00    -0.079 N 
ATOM     12  H53 UNL     1      37.968  49.035  16.384  1.00  0.00     0.274 HD
ATOM     13  H52 UNL     1      37.365  47.763  15.735  1.00  0.00     0.274 HD
ATOM     14  H51 UNL     1      39.026  47.772  16.028  1.00  0.00     0.274 HD
ENDBRANCH  10  11
ENDBRANCH   9  10
ENDBRANCH   8   9
BRANCH   1  15
HETATM   15  N1  UNL     1      41.179  52.067  13.954  1.00  0.00    -0.384 N 
ATOM     16  H12 UNL     1      41.512  53.019  14.109  1.00  0.00     0.157 HD
ATOM     17  H11 UNL     1      41.592  51.290  14.470  1.00  0.00     0.157 HD
ENDBRANCH   1  15
BRANCH   4  18
HETATM   18  O1  UNL     1      38.915  53.378  10.143  1.00  0.00    -0.253 OA
ATOM     19  H1  UNL     1      38.220  53.196   9.522  1.00  0.00     0.248 HD
ENDBRANCH   4  18
TORSDOF 5
ENDMDL
MODEL 3
REMARK VINA RESULT: -4.219561284     13.183     14.282
REMARK  5 active torsions:
REMARK  status: ('A' for Active; 'I' for Inactive)
REMARK    1  A    between atoms: N1_1  and  C1_4 
REMARK    2  A    between atoms: N3_7  and  O1_8 
REMARK    3  A    between atoms: C3_13  and  C4_14 
REMARK    4  A    between atoms: C4_14  and  C5_15 
REMARK    5  A    between atoms: C5_15  and  N5_16 
ROOT
HETATM    1  C1  UNL     1      40.242  56.056  24.243  1.00  0.00     0.124 A 
HETATM    2  N2  UNL     1      39.529  57.160  24.550  1.00  0.00    -0.243 N 
ATOM      3  H2  UNL     1      38.898  57.575  23.864  1.00  0.00     0.192 HD
HETATM    4  N3  UNL     1      39.656  57.696  25.745  1.00  0.00    -0.094 N 
HETATM    5  N4  UNL     1      40.445  57.224  26.687  1.00  0.00    -0.270 N 
ATOM      6  H4  UNL     1      40.505  57.680  27.597  1.00  0.00     0.190 HD
HETATM    7  C2  UNL     1      41.174  56.117  26.414  1.00  0.00     0.122 A 
HETATM    8  C3  UNL     1      41.102  55.492  25.187  1.00  0.00     0.005 A 
ENDROOT
BRANCH   8   9
HETATM    9  C4  UNL     1      41.889  54.275  24.879  1.00  0.00     0.071 C 
BRANCH   9  10
HETATM   10  C5  UNL     1      41.292  53.079  25.619  1.00  0.00     0.234 C 
BRANCH  10  11
HETATM   11  N5  UNL     1      40.332  52.393  24.817  1.00  0.00    -0.079 N 
ATOM     12  H53 UNL     1      40.179  52.869  23.929  1.00  0.00     0.274 HD
ATOM     13  H52 UNL     1      40.705  51.512  24.461  1.00  0.00     0.274 HD
ATOM     14  H51 UNL     1      39.456  52.251  25.320  1.00  0.00     0.274 HD
ENDBRANCH  10  11
ENDBRANCH   9  10
ENDBRANCH   8   9
BRANCH   1  15
HETATM   15  N1  UNL     1      40.186  55.472  23.108  1.00  0.00    -0.384 N 
ATOM     16  H12 UNL     1      40.607  54.544  23.055  1.00  0.00     0.157 HD
ATOM     17  H11 UNL     1      39.753  55.885  22.281  1.00  0.00     0.157 HD
ENDBRANCH   1  15
BRANCH   4  18
HETATM   18  O1  UNL     1      38.923  58.816  26.038  1.00  0.00    -0.253 OA
ATOM     19  H1  UNL     1      39.384  59.594  26.330  1.00  0.00     0.248 HD
ENDBRANCH   4  18
TORSDOF 5
ENDMDL
MODEL 4
REMARK VINA RESULT: -4.176488813     10.080     11.536
REMARK  5 active torsions:
REMARK  status: ('A' for Active; 'I' for Inactive)
REMARK    1  A    between atoms: N1_1  and  C1_4 
REMARK    2  A    between atoms: N3_7  and  O1_8 
REMARK    3  A    between atoms: C3_13  and  C4_14 
REMARK    4  A    between atoms: C4_14  and  C5_15 
REMARK    5  A    between atoms: C5_15  and  N5_16 
ROOT
HETATM    1  C1  UNL     1      40.600  55.544  20.590  1.00  0.00     0.124 A 
HETATM    2  N2  UNL     1      40.019  54.537  21.277  1.00  0.00    -0.243 N 
ATOM      3  H2  UNL     1      39.833  53.643  20.823  1.00  0.00     0.192 HD
HETATM    4  N3  UNL     1      39.695  54.723  22.539  1.00  0.00    -0.094 N 
HETATM    5  N4  UNL     1      39.902  55.842  23.198  1.00  0.00    -0.270 N 
ATOM      6  H4  UNL     1      39.630  55.932  24.177  1.00  0.00     0.190 HD
HETATM    7  C2  UNL     1      40.484  56.872  22.541  1.00  0.00     0.122 A 
HETATM    8  C3  UNL     1      40.855  56.765  21.218  1.00  0.00     0.005 A 
ENDROOT
BRANCH   8   9
HETATM    9  C4  UNL     1      41.500  57.882  20.490  1.00  0.00     0.071 C 
BRANCH   9  10
HETATM   10  C5  UNL     1      42.908  58.105  21.040  1.00  0.00     0.234 C 
BRANCH  10  11
HETATM   11  N5  UNL     1      43.893  57.463  20.232  1.00  0.00    -0.079 N 
ATOM     12  H53 UNL     1      43.975  56.473  20.459  1.00  0.00     0.274 HD
ATOM     13  H52 UNL     1      43.583  57.378  19.264  1.00  0.00     0.274 HD
ATOM     14  H51 UNL     1      44.795  57.936  20.295  1.00  0.00     0.274 HD
ENDBRANCH  10  11
ENDBRANCH   9  10
ENDBRANCH   8   9
BRANCH   1  15
HETATM   15  N1  UNL     1      40.944  55.455  19.362  1.00  0.00    -0.384 N 
ATOM     16  H12 UNL     1      41.662  54.765  19.142  1.00  0.00     0.157 HD
ATOM     17  H11 UNL     1      40.542  56.030  18.621  1.00  0.00     0.157 HD
ENDBRANCH   1  15
BRANCH   4  18
HETATM   18  O1  UNL     1      39.107  53.688  23.219  1.00  0.00    -0.253 OA
ATOM     19  H1  UNL     1      39.491  52.823  23.145  1.00  0.00     0.248 HD
ENDBRANCH   4  18
TORSDOF 5
ENDMDL
MODEL 5
REMARK VINA RESULT: -4.172786783      2.334      3.474
REMARK  5 active torsions:
REMARK  status: ('A' for Active; 'I' for Inactive)
REMARK    1  A    between atoms: N1_1  and  C1_4 
REMARK    2  A    between atoms: N3_7  and  O1_8 
REMARK    3  A    between atoms: C3_13  and  C4_14 
REMARK    4  A    between atoms: C4_14  and  C5_15 
REMARK    5  A    between atoms: C5_15  and  N5_16 
ROOT
HETATM    1  C1  UNL     1      39.726  52.103  12.294  1.00  0.00     0.124 A 
HETATM    2  N2  UNL     1      40.775  52.565  13.007  1.00  0.00    -0.243 N 
ATOM      3  H2  UNL     1      41.294  53.385  12.690  1.00  0.00     0.192 HD
HETATM    4  N3  UNL     1      41.120  51.949  14.117  1.00  0.00    -0.094 N 
HETATM    5  N4  UNL     1      40.505  50.889  14.595  1.00  0.00    -0.270 N 
ATOM      6  H4  UNL     1      40.815  50.449  15.462  1.00  0.00     0.190 HD
HETATM    7  C2  UNL     1      39.448  50.398  13.907  1.00  0.00     0.122 A 
HETATM    8  C3  UNL     1      39.019  50.982  12.734  1.00  0.00     0.005 A 
ENDROOT
BRANCH   8   9
HETATM    9  C4  UNL     1      37.859  50.460  11.976  1.00  0.00     0.071 C 
BRANCH   9  10
HETATM   10  C5  UNL     1      38.054  48.969  11.703  1.00  0.00     0.234 C 
BRANCH  10  11
HETATM   11  N5  UNL     1      38.849  48.751  10.538  1.00  0.00    -0.079 N 
ATOM     12  H53 UNL     1      39.674  48.190  10.749  1.00  0.00     0.274 HD
ATOM     13  H52 UNL     1      38.389  48.116   9.886  1.00  0.00     0.274 HD
ATOM     14  H51 UNL     1      39.102  49.631  10.088  1.00  0.00     0.274 HD
ENDBRANCH  10  11
ENDBRANCH   9  10
ENDBRANCH   8   9
BRANCH   1  15
HETATM   15  N1  UNL     1      39.323  52.635  11.204  1.00  0.00    -0.384 N 
ATOM     16  H12 UNL     1      38.352  52.946  11.185  1.00  0.00     0.157 HD
ATOM     17  H11 UNL     1      39.915  52.753  10.381  1.00  0.00     0.157 HD
ENDBRANCH   1  15
BRANCH   4  18
HETATM   18  O1  UNL     1      42.187  52.435  14.827  1.00  0.00    -0.253 OA
ATOM     19  H1  UNL     1      42.098  53.278  15.255  1.00  0.00     0.248 HD
ENDBRANCH   4  18
TORSDOF 5
ENDMDL
