MODEL 1
REMARK VINA RESULT: -4.103778284      0.000      0.000
REMARK  3 active torsions:
REMARK  status: ('A' for Active; 'I' for Inactive)
REMARK    1  A    between atoms: N1_1  and  C1_5 
REMARK    2  A    between atoms: C1_5  and  C2_6 
REMARK    3  A    between atoms: C2_6  and  N2_7 
ROOT
HETATM    1  N2  UNL     1      43.671  55.378  17.276  1.00  0.00    -0.250 N 
HETATM    2  N3  UNL     1      43.539  54.888  16.045  1.00  0.00    -0.004 NA
HETATM    3  N4  UNL     1      44.713  54.487  15.592  1.00  0.00    -0.006 NA
HETATM    4  N5  UNL     1      45.613  54.716  16.533  1.00  0.00    -0.261 N 
ATOM      5  H5  UNL     1      46.610  54.510  16.475  1.00  0.00     0.186 HD
HETATM    6  C3  UNL     1      44.981  55.265  17.574  1.00  0.00     0.204 A 
HETATM    7  S1  UNL     1      45.620  55.746  19.005  1.00  0.00    -0.038 SA
ENDROOT
BRANCH   1   8
HETATM    8  C2  UNL     1      42.607  55.918  18.106  1.00  0.00     0.176 C 
BRANCH   8   9
HETATM    9  C1  UNL     1      41.240  55.428  17.655  1.00  0.00     0.251 C 
BRANCH   9  10
HETATM   10  N1  UNL     1      41.216  53.993  17.568  1.00  0.00    -0.078 N 
ATOM     11  H13 UNL     1      40.587  53.669  16.833  1.00  0.00     0.274 HD
ATOM     12  H12 UNL     1      42.090  53.622  17.195  1.00  0.00     0.274 HD
ATOM     13  H11 UNL     1      40.986  53.580  18.472  1.00  0.00     0.274 HD
ENDBRANCH   9  10
ENDBRANCH   8   9
ENDBRANCH   1   8
TORSDOF 3
ENDMDL
MODEL 2
REMARK VINA RESULT: -3.933049349      6.634      7.338
REMARK  3 active torsions:
REMARK  status: ('A' for Active; 'I' for Inactive)
REMARK    1  A    between atoms: N1_1  and  C1_5 
REMARK    2  A    between atoms: C1_5  and  C2_6 
REMARK    3  A    between atoms: C2_6  and  N2_7 
ROOT
HETATM    1  N2  UNL     1      39.614  51.897  12.905  1.00  0.00    -0.250 N 
HETATM    2  N3  UNL     1      40.479  52.891  13.100  1.00  0.00    -0.004 NA
HETATM    3  N4  UNL     1      41.266  52.609  14.122  1.00  0.00    -0.006 NA
HETATM    4  N5  UNL     1      40.913  51.426  14.594  1.00  0.00    -0.261 N 
ATOM      5  H5  UNL     1      41.340  50.942  15.383  1.00  0.00     0.186 HD
HETATM    6  C3  UNL     1      39.897  50.980  13.852  1.00  0.00     0.204 A 
HETATM    7  S1  UNL     1      39.080  49.566  14.003  1.00  0.00    -0.038 SA
ENDROOT
BRANCH   1   8
HETATM    8  C2  UNL     1      38.589  51.837  11.878  1.00  0.00     0.176 C 
BRANCH   8   9
HETATM    9  C1  UNL     1      39.169  52.067  10.491  1.00  0.00     0.251 C 
BRANCH   9  10
HETATM   10  N1  UNL     1      39.284  53.474  10.214  1.00  0.00    -0.078 N 
ATOM     11  H13 UNL     1      38.585  54.017  10.720  1.00  0.00     0.274 HD
ATOM     12  H12 UNL     1      40.123  53.874  10.634  1.00  0.00     0.274 HD
ATOM     13  H11 UNL     1      39.244  53.649   9.210  1.00  0.00     0.274 HD
ENDBRANCH   9  10
ENDBRANCH   8   9
ENDBRANCH   1   8
TORSDOF 3
ENDMDL
MODEL 3
REMARK VINA RESULT: -3.910720198      1.627      1.755
REMARK  3 active torsions:
REMARK  status: ('A' for Active; 'I' for Inactive)
REMARK    1  A    between atoms: N1_1  and  C1_5 
REMARK    2  A    between atoms: C1_5  and  C2_6 
REMARK    3  A    between atoms: C2_6  and  N2_7 
ROOT
HETATM    1  N2  UNL     1      43.367  54.629  16.540  1.00  0.00    -0.250 N 
HETATM    2  N3  UNL     1      44.165  54.197  15.564  1.00  0.00    -0.004 NA
HETATM    3  N4  UNL     1      45.420  54.501  15.841  1.00  0.00    -0.006 NA
HETATM    4  N5  UNL     1      45.439  55.133  17.002  1.00  0.00    -0.261 N 
ATOM      5  H5  UNL     1      46.266  55.491  17.477  1.00  0.00     0.186 HD
HETATM    6  C3  UNL     1      44.180  55.216  17.439  1.00  0.00     0.204 A 
HETATM    7  S1  UNL     1      43.636  55.901  18.826  1.00  0.00    -0.038 SA
ENDROOT
BRANCH   1   8
HETATM    8  C2  UNL     1      41.922  54.484  16.598  1.00  0.00     0.176 C 
BRANCH   8   9
HETATM    9  C1  UNL     1      41.502  53.023  16.550  1.00  0.00     0.251 C 
BRANCH   9  10
HETATM   10  N1  UNL     1      41.609  52.506  15.212  1.00  0.00    -0.078 N 
ATOM     11  H13 UNL     1      42.491  52.014  15.067  1.00  0.00     0.274 HD
ATOM     12  H12 UNL     1      40.971  51.726  15.056  1.00  0.00     0.274 HD
ATOM     13  H11 UNL     1      41.474  53.249  14.526  1.00  0.00     0.274 HD
ENDBRANCH   9  10
ENDBRANCH   8   9
ENDBRANCH   1   8
TORSDOF 3
ENDMDL
MODEL 4
REMARK VINA RESULT: -3.906549797      1.861      3.455
REMARK  3 active torsions:
REMARK  status: ('A' for Active; 'I' for Inactive)
REMARK    1  A    between atoms: N1_1  and  C1_5 
REMARK    2  A    between atoms: C1_5  and  C2_6 
REMARK    3  A    between atoms: C2_6  and  N2_7 
ROOT
HETATM    1  N2  UNL     1      43.212  54.148  16.862  1.00  0.00    -0.250 N 
HETATM    2  N3  UNL     1      42.893  53.330  15.859  1.00  0.00    -0.004 NA
HETATM    3  N4  UNL     1      41.686  53.620  15.409  1.00  0.00    -0.006 NA
HETATM    4  N5  UNL     1      41.217  54.630  16.121  1.00  0.00    -0.261 N 
ATOM      5  H5  UNL     1      40.308  55.076  16.005  1.00  0.00     0.186 HD
HETATM    6  C3  UNL     1      42.149  54.962  17.018  1.00  0.00     0.204 A 
HETATM    7  S1  UNL     1      42.086  56.146  18.149  1.00  0.00    -0.038 SA
ENDROOT
BRANCH   1   8
HETATM    8  C2  UNL     1      44.454  54.142  17.615  1.00  0.00     0.176 C 
BRANCH   8   9
HETATM    9  C1  UNL     1      45.667  54.182  16.699  1.00  0.00     0.251 C 
BRANCH   9  10
HETATM   10  N1  UNL     1      45.388  54.955  15.518  1.00  0.00    -0.078 N 
ATOM     11  H13 UNL     1      44.386  55.023  15.340  1.00  0.00     0.274 HD
ATOM     12  H12 UNL     1      45.586  55.945  15.659  1.00  0.00     0.274 HD
ATOM     13  H11 UNL     1      45.890  54.580  14.714  1.00  0.00     0.274 HD
ENDBRANCH   9  10
ENDBRANCH   8   9
ENDBRANCH   1   8
TORSDOF 3
ENDMDL
MODEL 5
REMARK VINA RESULT: -3.898021234      1.837      1.837
REMARK  3 active torsions:
REMARK  status: ('A' for Active; 'I' for Inactive)
REMARK    1  A    between atoms: N1_1  and  C1_5 
REMARK    2  A    between atoms: C1_5  and  C2_6 
REMARK    3  A    between atoms: C2_6  and  N2_7 
ROOT
HETATM    1  N2  UNL     1      43.799  53.847  17.195  1.00  0.00    -0.250 N 
HETATM    2  N3  UNL     1      43.618  54.201  15.923  1.00  0.00    -0.004 NA
HETATM    3  N4  UNL     1      44.766  54.591  15.398  1.00  0.00    -0.006 NA
HETATM    4  N5  UNL     1      45.696  54.490  16.331  1.00  0.00    -0.261 N 
ATOM      5  H5  UNL     1      46.684  54.720  16.222  1.00  0.00     0.186 HD
HETATM    6  C3  UNL     1      45.111  54.033  17.440  1.00  0.00     0.204 A 
HETATM    7  S1  UNL     1      45.804  53.724  18.894  1.00  0.00    -0.038 SA
ENDROOT
BRANCH   1   8
HETATM    8  C2  UNL     1      42.777  53.363  18.107  1.00  0.00     0.176 C 
BRANCH   8   9
HETATM    9  C1  UNL     1      42.117  52.095  17.589  1.00  0.00     0.251 C 
BRANCH   9  10
HETATM   10  N1  UNL     1      41.004  52.412  16.734  1.00  0.00    -0.078 N 
ATOM     11  H13 UNL     1      40.779  53.407  16.761  1.00  0.00     0.274 HD
ATOM     12  H12 UNL     1      41.252  52.337  15.748  1.00  0.00     0.274 HD
ATOM     13  H11 UNL     1      40.195  51.836  16.965  1.00  0.00     0.274 HD
ENDBRANCH   9  10
ENDBRANCH   8   9
ENDBRANCH   1   8
TORSDOF 3
ENDMDL
