MODEL 1
REMARK VINA RESULT: -4.065248944      0.000      0.000
REMARK  4 active torsions:
REMARK  status: ('A' for Active; 'I' for Inactive)
REMARK    1  A    between atoms: N1_2  and  N2_3 
REMARK    2  A    between atoms: N1_2  and  C2_6 
REMARK    3  A    between atoms: C2_6  and  C3_7 
REMARK    4  A    between atoms: N4_12  and  N5_13 
ROOT
HETATM    1  C3  UNL     1      40.612  54.505  24.726  1.00  0.00     0.068 A 
HETATM    2  C4  UNL     1      41.450  53.874  25.628  1.00  0.00     0.048 A 
HETATM    3  C5  UNL     1      41.275  52.499  25.540  1.00  0.00     0.111 A 
HETATM    4  N3  UNL     1      40.337  52.329  24.588  1.00  0.00    -0.291 N 
ATOM      5  H3  UNL     1      39.980  51.424  24.281  1.00  0.00     0.188 HD
HETATM    6  N4  UNL     1      39.943  53.497  24.105  1.00  0.00    -0.207 N 
ENDROOT
BRANCH   1   7
HETATM    7  C2  UNL     1      40.441  55.948  24.453  1.00  0.00     0.173 C 
BRANCH   7   8
HETATM    8  N1  UNL     1      40.520  56.216  23.036  1.00  0.00    -0.236 NA
HETATM    9  C1  UNL     1      41.746  56.837  22.641  1.00  0.00     0.136 C 
BRANCH   8  10
HETATM   10  N2  UNL     1      39.383  56.776  22.509  1.00  0.00    -0.363 NA
ATOM     11  H22 UNL     1      39.501  57.146  21.566  1.00  0.00     0.171 HD
ATOM     12  H21 UNL     1      38.532  56.225  22.626  1.00  0.00     0.171 HD
ENDBRANCH   8  10
ENDBRANCH   7   8
ENDBRANCH   1   7
BRANCH   6  13
HETATM   13  N5  UNL     1      38.978  53.674  23.101  1.00  0.00    -0.324 N 
ATOM     14  H52 UNL     1      39.135  54.148  22.211  1.00  0.00     0.178 HD
ATOM     15  H51 UNL     1      38.014  53.347  23.156  1.00  0.00     0.178 HD
ENDBRANCH   6  13
TORSDOF 4
ENDMDL
MODEL 2
REMARK VINA RESULT: -3.852234062      1.553      3.811
REMARK  4 active torsions:
REMARK  status: ('A' for Active; 'I' for Inactive)
REMARK    1  A    between atoms: N1_2  and  N2_3 
REMARK    2  A    between atoms: N1_2  and  C2_6 
REMARK    3  A    between atoms: C2_6  and  C3_7 
REMARK    4  A    between atoms: N4_12  and  N5_13 
ROOT
HETATM    1  C3  UNL     1      40.576  54.756  22.518  1.00  0.00     0.068 A 
HETATM    2  C4  UNL     1      40.900  55.858  21.747  1.00  0.00     0.048 A 
HETATM    3  C5  UNL     1      39.808  56.214  20.965  1.00  0.00     0.111 A 
HETATM    4  N3  UNL     1      38.850  55.322  21.280  1.00  0.00    -0.291 N 
ATOM      5  H3  UNL     1      37.914  55.308  20.875  1.00  0.00     0.188 HD
HETATM    6  N4  UNL     1      39.290  54.465  22.188  1.00  0.00    -0.207 N 
ENDROOT
BRANCH   1   7
HETATM    7  C2  UNL     1      41.402  54.020  23.498  1.00  0.00     0.173 C 
BRANCH   7   8
HETATM    8  N1  UNL     1      40.650  53.743  24.700  1.00  0.00    -0.236 NA
HETATM    9  C1  UNL     1      41.123  54.458  25.844  1.00  0.00     0.136 C 
BRANCH   8  10
HETATM   10  N2  UNL     1      40.395  52.411  24.905  1.00  0.00    -0.363 NA
ATOM     11  H22 UNL     1      40.646  52.078  25.836  1.00  0.00     0.171 HD
ATOM     12  H21 UNL     1      39.478  52.089  24.593  1.00  0.00     0.171 HD
ENDBRANCH   8  10
ENDBRANCH   7   8
ENDBRANCH   1   7
BRANCH   6  13
HETATM   13  N5  UNL     1      38.543  53.408  22.733  1.00  0.00    -0.324 N 
ATOM     14  H52 UNL     1      37.597  53.149  22.450  1.00  0.00     0.178 HD
ATOM     15  H51 UNL     1      38.868  52.786  23.473  1.00  0.00     0.178 HD
ENDBRANCH   6  13
TORSDOF 4
ENDMDL
MODEL 3
REMARK VINA RESULT: -3.824754284      6.961      7.879
REMARK  4 active torsions:
REMARK  status: ('A' for Active; 'I' for Inactive)
REMARK    1  A    between atoms: N1_2  and  N2_3 
REMARK    2  A    between atoms: N1_2  and  C2_6 
REMARK    3  A    between atoms: C2_6  and  C3_7 
REMARK    4  A    between atoms: N4_12  and  N5_13 
ROOT
HETATM    1  C3  UNL     1      43.352  55.002  17.798  1.00  0.00     0.068 A 
HETATM    2  C4  UNL     1      42.457  55.981  17.409  1.00  0.00     0.048 A 
HETATM    3  C5  UNL     1      41.218  55.405  17.159  1.00  0.00     0.111 A 
HETATM    4  N3  UNL     1      41.391  54.091  17.403  1.00  0.00    -0.291 N 
ATOM      5  H3  UNL     1      40.662  53.384  17.311  1.00  0.00     0.188 HD
HETATM    6  N4  UNL     1      42.636  53.845  17.777  1.00  0.00    -0.207 N 
ENDROOT
BRANCH   1   7
HETATM    7  C2  UNL     1      44.778  55.125  18.167  1.00  0.00     0.173 C 
BRANCH   7   8
HETATM    8  N1  UNL     1      45.624  54.526  17.160  1.00  0.00    -0.236 NA
HETATM    9  C1  UNL     1      45.247  54.867  15.824  1.00  0.00     0.136 C 
BRANCH   8  10
HETATM   10  N2  UNL     1      45.891  53.197  17.374  1.00  0.00    -0.363 NA
ATOM     11  H22 UNL     1      46.587  52.806  16.738  1.00  0.00     0.171 HD
ATOM     12  H21 UNL     1      46.038  52.933  18.348  1.00  0.00     0.171 HD
ENDBRANCH   8  10
ENDBRANCH   7   8
ENDBRANCH   1   7
BRANCH   6  13
HETATM   13  N5  UNL     1      43.148  52.580  18.106  1.00  0.00    -0.324 N 
ATOM     14  H52 UNL     1      44.021  52.188  17.752  1.00  0.00     0.178 HD
ATOM     15  H51 UNL     1      42.700  51.917  18.738  1.00  0.00     0.178 HD
ENDBRANCH   6  13
TORSDOF 4
ENDMDL
MODEL 4
REMARK VINA RESULT: -3.811569347      5.697      7.106
REMARK  4 active torsions:
REMARK  status: ('A' for Active; 'I' for Inactive)
REMARK    1  A    between atoms: N1_2  and  N2_3 
REMARK    2  A    between atoms: N1_2  and  C2_6 
REMARK    3  A    between atoms: C2_6  and  C3_7 
REMARK    4  A    between atoms: N4_12  and  N5_13 
ROOT
HETATM    1  C3  UNL     1      42.641  55.831  18.187  1.00  0.00     0.068 A 
HETATM    2  C4  UNL     1      42.503  56.659  19.286  1.00  0.00     0.048 A 
HETATM    3  C5  UNL     1      41.240  56.490  19.840  1.00  0.00     0.111 A 
HETATM    4  N3  UNL     1      40.643  55.565  19.064  1.00  0.00    -0.291 N 
ATOM      5  H3  UNL     1      39.696  55.214  19.206  1.00  0.00     0.188 HD
HETATM    6  N4  UNL     1      41.454  55.172  18.095  1.00  0.00    -0.207 N 
ENDROOT
BRANCH   1   7
HETATM    7  C2  UNL     1      43.795  55.657  17.280  1.00  0.00     0.173 C 
BRANCH   7   8
HETATM    8  N1  UNL     1      44.068  54.256  17.057  1.00  0.00    -0.236 NA
HETATM    9  C1  UNL     1      45.310  53.823  17.617  1.00  0.00     0.136 C 
BRANCH   8  10
HETATM   10  N2  UNL     1      43.825  53.836  15.774  1.00  0.00    -0.363 NA
ATOM     11  H22 UNL     1      43.878  52.825  15.650  1.00  0.00     0.171 HD
ATOM     12  H21 UNL     1      43.013  54.258  15.323  1.00  0.00     0.171 HD
ENDBRANCH   8  10
ENDBRANCH   7   8
ENDBRANCH   1   7
BRANCH   6  13
HETATM   13  N5  UNL     1      41.142  54.218  17.113  1.00  0.00    -0.324 N 
ATOM     14  H52 UNL     1      41.759  53.466  16.807  1.00  0.00     0.178 HD
ATOM     15  H51 UNL     1      40.260  54.177  16.602  1.00  0.00     0.178 HD
ENDBRANCH   6  13
TORSDOF 4
ENDMDL
MODEL 5
REMARK VINA RESULT: -3.711319884      6.171      7.424
REMARK  4 active torsions:
REMARK  status: ('A' for Active; 'I' for Inactive)
REMARK    1  A    between atoms: N1_2  and  N2_3 
REMARK    2  A    between atoms: N1_2  and  C2_6 
REMARK    3  A    between atoms: C2_6  and  C3_7 
REMARK    4  A    between atoms: N4_12  and  N5_13 
ROOT
HETATM    1  C3  UNL     1      43.296  54.753  18.180  1.00  0.00     0.068 A 
HETATM    2  C4  UNL     1      43.154  56.102  18.451  1.00  0.00     0.048 A 
HETATM    3  C5  UNL     1      41.838  56.370  18.805  1.00  0.00     0.111 A 
HETATM    4  N3  UNL     1      41.213  55.178  18.742  1.00  0.00    -0.291 N 
ATOM      5  H3  UNL     1      40.225  55.029  18.947  1.00  0.00     0.188 HD
HETATM    6  N4  UNL     1      42.057  54.226  18.377  1.00  0.00    -0.207 N 
ENDROOT
BRANCH   1   7
HETATM    7  C2  UNL     1      44.498  53.999  17.767  1.00  0.00     0.173 C 
BRANCH   7   8
HETATM    8  N1  UNL     1      44.562  53.881  16.328  1.00  0.00    -0.236 NA
HETATM    9  C1  UNL     1      45.381  54.877  15.712  1.00  0.00     0.136 C 
BRANCH   8  10
HETATM   10  N2  UNL     1      43.345  53.669  15.730  1.00  0.00    -0.363 NA
ATOM     11  H22 UNL     1      43.164  54.275  14.930  1.00  0.00     0.171 HD
ATOM     12  H21 UNL     1      43.107  52.692  15.561  1.00  0.00     0.171 HD
ENDBRANCH   8  10
ENDBRANCH   7   8
ENDBRANCH   1   7
BRANCH   6  13
HETATM   13  N5  UNL     1      41.729  52.870  18.216  1.00  0.00    -0.324 N 
ATOM     14  H52 UNL     1      40.811  52.515  17.948  1.00  0.00     0.178 HD
ATOM     15  H51 UNL     1      42.378  52.095  18.349  1.00  0.00     0.178 HD
ENDBRANCH   6  13
TORSDOF 4
ENDMDL
