MODEL 1
REMARK VINA RESULT: -4.326799546      0.000      0.000
REMARK  2 active torsions:
REMARK  status: ('A' for Active; 'I' for Inactive)
REMARK    1  A    between atoms: N2_4  and  N3_6 
REMARK    2  A    between atoms: N3_6  and  C1_8 
ROOT
HETATM    1  C1  UNL     1      40.030  53.837  23.573  1.00  0.00     0.137 C 
HETATM    2  C2  UNL     1      40.940  53.673  22.355  1.00  0.00     0.148 C 
HETATM    3  N4  UNL     1      40.328  54.440  21.258  1.00  0.00    -0.383 N 
ATOM      4  H4  UNL     1      40.446  54.075  20.313  1.00  0.00     0.160 HD
HETATM    5  C3  UNL     1      39.654  55.533  21.389  1.00  0.00     0.192 C 
HETATM    6  N5  UNL     1      39.340  56.252  22.583  1.00  0.00    -0.301 N 
ATOM      7  H5  UNL     1      38.468  56.780  22.592  1.00  0.00     0.187 HD
HETATM    8  N6  UNL     1      40.112  56.295  23.727  1.00  0.00    -0.334 N 
ATOM      9  H6  UNL     1      40.477  57.174  24.095  1.00  0.00     0.180 HD
HETATM   10  C4  UNL     1      40.370  55.052  24.364  1.00  0.00     0.167 C 
ENDROOT
BRANCH   1  11
HETATM   11  N3  UNL     1      40.090  52.651  24.373  1.00  0.00    -0.315 N 
ATOM     12  H3  UNL     1      39.606  51.811  24.053  1.00  0.00     0.182 HD
BRANCH  11  13
HETATM   13  N2  UNL     1      40.793  52.612  25.581  1.00  0.00    -0.253 N 
HETATM   14  N1  UNL     1      41.873  51.948  25.611  1.00  0.00    -0.331 N 
ATOM     15  H12 UNL     1      42.203  51.465  24.775  1.00  0.00     0.178 HD
ATOM     16  H11 UNL     1      42.386  51.919  26.493  1.00  0.00     0.178 HD
ATOM     17  H2  UNL     1      40.450  53.100  26.409  1.00  0.00     0.207 HD
ENDBRANCH  11  13
ENDBRANCH   1  11
TORSDOF 2
ENDMDL
MODEL 2
REMARK VINA RESULT: -4.282424778      2.695      4.022
REMARK  2 active torsions:
REMARK  status: ('A' for Active; 'I' for Inactive)
REMARK    1  A    between atoms: N2_4  and  N3_6 
REMARK    2  A    between atoms: N3_6  and  C1_8 
ROOT
HETATM    1  C1  UNL     1      40.609  56.212  21.508  1.00  0.00     0.137 C 
HETATM    2  C2  UNL     1      39.739  56.982  22.503  1.00  0.00     0.148 C 
HETATM    3  N4  UNL     1      40.632  57.896  23.232  1.00  0.00    -0.383 N 
ATOM      4  H4  UNL     1      40.403  58.091  24.206  1.00  0.00     0.160 HD
HETATM    5  C3  UNL     1      41.679  58.473  22.744  1.00  0.00     0.192 C 
HETATM    6  N5  UNL     1      42.221  58.376  21.426  1.00  0.00    -0.301 N 
ATOM      7  H5  UNL     1      43.230  58.483  21.330  1.00  0.00     0.187 HD
HETATM    8  N6  UNL     1      41.500  58.148  20.271  1.00  0.00    -0.334 N 
ATOM      9  H6  UNL     1      41.503  58.813  19.498  1.00  0.00     0.180 HD
HETATM   10  C4  UNL     1      40.756  56.939  20.216  1.00  0.00     0.167 C 
ENDROOT
BRANCH   1  11
HETATM   11  N3  UNL     1      40.066  54.901  21.317  1.00  0.00    -0.315 N 
ATOM     12  H3  UNL     1      40.591  54.221  20.766  1.00  0.00     0.182 HD
BRANCH  11  13
HETATM   13  N2  UNL     1      38.834  54.526  21.865  1.00  0.00    -0.253 N 
HETATM   14  N1  UNL     1      38.824  53.549  22.673  1.00  0.00    -0.331 N 
ATOM     15  H12 UNL     1      39.691  53.063  22.904  1.00  0.00     0.178 HD
ATOM     16  H11 UNL     1      37.926  53.276  23.072  1.00  0.00     0.178 HD
ATOM     17  H2  UNL     1      37.976  55.022  21.625  1.00  0.00     0.207 HD
ENDBRANCH  11  13
ENDBRANCH   1  11
TORSDOF 2
ENDMDL
MODEL 3
REMARK VINA RESULT: -4.279639687      1.848      3.005
REMARK  2 active torsions:
REMARK  status: ('A' for Active; 'I' for Inactive)
REMARK    1  A    between atoms: N2_4  and  N3_6 
REMARK    2  A    between atoms: N3_6  and  C1_8 
ROOT
HETATM    1  C1  UNL     1      40.158  55.727  22.453  1.00  0.00     0.137 C 
HETATM    2  C2  UNL     1      40.181  57.223  22.775  1.00  0.00     0.148 C 
HETATM    3  N4  UNL     1      41.138  57.844  21.846  1.00  0.00    -0.383 N 
ATOM      4  H4  UNL     1      41.669  58.643  22.190  1.00  0.00     0.160 HD
HETATM    5  C3  UNL     1      41.363  57.464  20.632  1.00  0.00     0.192 C 
HETATM    6  N5  UNL     1      40.767  56.387  19.908  1.00  0.00    -0.301 N 
ATOM      7  H5  UNL     1      41.338  55.935  19.194  1.00  0.00     0.187 HD
HETATM    8  N6  UNL     1      39.488  55.901  20.088  1.00  0.00    -0.334 N 
ATOM      9  H6  UNL     1      38.803  55.900  19.333  1.00  0.00     0.180 HD
HETATM   10  C4  UNL     1      39.176  55.403  21.381  1.00  0.00     0.167 C 
ENDROOT
BRANCH   1  11
HETATM   11  N3  UNL     1      39.896  54.988  23.652  1.00  0.00    -0.315 N 
ATOM     12  H3  UNL     1      40.073  55.429  24.555  1.00  0.00     0.182 HD
BRANCH  11  13
HETATM   13  N2  UNL     1      39.403  53.680  23.618  1.00  0.00    -0.253 N 
HETATM   14  N1  UNL     1      40.013  52.804  24.303  1.00  0.00    -0.331 N 
ATOM     15  H12 UNL     1      40.832  53.062  24.855  1.00  0.00     0.178 HD
ATOM     16  H11 UNL     1      39.654  51.850  24.278  1.00  0.00     0.178 HD
ATOM     17  H2  UNL     1      38.583  53.438  23.062  1.00  0.00     0.207 HD
ENDBRANCH  11  13
ENDBRANCH   1  11
TORSDOF 2
ENDMDL
MODEL 4
REMARK VINA RESULT: -4.257582378      0.939      1.283
REMARK  2 active torsions:
REMARK  status: ('A' for Active; 'I' for Inactive)
REMARK    1  A    between atoms: N2_4  and  N3_6 
REMARK    2  A    between atoms: N3_6  and  C1_8 
ROOT
HETATM    1  C1  UNL     1      39.982  53.869  23.404  1.00  0.00     0.137 C 
HETATM    2  C2  UNL     1      40.898  53.819  22.180  1.00  0.00     0.148 C 
HETATM    3  N4  UNL     1      40.312  54.714  21.171  1.00  0.00    -0.383 N 
ATOM      4  H4  UNL     1      40.429  54.453  20.193  1.00  0.00     0.160 HD
HETATM    5  C3  UNL     1      39.661  55.802  21.418  1.00  0.00     0.192 C 
HETATM    6  N5  UNL     1      39.355  56.393  22.682  1.00  0.00    -0.301 N 
ATOM      7  H5  UNL     1      38.494  56.937  22.744  1.00  0.00     0.187 HD
HETATM    8  N6  UNL     1      40.118  56.293  23.827  1.00  0.00    -0.334 N 
ATOM      9  H6  UNL     1      40.500  57.117  24.292  1.00  0.00     0.180 HD
HETATM   10  C4  UNL     1      40.344  54.982  24.326  1.00  0.00     0.167 C 
ENDROOT
BRANCH   1  11
HETATM   11  N3  UNL     1      40.010  52.601  24.070  1.00  0.00    -0.315 N 
ATOM     12  H3  UNL     1      39.399  52.449  24.873  1.00  0.00     0.182 HD
BRANCH  11  13
HETATM   13  N2  UNL     1      40.851  51.566  23.649  1.00  0.00    -0.253 N 
HETATM   14  N1  UNL     1      40.350  50.664  22.912  1.00  0.00    -0.331 N 
ATOM     15  H12 UNL     1      39.366  50.706  22.645  1.00  0.00     0.178 HD
ATOM     16  H11 UNL     1      40.964  49.909  22.606  1.00  0.00     0.178 HD
ATOM     17  H2  UNL     1      41.833  51.538  23.925  1.00  0.00     0.207 HD
ENDBRANCH  11  13
ENDBRANCH   1  11
TORSDOF 2
ENDMDL
MODEL 5
REMARK VINA RESULT: -4.253929432      1.496      4.316
REMARK  2 active torsions:
REMARK  status: ('A' for Active; 'I' for Inactive)
REMARK    1  A    between atoms: N2_4  and  N3_6 
REMARK    2  A    between atoms: N3_6  and  C1_8 
ROOT
HETATM    1  C1  UNL     1      39.721  53.845  22.905  1.00  0.00     0.137 C 
HETATM    2  C2  UNL     1      40.838  54.810  23.303  1.00  0.00     0.148 C 
HETATM    3  N4  UNL     1      41.025  54.672  24.755  1.00  0.00    -0.383 N 
ATOM      4  H4  UNL     1      41.298  55.507  25.272  1.00  0.00     0.160 HD
HETATM    5  C3  UNL     1      40.872  53.583  25.433  1.00  0.00     0.192 C 
HETATM    6  N5  UNL     1      40.496  52.286  24.967  1.00  0.00    -0.301 N 
ATOM      7  H5  UNL     1      39.982  51.690  25.616  1.00  0.00     0.187 HD
HETATM    8  N6  UNL     1      40.766  51.767  23.717  1.00  0.00    -0.334 N 
ATOM      9  H6  UNL     1      41.313  50.914  23.597  1.00  0.00     0.180 HD
HETATM   10  C4  UNL     1      40.242  52.481  22.607  1.00  0.00     0.167 C 
ENDROOT
BRANCH   1  11
HETATM   11  N3  UNL     1      38.997  54.388  21.794  1.00  0.00    -0.315 N 
ATOM     12  H3  UNL     1      38.531  53.752  21.147  1.00  0.00     0.182 HD
BRANCH  11  13
HETATM   13  N2  UNL     1      38.911  55.767  21.574  1.00  0.00    -0.253 N 
HETATM   14  N1  UNL     1      37.859  56.209  21.021  1.00  0.00    -0.331 N 
ATOM     15  H12 UNL     1      37.112  55.569  20.752  1.00  0.00     0.178 HD
ATOM     16  H11 UNL     1      37.797  57.214  20.860  1.00  0.00     0.178 HD
ATOM     17  H2  UNL     1      39.667  56.394  21.849  1.00  0.00     0.207 HD
ENDBRANCH  11  13
ENDBRANCH   1  11
TORSDOF 2
ENDMDL
