MODEL 1
REMARK VINA RESULT: -9.504664018      0.000      0.000
REMARK  10 active torsions:
REMARK  status: ('A' for Active; 'I' for Inactive)
REMARK    1  A    between atoms: C2_3  and  N2_4 
REMARK       I    between atoms: N2_4  and  C3_6 
REMARK    2  A    between atoms: C3_6  and  C4_8 
REMARK    3  A    between atoms: C4_8  and  S1_9 
REMARK    4  A    between atoms: S1_9  and  C5_10 
REMARK    5  A    between atoms: C6_11  and  O2_12 
REMARK    6  A    between atoms: C6_11  and  N3_14 
REMARK    7  A    between atoms: N3_14  and  N4_16 
REMARK    8  A    between atoms: N4_16  and  C7_17 
REMARK    9  A    between atoms: C7_17  and  O3_18 
REMARK   10  A    between atoms: C7_17  and  C8_20 
ROOT
HETATM    1  N1  UNL     1       7.806  45.323 104.731  1.00  0.00    -0.195 NA
HETATM    2  C1  UNL     1       8.528  45.806 105.485  1.00  0.00     0.091 C 
HETATM    3  C2  UNL     1       9.464  46.445 106.426  1.00  0.00     0.122 C 
HETATM    4  C12 UNL     1       9.790  45.471 107.547  1.00  0.00     0.046 C 
HETATM    5  C13 UNL     1      10.770  44.549 106.807  1.00  0.00     0.004 C 
HETATM    6  C14 UNL     1      11.738  45.584 106.284  1.00  0.00     0.004 C 
HETATM    7  C15 UNL     1      10.779  46.657 105.751  1.00  0.00     0.046 C 
ENDROOT
BRANCH   3   8
HETATM    8  N2  UNL     1       8.873  47.653 106.925  1.00  0.00    -0.338 N 
HETATM    9  C3  UNL     1       8.192  47.745 108.192  1.00  0.00     0.228 C 
HETATM   10  O1  UNL     1       8.099  46.764 108.935  1.00  0.00    -0.273 OA
ATOM     11  H2  UNL     1       8.939  48.494 106.351  1.00  0.00     0.164 HD
BRANCH   9  12
HETATM   12  C4  UNL     1       7.599  49.103 108.515  1.00  0.00     0.181 C 
BRANCH  12  13
HETATM   13  S1  UNL     1       7.904  49.536 110.209  1.00  0.00    -0.128 SA
BRANCH  13  14
HETATM   14  C5  UNL     1       6.637  49.352 111.398  1.00  0.00     0.103 C 
HETATM   15  C6  UNL     1       5.908  50.522 111.800  1.00  0.00     0.171 C 
BRANCH  15  16
HETATM   16  O2  UNL     1       5.316  50.417 112.986  1.00  0.00    -0.344 OA
ATOM     17  H2  UNL     1       5.792  49.888 113.616  1.00  0.00     0.219 HD
ENDBRANCH  15  16
BRANCH  15  18
HETATM   18  N3  UNL     1       5.732  51.761 111.150  1.00  0.00    -0.210 N 
ATOM     19  H3  UNL     1       5.148  51.854 110.319  1.00  0.00     0.204 HD
BRANCH  18  20
HETATM   20  N4  UNL     1       6.397  52.845 111.701  1.00  0.00    -0.295 NA
BRANCH  20  21
HETATM   21  C7  UNL     1       7.010  53.854 112.207  1.00  0.00     0.272 C 
BRANCH  21  22
HETATM   22  O3  UNL     1       6.669  54.445 113.336  1.00  0.00    -0.332 OA
ATOM     23  H3  UNL     1       7.169  55.138 113.753  1.00  0.00     0.220 HD
ENDBRANCH  21  22
BRANCH  21  24
HETATM   24  C8  UNL     1       8.225  54.527 111.613  1.00  0.00     0.142 A 
HETATM   25  C9  UNL     1       9.217  53.969 110.872  1.00  0.00     0.045 A 
HETATM   26  C10 UNL     1      10.143  54.964 110.540  1.00  0.00     0.027 A 
HETATM   27  C11 UNL     1       9.631  56.104 111.118  1.00  0.00     0.143 A 
HETATM   28  O4  UNL     1       8.515  55.819 111.732  1.00  0.00    -0.317 OA
ENDBRANCH  21  24
ENDBRANCH  20  21
ENDBRANCH  18  20
ENDBRANCH  15  18
ENDBRANCH  13  14
ENDBRANCH  12  13
ENDBRANCH   9  12
ENDBRANCH   3   8
TORSDOF 10
ENDMDL
MODEL 2
REMARK VINA RESULT: -9.353674038      1.231      1.315
REMARK  10 active torsions:
REMARK  status: ('A' for Active; 'I' for Inactive)
REMARK    1  A    between atoms: C2_3  and  N2_4 
REMARK       I    between atoms: N2_4  and  C3_6 
REMARK    2  A    between atoms: C3_6  and  C4_8 
REMARK    3  A    between atoms: C4_8  and  S1_9 
REMARK    4  A    between atoms: S1_9  and  C5_10 
REMARK    5  A    between atoms: C6_11  and  O2_12 
REMARK    6  A    between atoms: C6_11  and  N3_14 
REMARK    7  A    between atoms: N3_14  and  N4_16 
REMARK    8  A    between atoms: N4_16  and  C7_17 
REMARK    9  A    between atoms: C7_17  and  O3_18 
REMARK   10  A    between atoms: C7_17  and  C8_20 
ROOT
HETATM    1  N1  UNL     1       7.933  45.105 104.699  1.00  0.00    -0.195 NA
HETATM    2  C1  UNL     1       8.744  45.397 105.461  1.00  0.00     0.091 C 
HETATM    3  C2  UNL     1       9.776  45.802 106.430  1.00  0.00     0.122 C 
HETATM    4  C12 UNL     1      10.776  44.670 106.599  1.00  0.00     0.046 C 
HETATM    5  C13 UNL     1      11.574  44.837 105.299  1.00  0.00     0.004 C 
HETATM    6  C14 UNL     1      11.933  46.300 105.414  1.00  0.00     0.004 C 
HETATM    7  C15 UNL     1      10.594  46.909 105.850  1.00  0.00     0.046 C 
ENDROOT
BRANCH   3   8
HETATM    8  N2  UNL     1       9.144  46.144 107.670  1.00  0.00    -0.338 N 
HETATM    9  C3  UNL     1       8.374  47.347 107.869  1.00  0.00     0.228 C 
HETATM   10  O1  UNL     1       8.205  48.151 106.948  1.00  0.00    -0.273 OA
ATOM     11  H2  UNL     1       9.243  45.501 108.456  1.00  0.00     0.164 HD
BRANCH   9  12
HETATM   12  C4  UNL     1       7.823  47.544 109.268  1.00  0.00     0.181 C 
BRANCH  12  13
HETATM   13  S1  UNL     1       8.039  49.224 109.799  1.00  0.00    -0.128 SA
BRANCH  13  14
HETATM   14  C5  UNL     1       6.681  50.322 109.798  1.00  0.00     0.103 C 
HETATM   15  C6  UNL     1       6.509  51.191 110.927  1.00  0.00     0.171 C 
BRANCH  15  16
HETATM   16  O2  UNL     1       5.268  51.641 111.088  1.00  0.00    -0.344 OA
ATOM     17  H2  UNL     1       4.843  51.914 110.283  1.00  0.00     0.219 HD
ENDBRANCH  15  16
BRANCH  15  18
HETATM   18  N3  UNL     1       7.436  51.632 111.894  1.00  0.00    -0.210 N 
ATOM     19  H3  UNL     1       7.948  50.978 112.486  1.00  0.00     0.204 HD
BRANCH  18  20
HETATM   20  N4  UNL     1       7.614  53.003 111.996  1.00  0.00    -0.295 NA
BRANCH  20  21
HETATM   21  C7  UNL     1       7.786  54.273 112.092  1.00  0.00     0.272 C 
BRANCH  21  22
HETATM   22  O3  UNL     1       6.964  55.091 112.722  1.00  0.00    -0.332 OA
ATOM     23  H3  UNL     1       7.140  56.011 112.883  1.00  0.00     0.220 HD
ENDBRANCH  21  22
BRANCH  21  24
HETATM   24  C8  UNL     1       8.951  55.043 111.520  1.00  0.00     0.142 A 
HETATM   25  C9  UNL     1       9.802  54.670 110.529  1.00  0.00     0.045 A 
HETATM   26  C10 UNL     1      10.736  55.692 110.330  1.00  0.00     0.027 A 
HETATM   27  C11 UNL     1      10.375  56.658 111.242  1.00  0.00     0.143 A 
HETATM   28  O4  UNL     1       9.334  56.253 111.918  1.00  0.00    -0.317 OA
ENDBRANCH  21  24
ENDBRANCH  20  21
ENDBRANCH  18  20
ENDBRANCH  15  18
ENDBRANCH  13  14
ENDBRANCH  12  13
ENDBRANCH   9  12
ENDBRANCH   3   8
TORSDOF 10
ENDMDL
MODEL 3
REMARK VINA RESULT: -8.938412053      1.979      2.468
REMARK  10 active torsions:
REMARK  status: ('A' for Active; 'I' for Inactive)
REMARK    1  A    between atoms: C2_3  and  N2_4 
REMARK       I    between atoms: N2_4  and  C3_6 
REMARK    2  A    between atoms: C3_6  and  C4_8 
REMARK    3  A    between atoms: C4_8  and  S1_9 
REMARK    4  A    between atoms: S1_9  and  C5_10 
REMARK    5  A    between atoms: C6_11  and  O2_12 
REMARK    6  A    between atoms: C6_11  and  N3_14 
REMARK    7  A    between atoms: N3_14  and  N4_16 
REMARK    8  A    between atoms: N4_16  and  C7_17 
REMARK    9  A    between atoms: C7_17  and  O3_18 
REMARK   10  A    between atoms: C7_17  and  C8_20 
ROOT
HETATM    1  N1  UNL     1      11.016  44.384 103.649  1.00  0.00    -0.195 NA
HETATM    2  C1  UNL     1      11.239  44.997 104.596  1.00  0.00     0.091 C 
HETATM    3  C2  UNL     1      11.542  45.802 105.792  1.00  0.00     0.122 C 
HETATM    4  C12 UNL     1      11.420  44.927 107.029  1.00  0.00     0.046 C 
HETATM    5  C13 UNL     1      12.734  44.140 106.917  1.00  0.00     0.004 C 
HETATM    6  C14 UNL     1      13.703  45.293 106.794  1.00  0.00     0.004 C 
HETATM    7  C15 UNL     1      12.985  46.189 105.776  1.00  0.00     0.046 C 
ENDROOT
BRANCH   3   8
HETATM    8  N2  UNL     1      10.648  46.921 105.840  1.00  0.00    -0.338 N 
HETATM    9  C3  UNL     1       9.236  46.805 106.104  1.00  0.00     0.228 C 
HETATM   10  O1  UNL     1       8.721  45.706 106.325  1.00  0.00    -0.273 OA
ATOM     11  H2  UNL     1      11.033  47.853 105.678  1.00  0.00     0.164 HD
BRANCH   9  12
HETATM   12  C4  UNL     1       8.457  48.106 106.069  1.00  0.00     0.181 C 
BRANCH  12  13
HETATM   13  S1  UNL     1       7.410  48.253 107.494  1.00  0.00    -0.128 SA
BRANCH  13  14
HETATM   14  C5  UNL     1       8.099  48.159 109.097  1.00  0.00     0.103 C 
HETATM   15  C6  UNL     1       7.751  49.178 110.047  1.00  0.00     0.171 C 
BRANCH  15  16
HETATM   16  O2  UNL     1       8.623  49.321 111.040  1.00  0.00    -0.344 OA
ATOM     17  H2  UNL     1       8.324  48.982 111.876  1.00  0.00     0.219 HD
ENDBRANCH  15  16
BRANCH  15  18
HETATM   18  N3  UNL     1       6.647  50.054 110.087  1.00  0.00    -0.210 N 
ATOM     19  H3  UNL     1       5.760  49.823 109.641  1.00  0.00     0.204 HD
BRANCH  18  20
HETATM   20  N4  UNL     1       6.833  51.248 110.767  1.00  0.00    -0.295 NA
BRANCH  20  21
HETATM   21  C7  UNL     1       7.007  52.357 111.392  1.00  0.00     0.272 C 
BRANCH  21  22
HETATM   22  O3  UNL     1       6.240  52.788 112.375  1.00  0.00    -0.332 OA
ATOM     23  H3  UNL     1       6.238  52.426 113.253  1.00  0.00     0.220 HD
ENDBRANCH  21  22
BRANCH  21  24
HETATM   24  C8  UNL     1       8.116  53.347 111.123  1.00  0.00     0.142 A 
HETATM   25  C9  UNL     1       8.235  54.621 111.580  1.00  0.00     0.045 A 
HETATM   26  C10 UNL     1       9.418  55.170 111.073  1.00  0.00     0.027 A 
HETATM   27  C11 UNL     1       9.963  54.155 110.320  1.00  0.00     0.143 A 
HETATM   28  O4  UNL     1       9.185  53.108 110.370  1.00  0.00    -0.317 OA
ENDBRANCH  21  24
ENDBRANCH  20  21
ENDBRANCH  18  20
ENDBRANCH  15  18
ENDBRANCH  13  14
ENDBRANCH  12  13
ENDBRANCH   9  12
ENDBRANCH   3   8
TORSDOF 10
ENDMDL
MODEL 4
REMARK VINA RESULT: -8.885925627      2.897      8.946
REMARK  10 active torsions:
REMARK  status: ('A' for Active; 'I' for Inactive)
REMARK    1  A    between atoms: C2_3  and  N2_4 
REMARK       I    between atoms: N2_4  and  C3_6 
REMARK    2  A    between atoms: C3_6  and  C4_8 
REMARK    3  A    between atoms: C4_8  and  S1_9 
REMARK    4  A    between atoms: S1_9  and  C5_10 
REMARK    5  A    between atoms: C6_11  and  O2_12 
REMARK    6  A    between atoms: C6_11  and  N3_14 
REMARK    7  A    between atoms: N3_14  and  N4_16 
REMARK    8  A    between atoms: N4_16  and  C7_17 
REMARK    9  A    between atoms: C7_17  and  O3_18 
REMARK   10  A    between atoms: C7_17  and  C8_20 
ROOT
HETATM    1  N1  UNL     1      10.757  54.194 108.553  1.00  0.00    -0.195 NA
HETATM    2  C1  UNL     1      10.398  54.241 109.645  1.00  0.00     0.091 C 
HETATM    3  C2  UNL     1       9.907  54.295 111.033  1.00  0.00     0.122 C 
HETATM    4  C12 UNL     1      10.837  55.170 111.859  1.00  0.00     0.046 C 
HETATM    5  C13 UNL     1      10.380  56.554 111.377  1.00  0.00     0.004 C 
HETATM    6  C14 UNL     1       8.897  56.429 111.632  1.00  0.00     0.004 C 
HETATM    7  C15 UNL     1       8.607  55.030 111.071  1.00  0.00     0.046 C 
ENDROOT
BRANCH   3   8
HETATM    8  N2  UNL     1       9.828  52.962 111.552  1.00  0.00    -0.338 N 
HETATM    9  C3  UNL     1       8.899  51.970 111.070  1.00  0.00     0.228 C 
HETATM   10  O1  UNL     1       8.121  52.226 110.148  1.00  0.00    -0.273 OA
ATOM     11  H2  UNL     1      10.464  52.699 112.306  1.00  0.00     0.164 HD
BRANCH   9  12
HETATM   12  C4  UNL     1       8.947  50.632 111.782  1.00  0.00     0.181 C 
BRANCH  12  13
HETATM   13  S1  UNL     1       8.012  49.413 110.895  1.00  0.00    -0.128 SA
BRANCH  13  14
HETATM   14  C5  UNL     1       7.211  48.125 111.763  1.00  0.00     0.103 C 
HETATM   15  C6  UNL     1       7.906  46.879 111.922  1.00  0.00     0.171 C 
BRANCH  15  16
HETATM   16  O2  UNL     1       7.114  45.837 112.157  1.00  0.00    -0.344 OA
ATOM     17  H2  UNL     1       6.296  46.056 112.589  1.00  0.00     0.219 HD
ENDBRANCH  15  16
BRANCH  15  18
HETATM   18  N3  UNL     1       9.283  46.583 111.857  1.00  0.00    -0.210 N 
ATOM     19  H3  UNL     1       9.968  47.080 112.426  1.00  0.00     0.204 HD
BRANCH  18  20
HETATM   20  N4  UNL     1       9.656  45.578 110.978  1.00  0.00    -0.295 NA
BRANCH  20  21
HETATM   21  C7  UNL     1      10.003  44.643 110.167  1.00  0.00     0.272 C 
BRANCH  21  22
HETATM   22  O3  UNL     1      10.300  43.411 110.533  1.00  0.00    -0.332 OA
ATOM     23  H3  UNL     1      11.017  42.902 110.173  1.00  0.00     0.220 HD
ENDBRANCH  21  22
BRANCH  21  24
HETATM   24  C8  UNL     1      10.117  44.784 108.669  1.00  0.00     0.142 A 
HETATM   25  C9  UNL     1      11.165  44.453 107.869  1.00  0.00     0.045 A 
HETATM   26  C10 UNL     1      10.835  44.763 106.546  1.00  0.00     0.027 A 
HETATM   27  C11 UNL     1       9.560  45.274 106.629  1.00  0.00     0.143 A 
HETATM   28  O4  UNL     1       9.169  45.272 107.875  1.00  0.00    -0.317 OA
ENDBRANCH  21  24
ENDBRANCH  20  21
ENDBRANCH  18  20
ENDBRANCH  15  18
ENDBRANCH  13  14
ENDBRANCH  12  13
ENDBRANCH   9  12
ENDBRANCH   3   8
TORSDOF 10
ENDMDL
MODEL 5
REMARK VINA RESULT: -8.844726243      1.824      2.315
REMARK  10 active torsions:
REMARK  status: ('A' for Active; 'I' for Inactive)
REMARK    1  A    between atoms: C2_3  and  N2_4 
REMARK       I    between atoms: N2_4  and  C3_6 
REMARK    2  A    between atoms: C3_6  and  C4_8 
REMARK    3  A    between atoms: C4_8  and  S1_9 
REMARK    4  A    between atoms: S1_9  and  C5_10 
REMARK    5  A    between atoms: C6_11  and  O2_12 
REMARK    6  A    between atoms: C6_11  and  N3_14 
REMARK    7  A    between atoms: N3_14  and  N4_16 
REMARK    8  A    between atoms: N4_16  and  C7_17 
REMARK    9  A    between atoms: C7_17  and  O3_18 
REMARK   10  A    between atoms: C7_17  and  C8_20 
ROOT
HETATM    1  N1  UNL     1       7.859  45.099 104.385  1.00  0.00    -0.195 NA
HETATM    2  C1  UNL     1       8.627  45.310 105.215  1.00  0.00     0.091 C 
HETATM    3  C2  UNL     1       9.601  45.611 106.278  1.00  0.00     0.122 C 
HETATM    4  C12 UNL     1      10.739  44.605 106.214  1.00  0.00     0.046 C 
HETATM    5  C13 UNL     1      11.506  45.162 105.007  1.00  0.00     0.004 C 
HETATM    6  C14 UNL     1      11.674  46.594 105.458  1.00  0.00     0.004 C 
HETATM    7  C15 UNL     1      10.269  46.915 105.984  1.00  0.00     0.046 C 
ENDROOT
BRANCH   3   8
HETATM    8  N2  UNL     1       8.933  45.581 107.546  1.00  0.00    -0.338 N 
HETATM    9  C3  UNL     1       9.544  45.102 108.760  1.00  0.00     0.228 C 
HETATM   10  O1  UNL     1      10.711  44.702 108.767  1.00  0.00    -0.273 OA
ATOM     11  H2  UNL     1       7.970  45.918 107.591  1.00  0.00     0.164 HD
BRANCH   9  12
HETATM   12  C4  UNL     1       8.652  45.114 109.987  1.00  0.00     0.181 C 
BRANCH  12  13
HETATM   13  S1  UNL     1       8.285  46.778 110.482  1.00  0.00    -0.128 SA
BRANCH  13  14
HETATM   14  C5  UNL     1       7.935  47.991 109.275  1.00  0.00     0.103 C 
HETATM   15  C6  UNL     1       7.903  49.367 109.683  1.00  0.00     0.171 C 
BRANCH  15  16
HETATM   16  O2  UNL     1       7.203  50.161 108.878  1.00  0.00    -0.344 OA
ATOM     17  H2  UNL     1       7.402  51.085 108.970  1.00  0.00     0.219 HD
ENDBRANCH  15  16
BRANCH  15  18
HETATM   18  N3  UNL     1       8.481  50.005 110.801  1.00  0.00    -0.210 N 
ATOM     19  H3  UNL     1       9.185  49.545 111.378  1.00  0.00     0.204 HD
BRANCH  18  20
HETATM   20  N4  UNL     1       8.041  51.290 111.071  1.00  0.00    -0.295 NA
BRANCH  20  21
HETATM   21  C7  UNL     1       7.626  52.481 111.323  1.00  0.00     0.272 C 
BRANCH  21  22
HETATM   22  O3  UNL     1       6.417  52.772 111.763  1.00  0.00    -0.332 OA
ATOM     23  H3  UNL     1       5.613  52.576 111.296  1.00  0.00     0.220 HD
ENDBRANCH  21  22
BRANCH  21  24
HETATM   24  C8  UNL     1       8.443  53.741 111.172  1.00  0.00     0.142 A 
HETATM   25  C9  UNL     1       9.594  53.919 110.472  1.00  0.00     0.045 A 
HETATM   26  C10 UNL     1      10.007  55.248 110.618  1.00  0.00     0.027 A 
HETATM   27  C11 UNL     1       9.042  55.812 111.421  1.00  0.00     0.143 A 
HETATM   28  O4  UNL     1       8.146  54.913 111.725  1.00  0.00    -0.317 OA
ENDBRANCH  21  24
ENDBRANCH  20  21
ENDBRANCH  18  20
ENDBRANCH  15  18
ENDBRANCH  13  14
ENDBRANCH  12  13
ENDBRANCH   9  12
ENDBRANCH   3   8
TORSDOF 10
ENDMDL
