MODEL 1
REMARK VINA RESULT: -8.650439903      0.000      0.000
REMARK  8 active torsions:
REMARK  status: ('A' for Active; 'I' for Inactive)
REMARK    1  A    between atoms: C1_2  and  N1_3 
REMARK    2  A    between atoms: N1_3  and  C2_5 
REMARK    3  A    between atoms: C2_5  and  C3_6 
REMARK    4  A    between atoms: C3_6  and  S1_7 
REMARK    5  A    between atoms: S1_7  and  C4_8 
REMARK    6  A    between atoms: C7_12  and  C8_13 
REMARK    7  A    between atoms: C14_19  and  O3_20 
REMARK    8  A    between atoms: C15_22  and  O4_23 
ROOT
HETATM    1  C4  UNL     1       7.955  47.689 111.980  1.00  0.00     0.186 C 
HETATM    2  C5  UNL     1       8.831  48.689 111.326  1.00  0.00     0.077 C 
HETATM    3  C6  UNL     1       7.955  49.882 111.066  1.00  0.00     0.157 C 
HETATM    4  O2  UNL     1       8.382  50.913 111.879  1.00  0.00    -0.375 OA
HETATM    5  C7  UNL     1       7.522  51.995 111.908  1.00  0.00     0.157 C 
HETATM    6  C14 UNL     1       6.167  51.743 111.324  1.00  0.00     0.178 C 
HETATM    7  C15 UNL     1       5.677  50.424 111.946  1.00  0.00     0.180 C 
HETATM    8  C16 UNL     1       6.610  49.343 111.443  1.00  0.00     0.183 C 
HETATM    9  O5  UNL     1       6.805  48.341 112.325  1.00  0.00    -0.365 OA
ENDROOT
BRANCH   1  10
HETATM   10  S1  UNL     1       7.655  46.207 110.969  1.00  0.00    -0.136 SA
BRANCH  10  11
HETATM   11  C3  UNL     1       8.889  45.968 109.688  1.00  0.00     0.096 C 
BRANCH  11  12
HETATM   12  C2  UNL     1       8.264  46.363 108.355  1.00  0.00     0.132 C 
BRANCH  12  13
HETATM   13  N1  UNL     1       7.438  47.537 108.440  1.00  0.00    -0.367 N 
ATOM     14  H1  UNL     1       6.793  47.616 109.226  1.00  0.00     0.161 HD
BRANCH  13  15
HETATM   15  C1  UNL     1       7.469  48.588 107.498  1.00  0.00     0.348 C 
HETATM   16  O1  UNL     1       7.081  49.720 107.803  1.00  0.00    -0.284 OA
ENDBRANCH  13  15
ENDBRANCH  12  13
ENDBRANCH  11  12
ENDBRANCH  10  11
ENDBRANCH   1  10
BRANCH   7  17
HETATM   17  O4  UNL     1       4.362  50.211 111.567  1.00  0.00    -0.390 OA
ATOM     18  H4  UNL     1       3.834  50.087 112.348  1.00  0.00     0.210 HD
ENDBRANCH   7  17
BRANCH   5  19
HETATM   19  C8  UNL     1       8.120  53.226 111.291  1.00  0.00     0.017 C 
HETATM   20  C9  UNL     1       9.588  53.016 110.948  1.00  0.00     0.007 C 
HETATM   21  C10 UNL     1      10.043  54.167 110.116  1.00  0.00     0.000 C 
HETATM   22  C11 UNL     1       9.820  55.502 110.790  1.00  0.00     0.000 C 
HETATM   23  C12 UNL     1       8.471  55.631 111.407  1.00  0.00     0.000 C 
HETATM   24  C13 UNL     1       8.053  54.406 112.220  1.00  0.00     0.007 C 
ENDBRANCH   5  19
BRANCH   6  25
HETATM   25  O3  UNL     1       6.157  51.674 109.952  1.00  0.00    -0.390 OA
ATOM     26  H3  UNL     1       6.257  50.793 109.611  1.00  0.00     0.210 HD
ENDBRANCH   6  25
TORSDOF 8
ENDMDL
MODEL 2
REMARK VINA RESULT: -8.472778769      1.406      1.544
REMARK  8 active torsions:
REMARK  status: ('A' for Active; 'I' for Inactive)
REMARK    1  A    between atoms: C1_2  and  N1_3 
REMARK    2  A    between atoms: N1_3  and  C2_5 
REMARK    3  A    between atoms: C2_5  and  C3_6 
REMARK    4  A    between atoms: C3_6  and  S1_7 
REMARK    5  A    between atoms: S1_7  and  C4_8 
REMARK    6  A    between atoms: C7_12  and  C8_13 
REMARK    7  A    between atoms: C14_19  and  O3_20 
REMARK    8  A    between atoms: C15_22  and  O4_23 
ROOT
HETATM    1  C4  UNL     1       8.005  47.667 111.926  1.00  0.00     0.186 C 
HETATM    2  C5  UNL     1       8.865  48.677 111.267  1.00  0.00     0.077 C 
HETATM    3  C6  UNL     1       7.978  49.866 111.027  1.00  0.00     0.157 C 
HETATM    4  O2  UNL     1       8.411  50.894 111.841  1.00  0.00    -0.375 OA
HETATM    5  C7  UNL     1       7.545  51.971 111.889  1.00  0.00     0.157 C 
HETATM    6  C14 UNL     1       6.183  51.714 111.323  1.00  0.00     0.178 C 
HETATM    7  C15 UNL     1       5.710  50.388 111.942  1.00  0.00     0.180 C 
HETATM    8  C16 UNL     1       6.643  49.316 111.419  1.00  0.00     0.183 C 
HETATM    9  O5  UNL     1       6.856  48.309 112.291  1.00  0.00    -0.365 OA
ENDROOT
BRANCH   1  10
HETATM   10  S1  UNL     1       7.700  46.190 110.910  1.00  0.00    -0.136 SA
BRANCH  10  11
HETATM   11  C3  UNL     1       8.431  46.299 109.273  1.00  0.00     0.096 C 
BRANCH  11  12
HETATM   12  C2  UNL     1       9.180  44.999 109.007  1.00  0.00     0.132 C 
BRANCH  12  13
HETATM   13  N1  UNL     1       9.704  44.908 107.670  1.00  0.00    -0.367 N 
ATOM     14  H1  UNL     1      10.413  44.199 107.479  1.00  0.00     0.161 HD
BRANCH  13  15
HETATM   15  C1  UNL     1       9.295  45.743 106.608  1.00  0.00     0.348 C 
HETATM   16  O1  UNL     1       8.595  45.301 105.692  1.00  0.00    -0.284 OA
ENDBRANCH  13  15
ENDBRANCH  12  13
ENDBRANCH  11  12
ENDBRANCH  10  11
ENDBRANCH   1  10
BRANCH   7  17
HETATM   17  O4  UNL     1       4.391  50.170 111.581  1.00  0.00    -0.390 OA
ATOM     18  H4  UNL     1       3.824  50.506 112.265  1.00  0.00     0.210 HD
ENDBRANCH   7  17
BRANCH   5  19
HETATM   19  C8  UNL     1       8.126  53.210 111.272  1.00  0.00     0.017 C 
HETATM   20  C9  UNL     1       9.587  53.006 110.895  1.00  0.00     0.007 C 
HETATM   21  C10 UNL     1      10.021  54.167 110.065  1.00  0.00     0.000 C 
HETATM   22  C11 UNL     1       9.810  55.494 110.759  1.00  0.00     0.000 C 
HETATM   23  C12 UNL     1       8.475  55.614 111.406  1.00  0.00     0.000 C 
HETATM   24  C13 UNL     1       8.077  54.379 112.215  1.00  0.00     0.007 C 
ENDBRANCH   5  19
BRANCH   6  25
HETATM   25  O3  UNL     1       6.154  51.654 109.951  1.00  0.00    -0.390 OA
ATOM     26  H3  UNL     1       6.532  50.859 109.593  1.00  0.00     0.210 HD
ENDBRANCH   6  25
TORSDOF 8
ENDMDL
MODEL 3
REMARK VINA RESULT: -8.038757696      3.083      7.087
REMARK  8 active torsions:
REMARK  status: ('A' for Active; 'I' for Inactive)
REMARK    1  A    between atoms: C1_2  and  N1_3 
REMARK    2  A    between atoms: N1_3  and  C2_5 
REMARK    3  A    between atoms: C2_5  and  C3_6 
REMARK    4  A    between atoms: C3_6  and  S1_7 
REMARK    5  A    between atoms: S1_7  and  C4_8 
REMARK    6  A    between atoms: C7_12  and  C8_13 
REMARK    7  A    between atoms: C14_19  and  O3_20 
REMARK    8  A    between atoms: C15_22  and  O4_23 
ROOT
HETATM    1  C4  UNL     1       7.051  51.351 110.538  1.00  0.00     0.186 C 
HETATM    2  C5  UNL     1       8.295  50.727 110.031  1.00  0.00     0.077 C 
HETATM    3  C6  UNL     1       8.320  49.344 110.620  1.00  0.00     0.157 C 
HETATM    4  O2  UNL     1       8.148  48.437 109.592  1.00  0.00    -0.375 OA
HETATM    5  C7  UNL     1       7.922  47.143 110.022  1.00  0.00     0.157 C 
HETATM    6  C14 UNL     1       7.597  47.006 111.476  1.00  0.00     0.178 C 
HETATM    7  C15 UNL     1       6.511  48.055 111.768  1.00  0.00     0.180 C 
HETATM    8  C16 UNL     1       7.158  49.408 111.561  1.00  0.00     0.183 C 
HETATM    9  O5  UNL     1       6.310  50.350 111.097  1.00  0.00    -0.365 OA
ENDROOT
BRANCH   1  10
HETATM   10  S1  UNL     1       7.342  52.740 111.676  1.00  0.00    -0.136 SA
BRANCH  10  11
HETATM   11  C3  UNL     1       8.897  53.584 111.373  1.00  0.00     0.096 C 
BRANCH  11  12
HETATM   12  C2  UNL     1       8.632  55.085 111.412  1.00  0.00     0.132 C 
BRANCH  12  13
HETATM   13  N1  UNL     1       9.658  55.861 110.768  1.00  0.00    -0.367 N 
ATOM     14  H1  UNL     1       9.539  56.090 109.781  1.00  0.00     0.161 HD
BRANCH  13  15
HETATM   15  C1  UNL     1      10.820  56.323 111.423  1.00  0.00     0.348 C 
HETATM   16  O1  UNL     1      10.769  57.284 112.196  1.00  0.00    -0.284 OA
ENDBRANCH  13  15
ENDBRANCH  12  13
ENDBRANCH  11  12
ENDBRANCH  10  11
ENDBRANCH   1  10
BRANCH   7  17
HETATM   17  O4  UNL     1       6.051  47.877 113.063  1.00  0.00    -0.390 OA
ATOM     18  H4  UNL     1       6.256  46.992 113.343  1.00  0.00     0.210 HD
ENDBRANCH   7  17
BRANCH   5  19
HETATM   19  C8  UNL     1       9.042  46.210 109.662  1.00  0.00     0.017 C 
HETATM   20  C9  UNL     1       9.008  45.850 108.183  1.00  0.00     0.007 C 
HETATM   21  C10 UNL     1      10.276  45.141 107.846  1.00  0.00     0.000 C 
HETATM   22  C11 UNL     1      10.511  43.919 108.705  1.00  0.00     0.000 C 
HETATM   23  C12 UNL     1      10.261  44.162 110.153  1.00  0.00     0.000 C 
HETATM   24  C13 UNL     1       8.961  44.919 110.428  1.00  0.00     0.007 C 
ENDBRANCH   5  19
BRANCH   6  25
HETATM   25  O3  UNL     1       8.678  47.174 112.307  1.00  0.00    -0.390 OA
ATOM     26  H3  UNL     1       8.854  46.427 112.866  1.00  0.00     0.210 HD
ENDBRANCH   6  25
TORSDOF 8
ENDMDL
MODEL 4
REMARK VINA RESULT: -7.668518126      2.787      6.691
REMARK  8 active torsions:
REMARK  status: ('A' for Active; 'I' for Inactive)
REMARK    1  A    between atoms: C1_2  and  N1_3 
REMARK    2  A    between atoms: N1_3  and  C2_5 
REMARK    3  A    between atoms: C2_5  and  C3_6 
REMARK    4  A    between atoms: C3_6  and  S1_7 
REMARK    5  A    between atoms: S1_7  and  C4_8 
REMARK    6  A    between atoms: C7_12  and  C8_13 
REMARK    7  A    between atoms: C14_19  and  O3_20 
REMARK    8  A    between atoms: C15_22  and  O4_23 
ROOT
HETATM    1  C4  UNL     1       7.309  51.583 110.711  1.00  0.00     0.186 C 
HETATM    2  C5  UNL     1       8.533  50.893 110.242  1.00  0.00     0.077 C 
HETATM    3  C6  UNL     1       8.427  49.488 110.764  1.00  0.00     0.157 C 
HETATM    4  O2  UNL     1       8.252  48.642 109.686  1.00  0.00    -0.375 OA
HETATM    5  C7  UNL     1       7.911  47.350 110.039  1.00  0.00     0.157 C 
HETATM    6  C14 UNL     1       7.493  47.172 111.465  1.00  0.00     0.178 C 
HETATM    7  C15 UNL     1       6.468  48.284 111.748  1.00  0.00     0.180 C 
HETATM    8  C16 UNL     1       7.219  49.594 111.642  1.00  0.00     0.183 C 
HETATM    9  O5  UNL     1       6.468  50.615 111.179  1.00  0.00    -0.365 OA
ENDROOT
BRANCH   1  10
HETATM   10  S1  UNL     1       7.630  52.895 111.929  1.00  0.00    -0.136 SA
BRANCH  10  11
HETATM   11  C3  UNL     1       8.314  54.385 111.195  1.00  0.00     0.096 C 
BRANCH  11  12
HETATM   12  C2  UNL     1       9.821  54.194 111.064  1.00  0.00     0.132 C 
BRANCH  12  13
HETATM   13  N1  UNL     1      10.245  53.928 109.715  1.00  0.00    -0.367 N 
ATOM     14  H1  UNL     1       9.746  53.213 109.186  1.00  0.00     0.161 HD
BRANCH  13  15
HETATM   15  C1  UNL     1      11.312  54.601 109.081  1.00  0.00     0.348 C 
HETATM   16  O1  UNL     1      12.337  53.993 108.757  1.00  0.00    -0.284 OA
ENDBRANCH  13  15
ENDBRANCH  12  13
ENDBRANCH  11  12
ENDBRANCH  10  11
ENDBRANCH   1  10
BRANCH   7  17
HETATM   17  O4  UNL     1       5.923  48.082 113.005  1.00  0.00    -0.390 OA
ATOM     18  H4  UNL     1       6.238  48.762 113.590  1.00  0.00     0.210 HD
ENDBRANCH   7  17
BRANCH   5  19
HETATM   19  C8  UNL     1       8.981  46.355 109.696  1.00  0.00     0.017 C 
HETATM   20  C9  UNL     1       8.929  45.972 108.223  1.00  0.00     0.007 C 
HETATM   21  C10 UNL     1      10.159  45.194 107.899  1.00  0.00     0.000 C 
HETATM   22  C11 UNL     1      10.331  43.976 108.779  1.00  0.00     0.000 C 
HETATM   23  C12 UNL     1      10.093  44.256 110.222  1.00  0.00     0.000 C 
HETATM   24  C13 UNL     1       8.834  45.083 110.484  1.00  0.00     0.007 C 
ENDBRANCH   5  19
BRANCH   6  25
HETATM   25  O3  UNL     1       8.534  47.224 112.360  1.00  0.00    -0.390 OA
ATOM     26  H3  UNL     1       8.286  47.544 113.220  1.00  0.00     0.210 HD
ENDBRANCH   6  25
TORSDOF 8
ENDMDL
MODEL 5
REMARK VINA RESULT: -7.369771758      3.087      6.655
REMARK  8 active torsions:
REMARK  status: ('A' for Active; 'I' for Inactive)
REMARK    1  A    between atoms: C1_2  and  N1_3 
REMARK    2  A    between atoms: N1_3  and  C2_5 
REMARK    3  A    between atoms: C2_5  and  C3_6 
REMARK    4  A    between atoms: C3_6  and  S1_7 
REMARK    5  A    between atoms: S1_7  and  C4_8 
REMARK    6  A    between atoms: C7_12  and  C8_13 
REMARK    7  A    between atoms: C14_19  and  O3_20 
REMARK    8  A    between atoms: C15_22  and  O4_23 
ROOT
HETATM    1  C4  UNL     1       7.953  53.000 110.752  1.00  0.00     0.186 C 
HETATM    2  C5  UNL     1       8.986  52.092 110.204  1.00  0.00     0.077 C 
HETATM    3  C6  UNL     1       8.554  50.707 110.598  1.00  0.00     0.157 C 
HETATM    4  O2  UNL     1       8.194  50.028 109.451  1.00  0.00    -0.375 OA
HETATM    5  C7  UNL     1       7.561  48.822 109.691  1.00  0.00     0.157 C 
HETATM    6  C14 UNL     1       7.105  48.617 111.102  1.00  0.00     0.178 C 
HETATM    7  C15 UNL     1       6.364  49.904 111.499  1.00  0.00     0.180 C 
HETATM    8  C16 UNL     1       7.399  51.010 111.501  1.00  0.00     0.183 C 
HETATM    9  O5  UNL     1       6.908  52.214 111.144  1.00  0.00    -0.365 OA
ENDROOT
BRANCH   1  10
HETATM   10  S1  UNL     1       8.562  54.086 112.078  1.00  0.00    -0.136 SA
BRANCH  10  11
HETATM   11  C3  UNL     1       9.044  55.712 111.491  1.00  0.00     0.096 C 
BRANCH  11  12
HETATM   12  C2  UNL     1      10.563  55.737 111.370  1.00  0.00     0.132 C 
BRANCH  12  13
HETATM   13  N1  UNL     1      11.025  55.837 110.012  1.00  0.00    -0.367 N 
ATOM     14  H1  UNL     1      11.189  56.768 109.627  1.00  0.00     0.161 HD
BRANCH  13  15
HETATM   15  C1  UNL     1      11.264  54.722 109.179  1.00  0.00     0.348 C 
HETATM   16  O1  UNL     1      12.416  54.369 108.913  1.00  0.00    -0.284 OA
ENDBRANCH  13  15
ENDBRANCH  12  13
ENDBRANCH  11  12
ENDBRANCH  10  11
ENDBRANCH   1  10
BRANCH   7  17
HETATM   17  O4  UNL     1       5.779  49.721 112.742  1.00  0.00    -0.390 OA
ATOM     18  H4  UNL     1       6.038  50.435 113.312  1.00  0.00     0.210 HD
ENDBRANCH   7  17
BRANCH   5  19
HETATM   19  C8  UNL     1       8.374  47.642 109.244  1.00  0.00     0.017 C 
HETATM   20  C9  UNL     1       8.160  47.353 107.764  1.00  0.00     0.007 C 
HETATM   21  C10 UNL     1       9.176  46.350 107.333  1.00  0.00     0.000 C 
HETATM   22  C11 UNL     1       9.132  45.081 108.154  1.00  0.00     0.000 C 
HETATM   23  C12 UNL     1       9.039  45.332 109.619  1.00  0.00     0.000 C 
HETATM   24  C13 UNL     1       8.002  46.392 109.991  1.00  0.00     0.007 C 
ENDBRANCH   5  19
BRANCH   6  25
HETATM   25  O3  UNL     1       8.124  48.345 111.982  1.00  0.00    -0.390 OA
ATOM     26  H3  UNL     1       8.283  47.417 112.112  1.00  0.00     0.210 HD
ENDBRANCH   6  25
TORSDOF 8
ENDMDL
