MODEL 1
REMARK VINA RESULT: -6.536305881      0.000      0.000
REMARK  9 active torsions:
REMARK  status: ('A' for Active; 'I' for Inactive)
REMARK    1  A    between atoms: C2_2  and  N1_26 
REMARK    2  A    between atoms: C3_3  and  C4_4 
REMARK    3  A    between atoms: C4_4  and  C5_6 
REMARK    4  A    between atoms: C5_6  and  C6_7 
REMARK    5  A    between atoms: C8_9  and  O2_10 
REMARK    6  A    between atoms: C11_14  and  O3_16 
REMARK    7  A    between atoms: C13_18  and  C14_19 
REMARK    8  A    between atoms: C14_19  and  C15_21 
REMARK    9  A    between atoms: C15_21  and  O5_24 
ROOT
HETATM    1  C6  UNL     1      12.783  45.366 105.081  1.00  0.00     0.019 C 
HETATM    2  C7  UNL     1      13.461  44.699 106.165  1.00  0.00     0.023 C 
HETATM    3  C8  UNL     1      12.130  44.269 104.214  1.00  0.00     0.131 C 
HETATM    4  C9  UNL     1      12.042  44.597 102.776  1.00  0.00     0.036 C 
HETATM    5  C10 UNL     1      13.340  44.923 102.108  1.00  0.00     0.045 C 
HETATM    6  C11 UNL     1      14.268  45.730 103.033  1.00  0.00     0.082 C 
HETATM    7  C12 UNL     1      15.438  44.908 103.293  1.00  0.00     0.051 C 
HETATM    8  C13 UNL     1      13.468  46.308 104.159  1.00  0.00     0.014 C 
ENDROOT
BRANCH   1   9
HETATM    9  C5  UNL     1      11.593  46.180 105.629  1.00  0.00     0.099 C 
BRANCH   9  10
HETATM   10  C4  UNL     1      10.419  45.355 105.976  1.00  0.00     0.152 C 
HETATM   11  O1  UNL     1       9.530  45.034 105.159  1.00  0.00    -0.293 OA
BRANCH  10  12
HETATM   12  C3  UNL     1      10.303  44.906 107.336  1.00  0.00     0.074 C 
HETATM   13  C2  UNL     1       9.476  45.428 108.194  1.00  0.00     0.006 C 
HETATM   14  C1  UNL     1       8.556  46.535 107.887  1.00  0.00     0.068 C 
BRANCH  13  15
HETATM   15  N1  UNL     1       9.418  44.946 109.562  1.00  0.00    -0.393 N 
HETATM   16  C18 UNL     1      10.292  43.864 109.942  1.00  0.00     0.148 C 
HETATM   17  C19 UNL     1       8.516  45.514 110.509  1.00  0.00     0.148 C 
ENDBRANCH  13  15
ENDBRANCH  10  12
ENDBRANCH   9  10
ENDBRANCH   1   9
BRANCH   3  18
HETATM   18  O2  UNL     1      12.803  43.060 104.343  1.00  0.00    -0.394 OA
ATOM     19  H2  UNL     1      12.262  42.334 104.055  1.00  0.00     0.210 HD
ENDBRANCH   3  18
BRANCH   8  20
HETATM   20  C14 UNL     1      13.908  47.617 104.679  1.00  0.00     0.189 C 
HETATM   21  O4  UNL     1      13.145  48.582 104.374  1.00  0.00    -0.290 OA
BRANCH  20  22
HETATM   22  C15 UNL     1      14.983  48.135 105.457  1.00  0.00     0.115 C 
HETATM   23  C16 UNL     1      16.185  47.409 105.856  1.00  0.00     0.054 C 
HETATM   24  C17 UNL     1      15.515  49.426 104.766  1.00  0.00     0.054 C 
BRANCH  22  25
HETATM   25  O5  UNL     1      14.486  48.676 106.685  1.00  0.00    -0.383 OA
ATOM     26  H5  UNL     1      15.162  49.186 107.115  1.00  0.00     0.211 HD
ENDBRANCH  22  25
ENDBRANCH  20  22
ENDBRANCH   8  20
BRANCH   6  27
HETATM   27  O3  UNL     1      14.681  46.869 102.287  1.00  0.00    -0.386 OA
ATOM     28  H3  UNL     1      14.632  47.609 102.882  1.00  0.00     0.211 HD
ENDBRANCH   6  27
TORSDOF 9
ENDMDL
MODEL 2
REMARK VINA RESULT: -6.472389856      1.457      3.845
REMARK  9 active torsions:
REMARK  status: ('A' for Active; 'I' for Inactive)
REMARK    1  A    between atoms: C2_2  and  N1_26 
REMARK    2  A    between atoms: C3_3  and  C4_4 
REMARK    3  A    between atoms: C4_4  and  C5_6 
REMARK    4  A    between atoms: C5_6  and  C6_7 
REMARK    5  A    between atoms: C8_9  and  O2_10 
REMARK    6  A    between atoms: C11_14  and  O3_16 
REMARK    7  A    between atoms: C13_18  and  C14_19 
REMARK    8  A    between atoms: C14_19  and  C15_21 
REMARK    9  A    between atoms: C15_21  and  O5_24 
ROOT
HETATM    1  C6  UNL     1      13.794  46.286 105.650  1.00  0.00     0.019 C 
HETATM    2  C7  UNL     1      12.532  46.734 105.114  1.00  0.00     0.023 C 
HETATM    3  C8  UNL     1      14.320  47.411 106.567  1.00  0.00     0.131 C 
HETATM    4  C9  UNL     1      15.792  47.521 106.618  1.00  0.00     0.036 C 
HETATM    5  C10 UNL     1      16.470  47.722 105.300  1.00  0.00     0.045 C 
HETATM    6  C11 UNL     1      15.791  46.912 104.182  1.00  0.00     0.082 C 
HETATM    7  C12 UNL     1      15.246  47.866 103.230  1.00  0.00     0.051 C 
HETATM    8  C13 UNL     1      14.926  45.852 104.791  1.00  0.00     0.014 C 
ENDROOT
BRANCH   1   9
HETATM    9  C5  UNL     1      13.567  45.092 106.599  1.00  0.00     0.099 C 
BRANCH   9  10
HETATM   10  C4  UNL     1      12.176  44.597 106.607  1.00  0.00     0.152 C 
HETATM   11  O1  UNL     1      11.576  44.196 105.587  1.00  0.00    -0.293 OA
BRANCH  10  12
HETATM   12  C3  UNL     1      11.484  44.586 107.866  1.00  0.00     0.074 C 
HETATM   13  C2  UNL     1      10.242  44.952 108.003  1.00  0.00     0.006 C 
HETATM   14  C1  UNL     1       9.391  45.417 106.897  1.00  0.00     0.068 C 
BRANCH  13  15
HETATM   15  N1  UNL     1       9.602  44.939 109.305  1.00  0.00    -0.393 N 
HETATM   16  C18 UNL     1       8.535  45.876 109.551  1.00  0.00     0.148 C 
HETATM   17  C19 UNL     1      10.018  44.033 110.325  1.00  0.00     0.148 C 
ENDBRANCH  13  15
ENDBRANCH  10  12
ENDBRANCH   9  10
ENDBRANCH   1   9
BRANCH   3  18
HETATM   18  O2  UNL     1      13.805  48.646 106.192  1.00  0.00    -0.394 OA
ATOM     19  H2  UNL     1      14.497  49.237 105.919  1.00  0.00     0.210 HD
ENDBRANCH   3  18
BRANCH   8  20
HETATM   20  C14 UNL     1      14.803  44.587 104.041  1.00  0.00     0.189 C 
HETATM   21  O4  UNL     1      15.665  43.711 104.353  1.00  0.00    -0.290 OA
BRANCH  20  22
HETATM   22  C15 UNL     1      13.966  44.039 103.028  1.00  0.00     0.115 C 
HETATM   23  C16 UNL     1      13.120  44.794 102.108  1.00  0.00     0.054 C 
HETATM   24  C17 UNL     1      14.834  43.130 102.108  1.00  0.00     0.054 C 
BRANCH  22  25
HETATM   25  O5  UNL     1      13.076  43.072 103.595  1.00  0.00    -0.383 OA
ATOM     26  H5  UNL     1      12.355  42.903 103.000  1.00  0.00     0.211 HD
ENDBRANCH  22  25
ENDBRANCH  20  22
ENDBRANCH   8  20
BRANCH   6  27
HETATM   27  O3  UNL     1      16.826  46.180 103.536  1.00  0.00    -0.386 OA
ATOM     28  H3  UNL     1      16.393  45.568 102.951  1.00  0.00     0.211 HD
ENDBRANCH   6  27
TORSDOF 9
ENDMDL
MODEL 3
REMARK VINA RESULT: -6.452356813      1.745      3.820
REMARK  9 active torsions:
REMARK  status: ('A' for Active; 'I' for Inactive)
REMARK    1  A    between atoms: C2_2  and  N1_26 
REMARK    2  A    between atoms: C3_3  and  C4_4 
REMARK    3  A    between atoms: C4_4  and  C5_6 
REMARK    4  A    between atoms: C5_6  and  C6_7 
REMARK    5  A    between atoms: C8_9  and  O2_10 
REMARK    6  A    between atoms: C11_14  and  O3_16 
REMARK    7  A    between atoms: C13_18  and  C14_19 
REMARK    8  A    between atoms: C14_19  and  C15_21 
REMARK    9  A    between atoms: C15_21  and  O5_24 
ROOT
HETATM    1  C6  UNL     1      14.040  46.179 105.111  1.00  0.00     0.019 C 
HETATM    2  C7  UNL     1      13.058  45.638 104.204  1.00  0.00     0.023 C 
HETATM    3  C8  UNL     1      13.521  47.560 105.567  1.00  0.00     0.131 C 
HETATM    4  C9  UNL     1      14.582  48.547 105.854  1.00  0.00     0.036 C 
HETATM    5  C10 UNL     1      15.530  48.821 104.731  1.00  0.00     0.045 C 
HETATM    6  C11 UNL     1      15.855  47.543 103.937  1.00  0.00     0.082 C 
HETATM    7  C12 UNL     1      15.341  47.731 102.590  1.00  0.00     0.051 C 
HETATM    8  C13 UNL     1      15.471  46.343 104.747  1.00  0.00     0.014 C 
ENDROOT
BRANCH   1   9
HETATM    9  C5  UNL     1      14.079  45.339 106.403  1.00  0.00     0.099 C 
BRANCH   9  10
HETATM   10  C4  UNL     1      13.040  44.291 106.461  1.00  0.00     0.152 C 
HETATM   11  O1  UNL     1      12.916  43.388 105.608  1.00  0.00    -0.293 OA
BRANCH  10  12
HETATM   12  C3  UNL     1      12.122  44.328 107.567  1.00  0.00     0.074 C 
HETATM   13  C2  UNL     1      10.885  44.716 107.457  1.00  0.00     0.006 C 
HETATM   14  C1  UNL     1      10.267  45.161 106.198  1.00  0.00     0.068 C 
BRANCH  13  15
HETATM   15  N1  UNL     1      10.010  44.751 108.614  1.00  0.00    -0.393 N 
HETATM   16  C18 UNL     1       8.845  45.599 108.564  1.00  0.00     0.148 C 
HETATM   17  C19 UNL     1      10.294  43.979 109.779  1.00  0.00     0.148 C 
ENDBRANCH  13  15
ENDBRANCH  10  12
ENDBRANCH   9  10
ENDBRANCH   1   9
BRANCH   3  18
HETATM   18  O2  UNL     1      12.661  48.109 104.623  1.00  0.00    -0.394 OA
ATOM     19  H2  UNL     1      13.139  48.415 103.861  1.00  0.00     0.210 HD
ENDBRANCH   3  18
BRANCH   8  20
HETATM   20  C14 UNL     1      16.303  45.137 104.577  1.00  0.00     0.189 C 
HETATM   21  O4  UNL     1      17.292  45.072 105.366  1.00  0.00    -0.290 OA
BRANCH  20  22
HETATM   22  C15 UNL     1      16.321  43.976 103.752  1.00  0.00     0.115 C 
HETATM   23  C16 UNL     1      15.919  43.909 102.350  1.00  0.00     0.054 C 
HETATM   24  C17 UNL     1      17.757  43.373 103.779  1.00  0.00     0.054 C 
BRANCH  22  25
HETATM   25  O5  UNL     1      15.578  42.921 104.371  1.00  0.00    -0.383 OA
ATOM     26  H5  UNL     1      16.096  42.126 104.394  1.00  0.00     0.211 HD
ENDBRANCH  22  25
ENDBRANCH  20  22
ENDBRANCH   8  20
BRANCH   6  27
HETATM   27  O3  UNL     1      17.274  47.468 103.866  1.00  0.00    -0.386 OA
ATOM     28  H3  UNL     1      17.491  46.543 103.860  1.00  0.00     0.211 HD
ENDBRANCH   6  27
TORSDOF 9
ENDMDL
MODEL 4
REMARK VINA RESULT: -6.312831983      1.415      1.932
REMARK  9 active torsions:
REMARK  status: ('A' for Active; 'I' for Inactive)
REMARK    1  A    between atoms: C2_2  and  N1_26 
REMARK    2  A    between atoms: C3_3  and  C4_4 
REMARK    3  A    between atoms: C4_4  and  C5_6 
REMARK    4  A    between atoms: C5_6  and  C6_7 
REMARK    5  A    between atoms: C8_9  and  O2_10 
REMARK    6  A    between atoms: C11_14  and  O3_16 
REMARK    7  A    between atoms: C13_18  and  C14_19 
REMARK    8  A    between atoms: C14_19  and  C15_21 
REMARK    9  A    between atoms: C15_21  and  O5_24 
ROOT
HETATM    1  C6  UNL     1      13.499  44.564 104.634  1.00  0.00     0.019 C 
HETATM    2  C7  UNL     1      13.453  43.477 105.580  1.00  0.00     0.023 C 
HETATM    3  C8  UNL     1      13.108  43.983 103.259  1.00  0.00     0.131 C 
HETATM    4  C9  UNL     1      13.759  44.643 102.108  1.00  0.00     0.036 C 
HETATM    5  C10 UNL     1      15.254  44.657 102.133  1.00  0.00     0.045 C 
HETATM    6  C11 UNL     1      15.797  44.868 103.558  1.00  0.00     0.082 C 
HETATM    7  C12 UNL     1      16.522  43.662 103.924  1.00  0.00     0.051 C 
HETATM    8  C13 UNL     1      14.706  45.406 104.431  1.00  0.00     0.014 C 
ENDROOT
BRANCH   1   9
HETATM    9  C5  UNL     1      12.385  45.582 104.951  1.00  0.00     0.099 C 
BRANCH   9  10
HETATM   10  C4  UNL     1      11.096  44.957 105.309  1.00  0.00     0.152 C 
HETATM   11  O1  UNL     1      10.235  44.612 104.472  1.00  0.00    -0.293 OA
BRANCH  10  12
HETATM   12  C3  UNL     1      10.827  44.745 106.705  1.00  0.00     0.074 C 
HETATM   13  C2  UNL     1       9.886  45.365 107.355  1.00  0.00     0.006 C 
HETATM   14  C1  UNL     1       8.979  46.355 106.752  1.00  0.00     0.068 C 
BRANCH  13  15
HETATM   15  N1  UNL     1       9.675  45.124 108.771  1.00  0.00    -0.393 N 
HETATM   16  C18 UNL     1       8.629  45.856 109.440  1.00  0.00     0.148 C 
HETATM   17  C19 UNL     1      10.485  44.197 109.491  1.00  0.00     0.148 C 
ENDBRANCH  13  15
ENDBRANCH  10  12
ENDBRANCH   9  10
ENDBRANCH   1   9
BRANCH   3  18
HETATM   18  O2  UNL     1      13.386  42.623 103.192  1.00  0.00    -0.394 OA
ATOM     19  H2  UNL     1      12.644  42.106 103.484  1.00  0.00     0.210 HD
ENDBRANCH   3  18
BRANCH   8  20
HETATM   20  C14 UNL     1      15.115  46.332 105.505  1.00  0.00     0.189 C 
HETATM   21  O4  UNL     1      15.691  45.772 106.484  1.00  0.00    -0.290 OA
BRANCH  20  22
HETATM   22  C15 UNL     1      15.049  47.729 105.773  1.00  0.00     0.115 C 
HETATM   23  C16 UNL     1      14.248  48.709 105.046  1.00  0.00     0.054 C 
HETATM   24  C17 UNL     1      14.651  47.927 107.267  1.00  0.00     0.054 C 
BRANCH  22  25
HETATM   25  O5  UNL     1      16.364  48.293 105.771  1.00  0.00    -0.383 OA
ATOM     26  H5  UNL     1      16.915  47.834 105.148  1.00  0.00     0.211 HD
ENDBRANCH  22  25
ENDBRANCH  20  22
ENDBRANCH   8  20
BRANCH   6  27
HETATM   27  O3  UNL     1      16.729  45.940 103.474  1.00  0.00    -0.386 OA
ATOM     28  H3  UNL     1      16.280  46.648 103.027  1.00  0.00     0.211 HD
ENDBRANCH   6  27
TORSDOF 9
ENDMDL
MODEL 5
REMARK VINA RESULT: -6.271825515      1.756      3.803
REMARK  9 active torsions:
REMARK  status: ('A' for Active; 'I' for Inactive)
REMARK    1  A    between atoms: C2_2  and  N1_26 
REMARK    2  A    between atoms: C3_3  and  C4_4 
REMARK    3  A    between atoms: C4_4  and  C5_6 
REMARK    4  A    between atoms: C5_6  and  C6_7 
REMARK    5  A    between atoms: C8_9  and  O2_10 
REMARK    6  A    between atoms: C11_14  and  O3_16 
REMARK    7  A    between atoms: C13_18  and  C14_19 
REMARK    8  A    between atoms: C14_19  and  C15_21 
REMARK    9  A    between atoms: C15_21  and  O5_24 
ROOT
HETATM    1  C6  UNL     1      13.530  46.045 105.663  1.00  0.00     0.019 C 
HETATM    2  C7  UNL     1      12.355  46.690 105.129  1.00  0.00     0.023 C 
HETATM    3  C8  UNL     1      14.211  47.058 106.608  1.00  0.00     0.131 C 
HETATM    4  C9  UNL     1      15.683  46.942 106.670  1.00  0.00     0.036 C 
HETATM    5  C10 UNL     1      16.396  47.065 105.361  1.00  0.00     0.045 C 
HETATM    6  C11 UNL     1      15.612  46.391 104.221  1.00  0.00     0.082 C 
HETATM    7  C12 UNL     1      15.227  47.435 103.287  1.00  0.00     0.051 C 
HETATM    8  C13 UNL     1      14.591  45.462 104.802  1.00  0.00     0.014 C 
ENDROOT
BRANCH   1   9
HETATM    9  C5  UNL     1      13.116  44.880 106.584  1.00  0.00     0.099 C 
BRANCH   9  10
HETATM   10  C4  UNL     1      11.671  44.578 106.546  1.00  0.00     0.152 C 
HETATM   11  O1  UNL     1      11.056  44.255 105.508  1.00  0.00    -0.293 OA
BRANCH  10  12
HETATM   12  C3  UNL     1      10.942  44.671 107.781  1.00  0.00     0.074 C 
HETATM   13  C2  UNL     1       9.797  45.278 107.892  1.00  0.00     0.006 C 
HETATM   14  C1  UNL     1       9.102  45.942 106.778  1.00  0.00     0.068 C 
BRANCH  13  15
HETATM   15  N1  UNL     1       9.116  45.356 109.172  1.00  0.00    -0.393 N 
HETATM   16  C18 UNL     1       8.277  46.500 109.430  1.00  0.00     0.148 C 
HETATM   17  C19 UNL     1       9.276  44.338 110.158  1.00  0.00     0.148 C 
ENDBRANCH  13  15
ENDBRANCH  10  12
ENDBRANCH   9  10
ENDBRANCH   1   9
BRANCH   3  18
HETATM   18  O2  UNL     1      13.893  48.364 106.256  1.00  0.00    -0.394 OA
ATOM     19  H2  UNL     1      12.976  48.443 106.021  1.00  0.00     0.210 HD
ENDBRANCH   3  18
BRANCH   8  20
HETATM   20  C14 UNL     1      14.285  44.246 104.024  1.00  0.00     0.189 C 
HETATM   21  O4  UNL     1      13.463  44.426 103.077  1.00  0.00    -0.290 OA
BRANCH  20  22
HETATM   22  C15 UNL     1      14.660  42.872 104.026  1.00  0.00     0.115 C 
HETATM   23  C16 UNL     1      14.235  41.864 104.994  1.00  0.00     0.054 C 
HETATM   24  C17 UNL     1      14.302  42.260 102.639  1.00  0.00     0.054 C 
BRANCH  22  25
HETATM   25  O5  UNL     1      16.086  42.751 104.011  1.00  0.00    -0.383 OA
ATOM     26  H5  UNL     1      16.339  41.913 103.642  1.00  0.00     0.211 HD
ENDBRANCH  22  25
ENDBRANCH  20  22
ENDBRANCH   8  20
BRANCH   6  27
HETATM   27  O3  UNL     1      16.530  45.523 103.566  1.00  0.00    -0.386 OA
ATOM     28  H3  UNL     1      16.445  45.699 102.636  1.00  0.00     0.211 HD
ENDBRANCH   6  27
TORSDOF 9
ENDMDL
