MODEL 1
REMARK VINA RESULT: -8.013577900      0.000      0.000
REMARK  9 active torsions:
REMARK  status: ('A' for Active; 'I' for Inactive)
REMARK    1  A    between atoms: C2_2  and  C3_3 
REMARK    2  A    between atoms: C3_3  and  N1_4 
REMARK    3  A    between atoms: C8_9  and  O1_10 
REMARK    4  A    between atoms: O1_10  and  C9_11 
REMARK    5  A    between atoms: C12_15  and  O3_16 
REMARK    6  A    between atoms: C13_18  and  O4_19 
REMARK    7  A    between atoms: C15_22  and  C16_23 
REMARK    8  A    between atoms: C16_23  and  C17_24 
REMARK    9  A    between atoms: C17_24  and  O5_25 
ROOT
HETATM    1  N1  UNL     1      12.951  45.948 105.957  1.00  0.00     0.103 N 
HETATM    2  C4  UNL     1      13.319  44.577 105.884  1.00  0.00     0.224 C 
HETATM    3  C5  UNL     1      12.827  44.110 104.562  1.00  0.00     0.038 C 
HETATM    4  C6  UNL     1      11.975  45.213 104.010  1.00  0.00     0.040 C 
HETATM    5  C7  UNL     1      11.791  46.200 105.140  1.00  0.00     0.252 C 
HETATM    6  C8  UNL     1      10.480  45.946 105.800  1.00  0.00     0.158 C 
HETATM    7  C14 UNL     1      10.435  44.692 106.633  1.00  0.00     0.039 C 
HETATM    8  C15 UNL     1      11.565  44.548 107.618  1.00  0.00    -0.008 C 
HETATM    9  C18 UNL     1      12.757  43.836 107.077  1.00  0.00     0.040 C 
ENDROOT
BRANCH   6  10
HETATM   10  O1  UNL     1       9.982  46.955 106.573  1.00  0.00    -0.351 OA
BRANCH  10  11
HETATM   11  C9  UNL     1       9.086  47.803 105.985  1.00  0.00     0.292 C 
HETATM   12  O2  UNL     1       8.926  48.911 106.815  1.00  0.00    -0.351 OA
HETATM   13  C10 UNL     1       8.027  48.478 107.785  1.00  0.00     0.152 C 
HETATM   14  C11 UNL     1       7.453  49.587 108.610  1.00  0.00     0.042 C 
HETATM   15  C12 UNL     1       6.901  47.960 106.875  1.00  0.00     0.180 C 
HETATM   16  C13 UNL     1       7.737  47.111 105.927  1.00  0.00     0.204 C 
BRANCH  15  17
HETATM   17  O3  UNL     1       6.385  49.049 106.173  1.00  0.00    -0.390 OA
ATOM     18  H3  UNL     1       7.088  49.676 106.051  1.00  0.00     0.210 HD
ENDBRANCH  15  17
BRANCH  16  19
HETATM   19  O4  UNL     1       7.194  47.054 104.666  1.00  0.00    -0.388 OA
ATOM     20  H4  UNL     1       6.465  46.451 104.587  1.00  0.00     0.210 HD
ENDBRANCH  16  19
ENDBRANCH  10  11
ENDBRANCH   6  10
BRANCH   1  21
HETATM   21  C3  UNL     1      14.044  46.834 105.598  1.00  0.00     0.300 C 
BRANCH  21  22
HETATM   22  C2  UNL     1      13.634  48.229 105.444  1.00  0.00    -0.007 C 
HETATM   23  C1  UNL     1      14.182  49.001 104.516  1.00  0.00     0.008 C 
ENDBRANCH  21  22
ENDBRANCH   1  21
BRANCH   8  24
HETATM   24  C16 UNL     1      11.035  43.940 108.893  1.00  0.00     0.031 C 
BRANCH  24  25
HETATM   25  C17 UNL     1       9.831  44.668 109.394  1.00  0.00     0.164 C 
BRANCH  25  26
HETATM   26  O5  UNL     1       9.900  44.934 110.763  1.00  0.00    -0.401 OA
ATOM     27  H5  UNL     1       9.072  44.783 111.204  1.00  0.00     0.209 HD
ENDBRANCH  25  26
ENDBRANCH  24  25
ENDBRANCH   8  24
TORSDOF 9
ENDMDL
MODEL 2
REMARK VINA RESULT: -7.372191152      2.335      3.804
REMARK  9 active torsions:
REMARK  status: ('A' for Active; 'I' for Inactive)
REMARK    1  A    between atoms: C2_2  and  C3_3 
REMARK    2  A    between atoms: C3_3  and  N1_4 
REMARK    3  A    between atoms: C8_9  and  O1_10 
REMARK    4  A    between atoms: O1_10  and  C9_11 
REMARK    5  A    between atoms: C12_15  and  O3_16 
REMARK    6  A    between atoms: C13_18  and  O4_19 
REMARK    7  A    between atoms: C15_22  and  C16_23 
REMARK    8  A    between atoms: C16_23  and  C17_24 
REMARK    9  A    between atoms: C17_24  and  O5_25 
ROOT
HETATM    1  N1  UNL     1      10.044  46.850 106.374  1.00  0.00     0.103 N 
HETATM    2  C4  UNL     1       9.710  45.495 106.104  1.00  0.00     0.224 C 
HETATM    3  C5  UNL     1       8.523  45.556 105.211  1.00  0.00     0.038 C 
HETATM    4  C6  UNL     1       8.081  46.988 105.187  1.00  0.00     0.040 C 
HETATM    5  C7  UNL     1       8.875  47.686 106.267  1.00  0.00     0.252 C 
HETATM    6  C8  UNL     1       8.045  47.780 107.499  1.00  0.00     0.158 C 
HETATM    7  C14 UNL     1       7.851  46.472 108.220  1.00  0.00     0.039 C 
HETATM    8  C15 UNL     1       9.118  45.706 108.489  1.00  0.00    -0.008 C 
HETATM    9  C18 UNL     1       9.496  44.755 107.405  1.00  0.00     0.040 C 
ENDROOT
BRANCH   6  10
HETATM   10  O1  UNL     1       8.440  48.694 108.432  1.00  0.00    -0.351 OA
BRANCH  10  11
HETATM   11  C9  UNL     1       7.497  49.120 109.324  1.00  0.00     0.292 C 
HETATM   12  O2  UNL     1       7.591  50.507 109.429  1.00  0.00    -0.351 OA
HETATM   13  C10 UNL     1       8.652  50.707 110.307  1.00  0.00     0.152 C 
HETATM   14  C11 UNL     1       8.746  52.108 110.826  1.00  0.00     0.042 C 
HETATM   15  C12 UNL     1       8.185  49.822 111.474  1.00  0.00     0.180 C 
HETATM   16  C13 UNL     1       7.842  48.562 110.692  1.00  0.00     0.204 C 
BRANCH  15  17
HETATM   17  O3  UNL     1       7.010  50.372 111.984  1.00  0.00    -0.390 OA
ATOM     18  H3  UNL     1       7.214  50.768 112.823  1.00  0.00     0.210 HD
ENDBRANCH  15  17
BRANCH  16  19
HETATM   19  O4  UNL     1       6.822  47.849 111.276  1.00  0.00    -0.388 OA
ATOM     20  H4  UNL     1       7.076  47.390 112.067  1.00  0.00     0.210 HD
ENDBRANCH  16  19
ENDBRANCH  10  11
ENDBRANCH   6  10
BRANCH   1  21
HETATM   21  C3  UNL     1      11.113  47.337 105.520  1.00  0.00     0.300 C 
BRANCH  21  22
HETATM   22  C2  UNL     1      12.220  46.393 105.379  1.00  0.00    -0.007 C 
HETATM   23  C1  UNL     1      13.243  46.413 106.222  1.00  0.00     0.008 C 
ENDBRANCH  21  22
ENDBRANCH   1  21
BRANCH   8  24
HETATM   24  C16 UNL     1       9.025  45.056 109.847  1.00  0.00     0.031 C 
BRANCH  24  25
HETATM   25  C17 UNL     1      10.353  44.559 110.315  1.00  0.00     0.164 C 
BRANCH  25  26
HETATM   26  O5  UNL     1      10.403  43.165 110.395  1.00  0.00    -0.401 OA
ATOM     27  H5  UNL     1       9.865  42.822 111.097  1.00  0.00     0.209 HD
ENDBRANCH  25  26
ENDBRANCH  24  25
ENDBRANCH   8  24
TORSDOF 9
ENDMDL
MODEL 3
REMARK VINA RESULT: -7.324889357      2.179      3.179
REMARK  9 active torsions:
REMARK  status: ('A' for Active; 'I' for Inactive)
REMARK    1  A    between atoms: C2_2  and  C3_3 
REMARK    2  A    between atoms: C3_3  and  N1_4 
REMARK    3  A    between atoms: C8_9  and  O1_10 
REMARK    4  A    between atoms: O1_10  and  C9_11 
REMARK    5  A    between atoms: C12_15  and  O3_16 
REMARK    6  A    between atoms: C13_18  and  O4_19 
REMARK    7  A    between atoms: C15_22  and  C16_23 
REMARK    8  A    between atoms: C16_23  and  C17_24 
REMARK    9  A    between atoms: C17_24  and  O5_25 
ROOT
HETATM    1  N1  UNL     1      10.586  46.695 106.147  1.00  0.00     0.103 N 
HETATM    2  C4  UNL     1      10.746  45.408 105.565  1.00  0.00     0.224 C 
HETATM    3  C5  UNL     1       9.484  45.156 104.822  1.00  0.00     0.038 C 
HETATM    4  C6  UNL     1       8.536  46.252 105.206  1.00  0.00     0.040 C 
HETATM    5  C7  UNL     1       9.189  46.979 106.358  1.00  0.00     0.252 C 
HETATM    6  C8  UNL     1       8.623  46.472 107.639  1.00  0.00     0.158 C 
HETATM    7  C14 UNL     1       9.072  45.084 108.011  1.00  0.00     0.039 C 
HETATM    8  C15 UNL     1      10.562  44.869 107.965  1.00  0.00    -0.008 C 
HETATM    9  C18 UNL     1      11.068  44.399 106.644  1.00  0.00     0.040 C 
ENDROOT
BRANCH   6  10
HETATM   10  O1  UNL     1       8.806  47.258 108.740  1.00  0.00    -0.351 OA
BRANCH  10  11
HETATM   11  C9  UNL     1       7.684  47.674 109.399  1.00  0.00     0.292 C 
HETATM   12  O2  UNL     1       7.574  49.055 109.244  1.00  0.00    -0.351 OA
HETATM   13  C10 UNL     1       8.446  49.571 110.200  1.00  0.00     0.152 C 
HETATM   14  C11 UNL     1       8.268  51.037 110.444  1.00  0.00     0.042 C 
HETATM   15  C12 UNL     1       7.920  48.837 111.444  1.00  0.00     0.180 C 
HETATM   16  C13 UNL     1       7.878  47.422 110.882  1.00  0.00     0.204 C 
BRANCH  15  17
HETATM   17  O3  UNL     1       6.617  49.271 111.677  1.00  0.00    -0.390 OA
ATOM     18  H3  UNL     1       6.231  49.497 110.840  1.00  0.00     0.210 HD
ENDBRANCH  15  17
BRANCH  16  19
HETATM   19  O4  UNL     1       6.882  46.667 111.454  1.00  0.00    -0.388 OA
ATOM     20  H4  UNL     1       6.005  46.977 111.263  1.00  0.00     0.210 HD
ENDBRANCH  16  19
ENDBRANCH  10  11
ENDBRANCH   6  10
BRANCH   1  21
HETATM   21  C3  UNL     1      11.218  47.740 105.361  1.00  0.00     0.300 C 
BRANCH  21  22
HETATM   22  C2  UNL     1      12.668  47.589 105.251  1.00  0.00    -0.007 C 
HETATM   23  C1  UNL     1      13.453  48.648 105.115  1.00  0.00     0.008 C 
ENDBRANCH  21  22
ENDBRANCH   1  21
BRANCH   8  24
HETATM   24  C16 UNL     1      10.969  43.977 109.112  1.00  0.00     0.031 C 
BRANCH  24  25
HETATM   25  C17 UNL     1      10.047  44.119 110.277  1.00  0.00     0.164 C 
BRANCH  25  26
HETATM   26  O5  UNL     1      10.426  45.153 111.135  1.00  0.00    -0.401 OA
ATOM     27  H5  UNL     1       9.683  45.554 111.571  1.00  0.00     0.209 HD
ENDBRANCH  25  26
ENDBRANCH  24  25
ENDBRANCH   8  24
TORSDOF 9
ENDMDL
MODEL 4
REMARK VINA RESULT: -6.989434438      2.693      4.285
REMARK  9 active torsions:
REMARK  status: ('A' for Active; 'I' for Inactive)
REMARK    1  A    between atoms: C2_2  and  C3_3 
REMARK    2  A    between atoms: C3_3  and  N1_4 
REMARK    3  A    between atoms: C8_9  and  O1_10 
REMARK    4  A    between atoms: O1_10  and  C9_11 
REMARK    5  A    between atoms: C12_15  and  O3_16 
REMARK    6  A    between atoms: C13_18  and  O4_19 
REMARK    7  A    between atoms: C15_22  and  C16_23 
REMARK    8  A    between atoms: C16_23  and  C17_24 
REMARK    9  A    between atoms: C17_24  and  O5_25 
ROOT
HETATM    1  N1  UNL     1       9.707  47.397 106.544  1.00  0.00     0.103 N 
HETATM    2  C4  UNL     1       9.299  46.091 106.158  1.00  0.00     0.224 C 
HETATM    3  C5  UNL     1       8.078  46.291 105.335  1.00  0.00     0.038 C 
HETATM    4  C6  UNL     1       7.701  47.735 105.474  1.00  0.00     0.040 C 
HETATM    5  C7  UNL     1       8.574  48.287 106.578  1.00  0.00     0.252 C 
HETATM    6  C8  UNL     1       7.805  48.289 107.853  1.00  0.00     0.158 C 
HETATM    7  C14 UNL     1       7.583  46.925 108.449  1.00  0.00     0.039 C 
HETATM    8  C15 UNL     1       8.826  46.083 108.578  1.00  0.00    -0.008 C 
HETATM    9  C18 UNL     1       9.110  45.233 107.389  1.00  0.00     0.040 C 
ENDROOT
BRANCH   6  10
HETATM   10  O1  UNL     1       8.283  49.088 108.851  1.00  0.00    -0.351 OA
BRANCH  10  11
HETATM   11  C9  UNL     1       7.362  49.750 109.612  1.00  0.00     0.292 C 
HETATM   12  O2  UNL     1       7.648  51.113 109.555  1.00  0.00    -0.351 OA
HETATM   13  C10 UNL     1       8.676  51.280 110.479  1.00  0.00     0.152 C 
HETATM   14  C11 UNL     1       8.941  52.711 110.829  1.00  0.00     0.042 C 
HETATM   15  C12 UNL     1       8.022  50.627 111.707  1.00  0.00     0.180 C 
HETATM   16  C13 UNL     1       7.546  49.333 111.059  1.00  0.00     0.204 C 
BRANCH  15  17
HETATM   17  O3  UNL     1       6.911  51.393 112.058  1.00  0.00    -0.390 OA
ATOM     18  H3  UNL     1       6.405  50.898 112.690  1.00  0.00     0.210 HD
ENDBRANCH  15  17
BRANCH  16  19
HETATM   19  O4  UNL     1       6.403  48.848 111.649  1.00  0.00    -0.388 OA
ATOM     20  H4  UNL     1       6.549  48.096 112.211  1.00  0.00     0.210 HD
ENDBRANCH  16  19
ENDBRANCH  10  11
ENDBRANCH   6  10
BRANCH   1  21
HETATM   21  C3  UNL     1      10.758  47.923 105.691  1.00  0.00     0.300 C 
BRANCH  21  22
HETATM   22  C2  UNL     1      11.815  46.954 105.405  1.00  0.00    -0.007 C 
HETATM   23  C1  UNL     1      13.088  47.322 105.390  1.00  0.00     0.008 C 
ENDBRANCH  21  22
ENDBRANCH   1  21
BRANCH   8  24
HETATM   24  C16 UNL     1       8.764  45.304 109.868  1.00  0.00     0.031 C 
BRANCH  24  25
HETATM   25  C17 UNL     1       8.720  46.205 111.058  1.00  0.00     0.164 C 
BRANCH  25  26
HETATM   26  O5  UNL     1       7.657  45.909 111.913  1.00  0.00    -0.401 OA
ATOM     27  H5  UNL     1       6.819  46.182 111.559  1.00  0.00     0.209 HD
ENDBRANCH  25  26
ENDBRANCH  24  25
ENDBRANCH   8  24
TORSDOF 9
ENDMDL
MODEL 5
REMARK VINA RESULT: -6.902438489      0.981      1.110
REMARK  9 active torsions:
REMARK  status: ('A' for Active; 'I' for Inactive)
REMARK    1  A    between atoms: C2_2  and  C3_3 
REMARK    2  A    between atoms: C3_3  and  N1_4 
REMARK    3  A    between atoms: C8_9  and  O1_10 
REMARK    4  A    between atoms: O1_10  and  C9_11 
REMARK    5  A    between atoms: C12_15  and  O3_16 
REMARK    6  A    between atoms: C13_18  and  O4_19 
REMARK    7  A    between atoms: C15_22  and  C16_23 
REMARK    8  A    between atoms: C16_23  and  C17_24 
REMARK    9  A    between atoms: C17_24  and  O5_25 
ROOT
HETATM    1  N1  UNL     1      11.990  46.121 106.056  1.00  0.00     0.103 N 
HETATM    2  C4  UNL     1      12.630  44.863 105.895  1.00  0.00     0.224 C 
HETATM    3  C5  UNL     1      12.026  44.270 104.674  1.00  0.00     0.038 C 
HETATM    4  C6  UNL     1      10.869  45.147 104.301  1.00  0.00     0.040 C 
HETATM    5  C7  UNL     1      10.676  46.095 105.463  1.00  0.00     0.252 C 
HETATM    6  C8  UNL     1       9.592  45.575 106.342  1.00  0.00     0.158 C 
HETATM    7  C14 UNL     1       9.971  44.361 107.147  1.00  0.00     0.039 C 
HETATM    8  C15 UNL     1      11.262  44.489 107.913  1.00  0.00    -0.008 C 
HETATM    9  C18 UNL     1      12.465  44.044 107.156  1.00  0.00     0.040 C 
ENDROOT
BRANCH   6  10
HETATM   10  O1  UNL     1       9.029  46.467 107.208  1.00  0.00    -0.351 OA
BRANCH  10  11
HETATM   11  C9  UNL     1       8.769  47.720 106.728  1.00  0.00     0.292 C 
HETATM   12  O2  UNL     1       8.938  48.630 107.770  1.00  0.00    -0.351 OA
HETATM   13  C10 UNL     1       7.746  48.549 108.484  1.00  0.00     0.152 C 
HETATM   14  C11 UNL     1       7.559  49.662 109.467  1.00  0.00     0.042 C 
HETATM   15  C12 UNL     1       6.749  48.785 107.337  1.00  0.00     0.180 C 
HETATM   16  C13 UNL     1       7.306  47.788 106.331  1.00  0.00     0.204 C 
BRANCH  15  17
HETATM   17  O3  UNL     1       6.950  50.077 106.854  1.00  0.00    -0.390 OA
ATOM     18  H3  UNL     1       6.708  50.086 105.936  1.00  0.00     0.210 HD
ENDBRANCH  15  17
BRANCH  16  19
HETATM   19  O4  UNL     1       7.099  48.189 105.033  1.00  0.00    -0.388 OA
ATOM     20  H4  UNL     1       6.963  49.124 104.936  1.00  0.00     0.210 HD
ENDBRANCH  16  19
ENDBRANCH  10  11
ENDBRANCH   6  10
BRANCH   1  21
HETATM   21  C3  UNL     1      12.780  47.217 105.523  1.00  0.00     0.300 C 
BRANCH  21  22
HETATM   22  C2  UNL     1      14.210  47.091 105.801  1.00  0.00    -0.007 C 
HETATM   23  C1  UNL     1      14.711  47.463 106.970  1.00  0.00     0.008 C 
ENDBRANCH  21  22
ENDBRANCH   1  21
BRANCH   8  24
HETATM   24  C16 UNL     1      11.113  43.809 109.251  1.00  0.00     0.031 C 
BRANCH  24  25
HETATM   25  C17 UNL     1       9.905  44.291 109.985  1.00  0.00     0.164 C 
BRANCH  25  26
HETATM   26  O5  UNL     1      10.226  45.167 111.024  1.00  0.00    -0.401 OA
ATOM     27  H5  UNL     1      10.141  46.078 110.770  1.00  0.00     0.209 HD
ENDBRANCH  25  26
ENDBRANCH  24  25
ENDBRANCH   8  24
TORSDOF 9
ENDMDL
