MODEL 1
REMARK VINA RESULT: -7.328394242      0.000      0.000
REMARK  6 active torsions:
REMARK  status: ('A' for Active; 'I' for Inactive)
REMARK       I    between atoms: C2_2  and  N1_4 
REMARK    1  A    between atoms: N1_4  and  N2_6 
REMARK    2  A    between atoms: N2_6  and  C3_8 
REMARK    3  A    between atoms: C3_8  and  C5_10 
REMARK    4  A    between atoms: N3_13  and  C7_14 
REMARK    5  A    between atoms: C8_19  and  N6_20 
REMARK    6  A    between atoms: C9_24  and  O2_25 
ROOT
HETATM    1  C5  UNL     1      11.576  -0.152   1.235  1.00  0.00     0.047 A 
HETATM    2  C6  UNL     1      12.910  -0.274   0.950  1.00  0.00     0.086 A 
HETATM    3  S1  UNL     1      12.934  -0.168  -0.755  1.00  0.00    -0.014 SA
HETATM    4  N3  UNL     1      11.294   0.023  -1.027  1.00  0.00    -0.238 N 
HETATM    5  C9  UNL     1      10.744   0.004   0.180  1.00  0.00     0.168 A 
ENDROOT
BRANCH   4   6
HETATM    6  C7  UNL     1      10.681   0.170  -2.323  1.00  0.00     0.181 A 
HETATM    7  N4  UNL     1       9.405   0.090  -2.659  1.00  0.00    -0.277 N 
HETATM    8  N5  UNL     1       9.045   0.250  -3.865  1.00  0.00    -0.278 N 
ATOM      9  H4  UNL     1       8.705  -0.102  -1.942  1.00  0.00     0.189 HD
HETATM   10  C8  UNL     1       9.983   0.500  -4.786  1.00  0.00     0.160 A 
ATOM     11  H5  UNL     1       8.061   0.188  -4.127  1.00  0.00     0.189 HD
HETATM   12  S2  UNL     1      11.406   0.494  -3.836  1.00  0.00    -0.014 SA
BRANCH  10  13
HETATM   13  N6  UNL     1       9.835   0.695  -6.077  1.00  0.00    -0.378 N 
ATOM     14  H62 UNL     1       9.105   1.199  -6.581  1.00  0.00     0.158 HD
ATOM     15  H61 UNL     1      10.429   0.378  -6.843  1.00  0.00     0.158 HD
ENDBRANCH  10  13
ENDBRANCH   4   6
BRANCH   5  16
HETATM   16  O2  UNL     1       9.450   0.135   0.262  1.00  0.00    -0.345 OA
ATOM     17  H2  UNL     1       8.894   0.491  -0.421  1.00  0.00     0.219 HD
ENDBRANCH   5  16
BRANCH   1  18
HETATM   18  C3  UNL     1      11.091  -0.190   2.645  1.00  0.00     0.037 C 
HETATM   19  C4  UNL     1      11.314  -1.357   3.507  1.00  0.00     0.070 C 
BRANCH  18  20
HETATM   20  N2  UNL     1      10.456   0.813   3.142  1.00  0.00    -0.302 N 
ATOM     21  H2  UNL     1      10.168   1.556   2.504  1.00  0.00     0.186 HD
BRANCH  20  22
HETATM   22  N1  UNL     1      10.141   0.953   4.467  1.00  0.00    -0.270 N 
HETATM   23  C2  UNL     1       9.317   2.016   4.913  1.00  0.00     0.232 C 
HETATM   24  C1  UNL     1       8.979   2.165   6.347  1.00  0.00     0.119 C 
HETATM   25  O1  UNL     1       8.865   2.847   4.079  1.00  0.00    -0.272 OA
ATOM     26  H1  UNL     1      10.506   0.282   5.144  1.00  0.00     0.190 HD
ENDBRANCH  20  22
ENDBRANCH  18  20
ENDBRANCH   1  18
TORSDOF 6
ENDMDL
MODEL 2
REMARK VINA RESULT: -6.908358810      2.911      3.309
REMARK  6 active torsions:
REMARK  status: ('A' for Active; 'I' for Inactive)
REMARK       I    between atoms: C2_2  and  N1_4 
REMARK    1  A    between atoms: N1_4  and  N2_6 
REMARK    2  A    between atoms: N2_6  and  C3_8 
REMARK    3  A    between atoms: C3_8  and  C5_10 
REMARK    4  A    between atoms: N3_13  and  C7_14 
REMARK    5  A    between atoms: C8_19  and  N6_20 
REMARK    6  A    between atoms: C9_24  and  O2_25 
ROOT
HETATM    1  C5  UNL     1      11.922  -0.389   0.930  1.00  0.00     0.047 A 
HETATM    2  C6  UNL     1      12.548  -1.585   1.159  1.00  0.00     0.086 A 
HETATM    3  S1  UNL     1      13.784  -1.586  -0.019  1.00  0.00    -0.014 SA
HETATM    4  N3  UNL     1      13.464  -0.107  -0.733  1.00  0.00    -0.238 N 
HETATM    5  C9  UNL     1      12.420   0.374  -0.070  1.00  0.00     0.168 A 
ENDROOT
BRANCH   4   6
HETATM    6  C7  UNL     1      14.205   0.461  -1.832  1.00  0.00     0.181 A 
HETATM    7  N4  UNL     1      13.964   1.560  -2.524  1.00  0.00    -0.277 N 
HETATM    8  N5  UNL     1      14.736   1.909  -3.469  1.00  0.00    -0.278 N 
ATOM      9  H4  UNL     1      13.151   2.133  -2.297  1.00  0.00     0.189 HD
HETATM   10  C8  UNL     1      15.795   1.141  -3.749  1.00  0.00     0.160 A 
ATOM     11  H5  UNL     1      14.552   2.757  -4.006  1.00  0.00     0.189 HD
HETATM   12  S2  UNL     1      15.629  -0.106  -2.588  1.00  0.00    -0.014 SA
BRANCH  10  13
HETATM   13  N6  UNL     1      16.712   1.311  -4.673  1.00  0.00    -0.378 N 
ATOM     14  H62 UNL     1      17.232   2.150  -4.930  1.00  0.00     0.158 HD
ATOM     15  H61 UNL     1      17.094   0.628  -5.327  1.00  0.00     0.158 HD
ENDBRANCH  10  13
ENDBRANCH   4   6
BRANCH   5  16
HETATM   16  O2  UNL     1      11.954   1.537  -0.427  1.00  0.00    -0.345 OA
ATOM     17  H2  UNL     1      12.473   2.327  -0.521  1.00  0.00     0.219 HD
ENDBRANCH   5  16
BRANCH   1  18
HETATM   18  C3  UNL     1      10.752   0.031   1.756  1.00  0.00     0.037 C 
HETATM   19  C4  UNL     1       9.442  -0.618   1.626  1.00  0.00     0.070 C 
BRANCH  18  20
HETATM   20  N2  UNL     1      10.869   0.985   2.612  1.00  0.00    -0.302 N 
ATOM     21  H2  UNL     1      11.319   1.847   2.303  1.00  0.00     0.186 HD
BRANCH  20  22
HETATM   22  N1  UNL     1      10.432   0.922   3.908  1.00  0.00    -0.270 N 
HETATM   23  C2  UNL     1       9.527   1.885   4.420  1.00  0.00     0.232 C 
HETATM   24  C1  UNL     1       9.057   1.815   5.823  1.00  0.00     0.119 C 
HETATM   25  O1  UNL     1       9.116   2.814   3.673  1.00  0.00    -0.272 OA
ATOM     26  H1  UNL     1      10.763   0.171   4.514  1.00  0.00     0.190 HD
ENDBRANCH  20  22
ENDBRANCH  18  20
ENDBRANCH   1  18
TORSDOF 6
ENDMDL
MODEL 3
REMARK VINA RESULT: -6.715574168      3.639      5.306
REMARK  6 active torsions:
REMARK  status: ('A' for Active; 'I' for Inactive)
REMARK       I    between atoms: C2_2  and  N1_4 
REMARK    1  A    between atoms: N1_4  and  N2_6 
REMARK    2  A    between atoms: N2_6  and  C3_8 
REMARK    3  A    between atoms: C3_8  and  C5_10 
REMARK    4  A    between atoms: N3_13  and  C7_14 
REMARK    5  A    between atoms: C8_19  and  N6_20 
REMARK    6  A    between atoms: C9_24  and  O2_25 
ROOT
HETATM    1  C5  UNL     1      12.734  -0.267   0.217  1.00  0.00     0.047 A 
HETATM    2  C6  UNL     1      13.416  -1.443   0.390  1.00  0.00     0.086 A 
HETATM    3  S1  UNL     1      14.748  -1.255  -0.662  1.00  0.00    -0.014 SA
HETATM    4  N3  UNL     1      14.394   0.268  -1.261  1.00  0.00    -0.238 N 
HETATM    5  C9  UNL     1      13.267   0.619  -0.655  1.00  0.00     0.168 A 
ENDROOT
BRANCH   4   6
HETATM    6  C7  UNL     1      15.189   0.984  -2.226  1.00  0.00     0.181 A 
HETATM    7  N4  UNL     1      14.853   1.423  -3.426  1.00  0.00    -0.277 N 
HETATM    8  N5  UNL     1      15.696   2.042  -4.146  1.00  0.00    -0.278 N 
ATOM      9  H4  UNL     1      13.909   1.262  -3.777  1.00  0.00     0.189 HD
HETATM   10  C8  UNL     1      16.928   2.239  -3.664  1.00  0.00     0.160 A 
ATOM     11  H5  UNL     1      15.439   2.382  -5.073  1.00  0.00     0.189 HD
HETATM   12  S2  UNL     1      16.818   1.493  -2.128  1.00  0.00    -0.014 SA
BRANCH  10  13
HETATM   13  N6  UNL     1      17.945   2.847  -4.231  1.00  0.00    -0.378 N 
ATOM     14  H62 UNL     1      18.377   2.683  -5.141  1.00  0.00     0.158 HD
ATOM     15  H61 UNL     1      18.512   3.614  -3.871  1.00  0.00     0.158 HD
ENDBRANCH  10  13
ENDBRANCH   4   6
BRANCH   5  16
HETATM   16  O2  UNL     1      12.757   1.783  -0.944  1.00  0.00    -0.345 OA
ATOM     17  H2  UNL     1      13.148   2.418  -1.532  1.00  0.00     0.219 HD
ENDBRANCH   5  16
BRANCH   1  18
HETATM   18  C3  UNL     1      11.472  -0.000   0.966  1.00  0.00     0.037 C 
HETATM   19  C4  UNL     1      11.388  -0.165   2.422  1.00  0.00     0.070 C 
BRANCH  18  20
HETATM   20  N2  UNL     1      10.415   0.386   0.342  1.00  0.00    -0.302 N 
ATOM     21  H2  UNL     1      10.076   1.332   0.520  1.00  0.00     0.186 HD
BRANCH  20  22
HETATM   22  N1  UNL     1       9.712  -0.385  -0.545  1.00  0.00    -0.270 N 
HETATM   23  C2  UNL     1       9.692  -0.073  -1.927  1.00  0.00     0.232 C 
HETATM   24  C1  UNL     1       8.931  -0.908  -2.884  1.00  0.00     0.119 C 
HETATM   25  O1  UNL     1      10.330   0.930  -2.349  1.00  0.00    -0.272 OA
ATOM     26  H1  UNL     1       9.196  -1.197  -0.206  1.00  0.00     0.190 HD
ENDBRANCH  20  22
ENDBRANCH  18  20
ENDBRANCH   1  18
TORSDOF 6
ENDMDL
MODEL 4
REMARK VINA RESULT: -6.536384269      3.402      6.262
REMARK  6 active torsions:
REMARK  status: ('A' for Active; 'I' for Inactive)
REMARK       I    between atoms: C2_2  and  N1_4 
REMARK    1  A    between atoms: N1_4  and  N2_6 
REMARK    2  A    between atoms: N2_6  and  C3_8 
REMARK    3  A    between atoms: C3_8  and  C5_10 
REMARK    4  A    between atoms: N3_13  and  C7_14 
REMARK    5  A    between atoms: C8_19  and  N6_20 
REMARK    6  A    between atoms: C9_24  and  O2_25 
ROOT
HETATM    1  C5  UNL     1      11.534  -0.819   0.186  1.00  0.00     0.047 A 
HETATM    2  C6  UNL     1      11.909  -2.111   0.444  1.00  0.00     0.086 A 
HETATM    3  S1  UNL     1      13.613  -2.024   0.360  1.00  0.00    -0.014 SA
HETATM    4  N3  UNL     1      13.773  -0.395   0.012  1.00  0.00    -0.238 N 
HETATM    5  C9  UNL     1      12.531   0.067  -0.037  1.00  0.00     0.168 A 
ENDROOT
BRANCH   4   6
HETATM    6  C7  UNL     1      15.026   0.291  -0.181  1.00  0.00     0.181 A 
HETATM    7  N4  UNL     1      15.248   1.561  -0.473  1.00  0.00    -0.277 N 
HETATM    8  N5  UNL     1      16.434   1.994  -0.606  1.00  0.00    -0.278 N 
ATOM      9  H4  UNL     1      14.460   2.197  -0.592  1.00  0.00     0.189 HD
HETATM   10  C8  UNL     1      17.450   1.139  -0.445  1.00  0.00     0.160 A 
ATOM     11  H5  UNL     1      16.608   2.973  -0.832  1.00  0.00     0.189 HD
HETATM   12  S2  UNL     1      16.621  -0.316  -0.094  1.00  0.00    -0.014 SA
BRANCH  10  13
HETATM   13  N6  UNL     1      18.740   1.369  -0.537  1.00  0.00    -0.378 N 
ATOM     14  H62 UNL     1      19.528   0.747  -0.357  1.00  0.00     0.158 HD
ATOM     15  H61 UNL     1      19.217   2.228  -0.811  1.00  0.00     0.158 HD
ENDBRANCH  10  13
ENDBRANCH   4   6
BRANCH   5  16
HETATM   16  O2  UNL     1      12.362   1.333  -0.297  1.00  0.00    -0.345 OA
ATOM     17  H2  UNL     1      13.027   2.003  -0.197  1.00  0.00     0.219 HD
ENDBRANCH   5  16
BRANCH   1  18
HETATM   18  C3  UNL     1      10.093  -0.434   0.161  1.00  0.00     0.037 C 
HETATM   19  C4  UNL     1       9.386  -0.008   1.375  1.00  0.00     0.070 C 
BRANCH  18  20
HETATM   20  N2  UNL     1       9.430  -0.467  -0.941  1.00  0.00    -0.302 N 
ATOM     21  H2  UNL     1       8.593  -1.049  -0.975  1.00  0.00     0.186 HD
BRANCH  20  22
HETATM   22  N1  UNL     1       9.770   0.226  -2.072  1.00  0.00    -0.270 N 
HETATM   23  C2  UNL     1       9.528  -0.314  -3.359  1.00  0.00     0.232 C 
HETATM   24  C1  UNL     1       9.897   0.438  -4.581  1.00  0.00     0.119 C 
HETATM   25  O1  UNL     1       8.991  -1.450  -3.468  1.00  0.00    -0.272 OA
ATOM     26  H1  UNL     1      10.204   1.146  -1.986  1.00  0.00     0.190 HD
ENDBRANCH  20  22
ENDBRANCH  18  20
ENDBRANCH   1  18
TORSDOF 6
ENDMDL
MODEL 5
REMARK VINA RESULT: -6.340504630      3.702      4.510
REMARK  6 active torsions:
REMARK  status: ('A' for Active; 'I' for Inactive)
REMARK       I    between atoms: C2_2  and  N1_4 
REMARK    1  A    between atoms: N1_4  and  N2_6 
REMARK    2  A    between atoms: N2_6  and  C3_8 
REMARK    3  A    between atoms: C3_8  and  C5_10 
REMARK    4  A    between atoms: N3_13  and  C7_14 
REMARK    5  A    between atoms: C8_19  and  N6_20 
REMARK    6  A    between atoms: C9_24  and  O2_25 
ROOT
HETATM    1  C5  UNL     1      11.529  -0.981   1.557  1.00  0.00     0.047 A 
HETATM    2  C6  UNL     1      11.381  -2.303   1.882  1.00  0.00     0.086 A 
HETATM    3  S1  UNL     1      12.768  -3.013   1.181  1.00  0.00    -0.014 SA
HETATM    4  N3  UNL     1      13.459  -1.638   0.523  1.00  0.00    -0.238 N 
HETATM    5  C9  UNL     1      12.630  -0.653   0.842  1.00  0.00     0.168 A 
ENDROOT
BRANCH   4   6
HETATM    6  C7  UNL     1      14.693  -1.606  -0.220  1.00  0.00     0.181 A 
HETATM    7  N4  UNL     1      14.976  -0.976  -1.347  1.00  0.00    -0.277 N 
HETATM    8  N5  UNL     1      16.132  -1.063  -1.862  1.00  0.00    -0.278 N 
ATOM      9  H4  UNL     1      14.259  -0.414  -1.805  1.00  0.00     0.189 HD
HETATM   10  C8  UNL     1      17.056  -1.807  -1.242  1.00  0.00     0.160 A 
ATOM     11  H5  UNL     1      16.353  -0.578  -2.731  1.00  0.00     0.189 HD
HETATM   12  S2  UNL     1      16.183  -2.373   0.116  1.00  0.00    -0.014 SA
BRANCH  10  13
HETATM   13  N6  UNL     1      18.301  -2.033  -1.595  1.00  0.00    -0.378 N 
ATOM     14  H62 UNL     1      19.041  -1.374  -1.836  1.00  0.00     0.158 HD
ATOM     15  H61 UNL     1      18.782  -2.926  -1.699  1.00  0.00     0.158 HD
ENDBRANCH  10  13
ENDBRANCH   4   6
BRANCH   5  16
HETATM   16  O2  UNL     1      12.933   0.551   0.446  1.00  0.00    -0.345 OA
ATOM     17  H2  UNL     1      13.568   0.758  -0.229  1.00  0.00     0.219 HD
ENDBRANCH   5  16
BRANCH   1  18
HETATM   18  C3  UNL     1      10.515   0.028   1.982  1.00  0.00     0.037 C 
HETATM   19  C4  UNL     1       9.155   0.034   1.433  1.00  0.00     0.070 C 
BRANCH  18  20
HETATM   20  N2  UNL     1      10.818   0.926   2.853  1.00  0.00    -0.302 N 
ATOM     21  H2  UNL     1      11.442   1.679   2.561  1.00  0.00     0.186 HD
BRANCH  20  22
HETATM   22  N1  UNL     1      10.360   0.942   4.143  1.00  0.00    -0.270 N 
HETATM   23  C2  UNL     1       9.461   1.944   4.586  1.00  0.00     0.232 C 
HETATM   24  C1  UNL     1       8.968   1.958   5.982  1.00  0.00     0.119 C 
HETATM   25  O1  UNL     1       9.075   2.835   3.782  1.00  0.00    -0.272 OA
ATOM     26  H1  UNL     1      10.670   0.221   4.795  1.00  0.00     0.190 HD
ENDBRANCH  20  22
ENDBRANCH  18  20
ENDBRANCH   1  18
TORSDOF 6
ENDMDL
