MODEL 1
REMARK VINA RESULT: -7.165710146      0.000      0.000
REMARK  4 active torsions:
REMARK  status: ('A' for Active; 'I' for Inactive)
REMARK    1  A    between atoms: C3_5  and  N2_6 
REMARK    2  A    between atoms: C4_9  and  N3_10 
REMARK    3  A    between atoms: N3_10  and  C5_12 
REMARK    4  A    between atoms: C7_22  and  C8_23 
ROOT
HETATM    1  C1  UNL     1      15.347  -4.021   0.722  1.00  0.00     0.068 C 
HETATM    2  C2  UNL     1      14.560  -2.792   0.505  1.00  0.00     0.014 A 
HETATM    3  N1  UNL     1      13.439  -2.535   1.190  1.00  0.00    -0.339 N 
ATOM      4  H1  UNL     1      13.113  -3.207   1.886  1.00  0.00     0.167 HD
HETATM    5  C3  UNL     1      12.722  -1.390   0.976  1.00  0.00     0.202 A 
HETATM    6  C4  UNL     1      13.139  -0.464   0.040  1.00  0.00     0.102 A 
HETATM    7  C7  UNL     1      14.286  -0.706  -0.676  1.00  0.00     0.079 A 
HETATM    8  C9  UNL     1      14.991  -1.881  -0.432  1.00  0.00    -0.020 A 
HETATM    9  C10 UNL     1      16.212  -2.121  -1.207  1.00  0.00     0.051 C 
ENDROOT
BRANCH   6  10
HETATM   10  N3  UNL     1      12.438   0.744  -0.230  1.00  0.00    -0.334 N 
ATOM     11  H3  UNL     1      12.636   1.579   0.321  1.00  0.00     0.168 HD
BRANCH  10  12
HETATM   12  C5  UNL     1      11.545   0.790  -1.178  1.00  0.00     0.174 A 
HETATM   13  N4  UNL     1      11.723   0.903  -2.505  1.00  0.00    -0.222 N 
HETATM   14  O3  UNL     1      10.565   0.908  -3.079  1.00  0.00    -0.153 OA
ATOM     15  H4  UNL     1      12.623   0.972  -2.980  1.00  0.00     0.198 HD
HETATM   16  N5  UNL     1       9.608   0.805  -2.213  1.00  0.00    -0.222 N 
HETATM   17  C6  UNL     1      10.183   0.726  -0.982  1.00  0.00     0.167 A 
ATOM     18  H5  UNL     1       8.608   0.785  -2.416  1.00  0.00     0.198 HD
HETATM   19  N6  UNL     1       9.589   0.614   0.146  1.00  0.00    -0.381 N 
ATOM     20  H62 UNL     1      10.020   0.554   1.069  1.00  0.00     0.157 HD
ATOM     21  H61 UNL     1       8.581   0.566   0.291  1.00  0.00     0.157 HD
ENDBRANCH  10  12
ENDBRANCH   6  10
BRANCH   5  22
HETATM   22  N2  UNL     1      11.534  -1.102   1.695  1.00  0.00    -0.095 N 
HETATM   23  O1  UNL     1      11.536  -0.088   2.416  1.00  0.00    -0.530 OA
HETATM   24  O2  UNL     1      10.426  -1.881   1.616  1.00  0.00    -0.530 OA
ENDBRANCH   5  22
BRANCH   7  25
HETATM   25  C8  UNL     1      14.745   0.249  -1.666  1.00  0.00     0.212 C 
HETATM   26  O4  UNL     1      15.297   1.307  -1.216  1.00  0.00    -0.644 OA
HETATM   27  O5  UNL     1      14.624   0.084  -3.024  1.00  0.00    -0.644 OA
ENDBRANCH   7  25
TORSDOF 4
ENDMDL
MODEL 2
REMARK VINA RESULT: -7.131373374      1.256      1.810
REMARK  4 active torsions:
REMARK  status: ('A' for Active; 'I' for Inactive)
REMARK    1  A    between atoms: C3_5  and  N2_6 
REMARK    2  A    between atoms: C4_9  and  N3_10 
REMARK    3  A    between atoms: N3_10  and  C5_12 
REMARK    4  A    between atoms: C7_22  and  C8_23 
ROOT
HETATM    1  C1  UNL     1      13.527  -4.565   1.553  1.00  0.00     0.068 C 
HETATM    2  C2  UNL     1      13.194  -3.209   1.080  1.00  0.00     0.014 A 
HETATM    3  N1  UNL     1      12.019  -2.628   1.354  1.00  0.00    -0.339 N 
ATOM      4  H1  UNL     1      11.328  -3.134   1.907  1.00  0.00     0.167 HD
HETATM    5  C3  UNL     1      11.728  -1.368   0.906  1.00  0.00     0.202 A 
HETATM    6  C4  UNL     1      12.644  -0.660   0.154  1.00  0.00     0.102 A 
HETATM    7  C7  UNL     1      13.856  -1.235  -0.141  1.00  0.00     0.079 A 
HETATM    8  C9  UNL     1      14.119  -2.517   0.331  1.00  0.00    -0.020 A 
HETATM    9  C10 UNL     1      15.418  -3.114   0.005  1.00  0.00     0.051 C 
ENDROOT
BRANCH   6  10
HETATM   10  N3  UNL     1      12.401   0.652  -0.341  1.00  0.00    -0.334 N 
ATOM     11  H3  UNL     1      12.656   1.462   0.223  1.00  0.00     0.168 HD
BRANCH  10  12
HETATM   12  C5  UNL     1      11.854   0.823  -1.512  1.00  0.00     0.174 A 
HETATM   13  N4  UNL     1      10.618   0.498  -1.925  1.00  0.00    -0.222 N 
HETATM   14  O3  UNL     1      10.490   0.845  -3.164  1.00  0.00    -0.153 OA
ATOM     15  H4  UNL     1       9.899   0.051  -1.356  1.00  0.00     0.198 HD
HETATM   16  N5  UNL     1      11.575   1.390  -3.615  1.00  0.00    -0.222 N 
HETATM   17  C6  UNL     1      12.478   1.399  -2.596  1.00  0.00     0.167 A 
ATOM     18  H5  UNL     1      11.724   1.747  -4.559  1.00  0.00     0.198 HD
HETATM   19  N6  UNL     1      13.675   1.851  -2.625  1.00  0.00    -0.381 N 
ATOM     20  H62 UNL     1      14.351   1.857  -1.862  1.00  0.00     0.157 HD
ATOM     21  H61 UNL     1      14.136   2.278  -3.429  1.00  0.00     0.157 HD
ENDBRANCH  10  12
ENDBRANCH   6  10
BRANCH   5  22
HETATM   22  N2  UNL     1      10.489  -0.738   1.189  1.00  0.00    -0.095 N 
HETATM   23  O1  UNL     1      10.413  -0.077   2.240  1.00  0.00    -0.530 OA
HETATM   24  O2  UNL     1       9.416  -0.834   0.364  1.00  0.00    -0.530 OA
ENDBRANCH   5  22
BRANCH   7  25
HETATM   25  C8  UNL     1      14.836  -0.514  -0.930  1.00  0.00     0.212 C 
HETATM   26  O4  UNL     1      15.417   0.462  -0.352  1.00  0.00    -0.644 OA
HETATM   27  O5  UNL     1      15.164  -0.813  -2.229  1.00  0.00    -0.644 OA
ENDBRANCH   7  25
TORSDOF 4
ENDMDL
MODEL 3
REMARK VINA RESULT: -6.775955510      1.430      1.724
REMARK  4 active torsions:
REMARK  status: ('A' for Active; 'I' for Inactive)
REMARK    1  A    between atoms: C3_5  and  N2_6 
REMARK    2  A    between atoms: C4_9  and  N3_10 
REMARK    3  A    between atoms: N3_10  and  C5_12 
REMARK    4  A    between atoms: C7_22  and  C8_23 
ROOT
HETATM    1  C1  UNL     1      13.169  -5.034   1.052  1.00  0.00     0.068 C 
HETATM    2  C2  UNL     1      12.948  -3.584   0.892  1.00  0.00     0.014 A 
HETATM    3  N1  UNL     1      11.835  -2.982   1.327  1.00  0.00    -0.339 N 
ATOM      4  H1  UNL     1      11.112  -3.538   1.786  1.00  0.00     0.167 HD
HETATM    5  C3  UNL     1      11.647  -1.636   1.170  1.00  0.00     0.202 A 
HETATM    6  C4  UNL     1      12.607  -0.859   0.553  1.00  0.00     0.102 A 
HETATM    7  C7  UNL     1      13.758  -1.455   0.097  1.00  0.00     0.079 A 
HETATM    8  C9  UNL     1      13.916  -2.825   0.274  1.00  0.00    -0.020 A 
HETATM    9  C10 UNL     1      15.151  -3.442  -0.221  1.00  0.00     0.051 C 
ENDROOT
BRANCH   6  10
HETATM   10  N3  UNL     1      12.472   0.544   0.359  1.00  0.00    -0.334 N 
ATOM     11  H3  UNL     1      12.368   1.160   1.165  1.00  0.00     0.168 HD
BRANCH  10  12
HETATM   12  C5  UNL     1      12.481   1.046  -0.843  1.00  0.00     0.174 A 
HETATM   13  N4  UNL     1      13.336   1.928  -1.387  1.00  0.00    -0.222 N 
HETATM   14  O3  UNL     1      12.977   2.155  -2.608  1.00  0.00    -0.153 OA
ATOM     15  H4  UNL     1      14.136   2.350  -0.915  1.00  0.00     0.198 HD
HETATM   16  N5  UNL     1      11.923   1.472  -2.924  1.00  0.00    -0.222 N 
HETATM   17  C6  UNL     1      11.566   0.747  -1.829  1.00  0.00     0.167 A 
ATOM     18  H5  UNL     1      11.448   1.477  -3.827  1.00  0.00     0.198 HD
HETATM   19  N6  UNL     1      10.578  -0.059  -1.721  1.00  0.00    -0.381 N 
ATOM     20  H62 UNL     1      10.311  -0.602  -0.900  1.00  0.00     0.157 HD
ATOM     21  H61 UNL     1       9.901  -0.280  -2.451  1.00  0.00     0.157 HD
ENDBRANCH  10  12
ENDBRANCH   6  10
BRANCH   5  22
HETATM   22  N2  UNL     1      10.475  -0.982   1.628  1.00  0.00    -0.095 N 
HETATM   23  O1  UNL     1      10.502  -0.497   2.773  1.00  0.00    -0.530 OA
HETATM   24  O2  UNL     1       9.355  -0.875   0.869  1.00  0.00    -0.530 OA
ENDBRANCH   5  22
BRANCH   7  25
HETATM   25  C8  UNL     1      14.783  -0.662  -0.556  1.00  0.00     0.212 C 
HETATM   26  O4  UNL     1      15.504   0.064   0.204  1.00  0.00    -0.644 OA
HETATM   27  O5  UNL     1      15.014  -0.649  -1.909  1.00  0.00    -0.644 OA
ENDBRANCH   7  25
TORSDOF 4
ENDMDL
MODEL 4
REMARK VINA RESULT: -6.773534206      1.271      3.356
REMARK  4 active torsions:
REMARK  status: ('A' for Active; 'I' for Inactive)
REMARK    1  A    between atoms: C3_5  and  N2_6 
REMARK    2  A    between atoms: C4_9  and  N3_10 
REMARK    3  A    between atoms: N3_10  and  C5_12 
REMARK    4  A    between atoms: C7_22  and  C8_23 
ROOT
HETATM    1  C1  UNL     1      16.467  -3.357   0.247  1.00  0.00     0.068 C 
HETATM    2  C2  UNL     1      15.484  -2.261   0.163  1.00  0.00     0.014 A 
HETATM    3  N1  UNL     1      15.792  -1.068  -0.360  1.00  0.00    -0.339 N 
ATOM      4  H1  UNL     1      16.735  -0.905  -0.713  1.00  0.00     0.167 HD
HETATM    5  C3  UNL     1      14.866  -0.062  -0.429  1.00  0.00     0.202 A 
HETATM    6  C4  UNL     1      13.583  -0.254   0.043  1.00  0.00     0.102 A 
HETATM    7  C7  UNL     1      13.243  -1.470   0.584  1.00  0.00     0.079 A 
HETATM    8  C9  UNL     1      14.209  -2.470   0.638  1.00  0.00    -0.020 A 
HETATM    9  C10 UNL     1      13.827  -3.760   1.221  1.00  0.00     0.051 C 
ENDROOT
BRANCH   6  10
HETATM   10  N3  UNL     1      12.576   0.751  -0.001  1.00  0.00    -0.334 N 
ATOM     11  H3  UNL     1      12.511   1.437   0.750  1.00  0.00     0.168 HD
BRANCH  10  12
HETATM   12  C5  UNL     1      11.736   0.797  -0.996  1.00  0.00     0.174 A 
HETATM   13  N4  UNL     1      11.985   0.935  -2.309  1.00  0.00    -0.222 N 
HETATM   14  O3  UNL     1      10.860   0.932  -2.947  1.00  0.00    -0.153 OA
ATOM     15  H4  UNL     1      12.908   1.027  -2.733  1.00  0.00     0.198 HD
HETATM   16  N5  UNL     1       9.859   0.799  -2.137  1.00  0.00    -0.222 N 
HETATM   17  C6  UNL     1      10.366   0.709  -0.877  1.00  0.00     0.167 A 
ATOM     18  H5  UNL     1       8.872   0.767  -2.395  1.00  0.00     0.198 HD
HETATM   19  N6  UNL     1       9.713   0.569   0.215  1.00  0.00    -0.381 N 
ATOM     20  H62 UNL     1      10.093   0.502   1.158  1.00  0.00     0.157 HD
ATOM     21  H61 UNL     1       8.699   0.503   0.303  1.00  0.00     0.157 HD
ENDBRANCH  10  12
ENDBRANCH   6  10
BRANCH   5  22
HETATM   22  N2  UNL     1      15.175   1.207  -0.982  1.00  0.00    -0.095 N 
HETATM   23  O1  UNL     1      15.710   2.041  -0.231  1.00  0.00    -0.530 OA
HETATM   24  O2  UNL     1      14.911   1.524  -2.275  1.00  0.00    -0.530 OA
ENDBRANCH   5  22
BRANCH   7  25
HETATM   25  C8  UNL     1      11.902  -1.697   1.088  1.00  0.00     0.212 C 
HETATM   26  O4  UNL     1      11.094  -2.286   0.297  1.00  0.00    -0.644 OA
HETATM   27  O5  UNL     1      11.464  -1.325   2.335  1.00  0.00    -0.644 OA
ENDBRANCH   7  25
TORSDOF 4
ENDMDL
MODEL 5
REMARK VINA RESULT: -6.747604661      2.050      3.394
REMARK  4 active torsions:
REMARK  status: ('A' for Active; 'I' for Inactive)
REMARK    1  A    between atoms: C3_5  and  N2_6 
REMARK    2  A    between atoms: C4_9  and  N3_10 
REMARK    3  A    between atoms: N3_10  and  C5_12 
REMARK    4  A    between atoms: C7_22  and  C8_23 
ROOT
HETATM    1  C1  UNL     1      16.955  -1.112  -2.234  1.00  0.00     0.068 C 
HETATM    2  C2  UNL     1      15.590  -1.106  -1.675  1.00  0.00     0.014 A 
HETATM    3  N1  UNL     1      15.125  -2.111  -0.923  1.00  0.00    -0.339 N 
ATOM      4  H1  UNL     1      15.730  -2.910  -0.726  1.00  0.00     0.167 HD
HETATM    5  C3  UNL     1      13.856  -2.089  -0.413  1.00  0.00     0.202 A 
HETATM    6  C4  UNL     1      13.016  -1.022  -0.663  1.00  0.00     0.102 A 
HETATM    7  C7  UNL     1      13.470   0.021  -1.433  1.00  0.00     0.079 A 
HETATM    8  C9  UNL     1      14.767  -0.035  -1.935  1.00  0.00    -0.020 A 
HETATM    9  C10 UNL     1      15.232   1.088  -2.755  1.00  0.00     0.051 C 
ENDROOT
BRANCH   6  10
HETATM   10  N3  UNL     1      11.687  -0.939  -0.162  1.00  0.00    -0.334 N 
ATOM     11  H3  UNL     1      10.903  -1.217  -0.753  1.00  0.00     0.168 HD
BRANCH  10  12
HETATM   12  C5  UNL     1      11.466  -0.510   1.048  1.00  0.00     0.174 A 
HETATM   13  N4  UNL     1      11.724   0.697   1.579  1.00  0.00    -0.222 N 
HETATM   14  O3  UNL     1      11.344   0.695   2.815  1.00  0.00    -0.153 OA
ATOM     15  H4  UNL     1      12.149   1.484   1.089  1.00  0.00     0.198 HD
HETATM   16  N5  UNL     1      10.840  -0.449   3.153  1.00  0.00    -0.222 N 
HETATM   17  C6  UNL     1      10.895  -1.255   2.057  1.00  0.00     0.167 A 
ATOM     18  H5  UNL     1      10.471  -0.700   4.070  1.00  0.00     0.198 HD
HETATM   19  N6  UNL     1      10.499  -2.468   1.966  1.00  0.00    -0.381 N 
ATOM     20  H62 UNL     1      10.540  -3.072   1.145  1.00  0.00     0.157 HD
ATOM     21  H61 UNL     1      10.077  -3.020   2.713  1.00  0.00     0.157 HD
ENDBRANCH  10  12
ENDBRANCH   6  10
BRANCH   5  22
HETATM   22  N2  UNL     1      13.349  -3.145   0.388  1.00  0.00    -0.095 N 
HETATM   23  O1  UNL     1      13.677  -3.159   1.588  1.00  0.00    -0.530 OA
HETATM   24  O2  UNL     1      12.537  -4.112  -0.109  1.00  0.00    -0.530 OA
ENDBRANCH   5  22
BRANCH   7  25
HETATM   25  C8  UNL     1      12.608   1.153  -1.713  1.00  0.00     0.212 C 
HETATM   26  O4  UNL     1      12.728   2.158  -0.938  1.00  0.00    -0.644 OA
HETATM   27  O5  UNL     1      11.694   1.204  -2.736  1.00  0.00    -0.644 OA
ENDBRANCH   7  25
TORSDOF 4
ENDMDL
