MODEL 1
REMARK VINA RESULT: -7.180575987      0.000      0.000
REMARK  8 active torsions:
REMARK  status: ('A' for Active; 'I' for Inactive)
REMARK    1  A    between atoms: C2_2  and  C3_3 
REMARK    2  A    between atoms: C3_3  and  C4_4 
REMARK    3  A    between atoms: C4_4  and  N1_5 
REMARK    4  A    between atoms: N1_5  and  C5_7 
REMARK    5  A    between atoms: N3_11  and  N4_13 
REMARK    6  A    between atoms: C8_24  and  C9_25 
REMARK    7  A    between atoms: C10_28  and  C11_29 
REMARK    8  A    between atoms: C11_29  and  N10_30 
ROOT
HETATM    1  C5  UNL     1      17.856 -29.461  15.723  1.00  0.00     0.147 A 
HETATM    2  N2  UNL     1      18.128 -29.038  14.500  1.00  0.00    -0.173 N 
ATOM      3  H2  UNL     1      17.355 -28.685  13.937  1.00  0.00     0.186 HD
HETATM    4  C6  UNL     1      19.364 -29.043  13.944  1.00  0.00     0.699 A 
HETATM    5  N3  UNL     1      19.499 -28.601  12.798  1.00  0.00    -0.138 N 
ATOM      6  H3  UNL     1      18.643 -28.276  12.349  1.00  0.00     0.205 HD
HETATM    7  N5  UNL     1      20.402 -29.514  14.706  1.00  0.00    -0.171 N 
ATOM      8  H5  UNL     1      21.341 -29.520  14.308  1.00  0.00     0.186 HD
HETATM    9  C7  UNL     1      20.227 -29.968  15.959  1.00  0.00     0.168 A 
HETATM   10  N6  UNL     1      21.288 -30.401  16.667  1.00  0.00    -0.260 N 
ATOM     11  H6  UNL     1      22.222 -30.422  16.257  1.00  0.00     0.191 HD
HETATM   12  N7  UNL     1      21.078 -30.799  17.918  1.00  0.00    -0.177 N 
HETATM   13  N8  UNL     1      21.903 -31.283  18.805  1.00  0.00    -0.272 N 
ATOM     14  H8  UNL     1      22.904 -31.417  18.660  1.00  0.00     0.189 HD
HETATM   15  C8  UNL     1      21.243 -31.581  19.939  1.00  0.00     0.126 A 
HETATM   16  C10 UNL     1      19.915 -31.259  19.751  1.00  0.00     0.048 A 
HETATM   17  C12 UNL     1      19.824 -30.774  18.474  1.00  0.00     0.156 A 
HETATM   18  N11 UNL     1      18.799 -30.348  17.737  1.00  0.00    -0.333 N 
ATOM     19  H11 UNL     1      17.870 -30.336  18.158  1.00  0.00     0.168 HD
HETATM   20  C13 UNL     1      18.933 -29.928  16.450  1.00  0.00     0.125 A 
ENDROOT
BRANCH   1  21
HETATM   21  N1  UNL     1      16.651 -29.505  16.074  1.00  0.00    -0.374 N 
ATOM     22  H1  UNL     1      16.305 -30.451  15.915  1.00  0.00     0.161 HD
BRANCH  21  23
HETATM   23  C4  UNL     1      15.607 -28.736  16.602  1.00  0.00     0.121 C 
BRANCH  23  24
HETATM   24  C3  UNL     1      16.210 -27.323  16.909  1.00  0.00     0.019 C 
BRANCH  24  25
HETATM   25  C2  UNL     1      15.234 -26.691  17.917  1.00  0.00    -0.003 C 
HETATM   26  C1  UNL     1      15.882 -25.508  18.562  1.00  0.00     0.005 C 
ENDBRANCH  24  25
ENDBRANCH  23  24
ENDBRANCH  21  23
ENDBRANCH   1  21
BRANCH   5  27
HETATM   27  N4  UNL     1      20.637 -28.487  12.046  1.00  0.00    -0.331 N 
ATOM     28  H42 UNL     1      21.460 -28.922  12.463  1.00  0.00     0.177 HD
ATOM     29  H41 UNL     1      20.768 -28.032  11.143  1.00  0.00     0.177 HD
ENDBRANCH   5  27
BRANCH  16  30
HETATM   30  C11 UNL     1      18.799 -31.311  20.751  1.00  0.00     0.274 C 
BRANCH  30  31
HETATM   31  N10 UNL     1      18.905 -30.161  21.644  1.00  0.00    -0.075 N 
ATOM     32 3H10 UNL     1      19.387 -29.375  21.208  1.00  0.00     0.274 HD
ATOM     33 2H10 UNL     1      18.004 -29.708  21.800  1.00  0.00     0.274 HD
ATOM     34 1H10 UNL     1      19.347 -30.455  22.514  1.00  0.00     0.274 HD
ENDBRANCH  30  31
ENDBRANCH  16  30
BRANCH  15  35
HETATM   35  C9  UNL     1      21.839 -32.086  21.195  1.00  0.00     0.283 C 
HETATM   36  N9  UNL     1      22.375 -33.392  21.211  1.00  0.00    -0.056 NA
HETATM   37  O1  UNL     1      21.874 -31.390  22.183  1.00  0.00    -0.269 OA
ENDBRANCH  15  35
TORSDOF 8
ENDMDL
MODEL 2
REMARK VINA RESULT: -7.079611514      1.878      2.932
REMARK  8 active torsions:
REMARK  status: ('A' for Active; 'I' for Inactive)
REMARK    1  A    between atoms: C2_2  and  C3_3 
REMARK    2  A    between atoms: C3_3  and  C4_4 
REMARK    3  A    between atoms: C4_4  and  N1_5 
REMARK    4  A    between atoms: N1_5  and  C5_7 
REMARK    5  A    between atoms: N3_11  and  N4_13 
REMARK    6  A    between atoms: C8_24  and  C9_25 
REMARK    7  A    between atoms: C10_28  and  C11_29 
REMARK    8  A    between atoms: C11_29  and  N10_30 
ROOT
HETATM    1  C5  UNL     1      20.492 -30.296  16.460  1.00  0.00     0.147 A 
HETATM    2  N2  UNL     1      21.123 -30.552  15.326  1.00  0.00    -0.173 N 
ATOM      3  H2  UNL     1      20.783 -30.095  14.481  1.00  0.00     0.186 HD
HETATM    4  C6  UNL     1      22.189 -31.380  15.211  1.00  0.00     0.699 A 
HETATM    5  N3  UNL     1      22.710 -31.524  14.101  1.00  0.00    -0.138 N 
ATOM      6  H3  UNL     1      22.271 -31.005  13.340  1.00  0.00     0.205 HD
HETATM    7  N5  UNL     1      22.646 -31.989  16.352  1.00  0.00    -0.171 N 
ATOM      8  H5  UNL     1      23.451 -32.612  16.288  1.00  0.00     0.186 HD
HETATM    9  C7  UNL     1      22.071 -31.796  17.552  1.00  0.00     0.168 A 
HETATM   10  N6  UNL     1      22.576 -32.407  18.641  1.00  0.00    -0.260 N 
ATOM     11  H6  UNL     1      23.370 -33.043  18.568  1.00  0.00     0.191 HD
HETATM   12  N7  UNL     1      22.005 -32.153  19.814  1.00  0.00    -0.177 N 
HETATM   13  N8  UNL     1      22.266 -32.619  21.005  1.00  0.00    -0.272 N 
ATOM     14  H8  UNL     1      23.013 -33.279  21.222  1.00  0.00     0.189 HD
HETATM   15  C8  UNL     1      21.409 -32.104  21.903  1.00  0.00     0.126 A 
HETATM   16  C10 UNL     1      20.554 -31.254  21.232  1.00  0.00     0.048 A 
HETATM   17  C12 UNL     1      20.936 -31.299  19.919  1.00  0.00     0.156 A 
HETATM   18  N11 UNL     1      20.460 -30.722  18.816  1.00  0.00    -0.333 N 
ATOM     19  H11 UNL     1      19.663 -30.092  18.903  1.00  0.00     0.168 HD
HETATM   20  C13 UNL     1      20.987 -30.934  17.580  1.00  0.00     0.125 A 
ENDROOT
BRANCH   1  21
HETATM   21  N1  UNL     1      19.450 -29.597  16.407  1.00  0.00    -0.374 N 
ATOM     22  H1  UNL     1      19.723 -28.614  16.427  1.00  0.00     0.161 HD
BRANCH  21  23
HETATM   23  C4  UNL     1      18.054 -29.666  16.329  1.00  0.00     0.121 C 
BRANCH  23  24
HETATM   24  C3  UNL     1      17.639 -28.812  15.083  1.00  0.00     0.019 C 
BRANCH  24  25
HETATM   25  C2  UNL     1      16.837 -27.635  15.665  1.00  0.00    -0.003 C 
HETATM   26  C1  UNL     1      15.789 -28.156  16.595  1.00  0.00     0.005 C 
ENDBRANCH  24  25
ENDBRANCH  23  24
ENDBRANCH  21  23
ENDBRANCH   1  21
BRANCH   5  27
HETATM   27  N4  UNL     1      23.793 -32.282  13.748  1.00  0.00    -0.331 N 
ATOM     28  H42 UNL     1      24.532 -32.310  14.450  1.00  0.00     0.177 HD
ATOM     29  H41 UNL     1      23.956 -32.812  12.892  1.00  0.00     0.177 HD
ENDBRANCH   5  27
BRANCH  16  30
HETATM   30  C11 UNL     1      19.490 -30.367  21.806  1.00  0.00     0.274 C 
BRANCH  30  31
HETATM   31  N10 UNL     1      18.391 -31.194  22.294  1.00  0.00    -0.075 N 
ATOM     32 3H10 UNL     1      17.742 -31.452  21.551  1.00  0.00     0.274 HD
ATOM     33 2H10 UNL     1      18.696 -32.133  22.551  1.00  0.00     0.274 HD
ATOM     34 1H10 UNL     1      17.928 -30.712  23.064  1.00  0.00     0.274 HD
ENDBRANCH  30  31
ENDBRANCH  16  30
BRANCH  15  35
HETATM   35  C9  UNL     1      21.423 -32.336  23.365  1.00  0.00     0.283 C 
HETATM   36  N9  UNL     1      20.587 -33.342  23.897  1.00  0.00    -0.056 NA
HETATM   37  O1  UNL     1      22.143 -31.684  24.084  1.00  0.00    -0.269 OA
ENDBRANCH  15  35
TORSDOF 8
ENDMDL
MODEL 3
REMARK VINA RESULT: -6.994306577      4.287      6.422
REMARK  8 active torsions:
REMARK  status: ('A' for Active; 'I' for Inactive)
REMARK    1  A    between atoms: C2_2  and  C3_3 
REMARK    2  A    between atoms: C3_3  and  C4_4 
REMARK    3  A    between atoms: C4_4  and  N1_5 
REMARK    4  A    between atoms: N1_5  and  C5_7 
REMARK    5  A    between atoms: N3_11  and  N4_13 
REMARK    6  A    between atoms: C8_24  and  C9_25 
REMARK    7  A    between atoms: C10_28  and  C11_29 
REMARK    8  A    between atoms: C11_29  and  N10_30 
ROOT
HETATM    1  C5  UNL     1      15.630 -26.989  20.747  1.00  0.00     0.147 A 
HETATM    2  N2  UNL     1      15.134 -25.763  20.788  1.00  0.00    -0.173 N 
ATOM      3  H2  UNL     1      14.790 -25.421  21.684  1.00  0.00     0.186 HD
HETATM    4  C6  UNL     1      15.054 -24.932  19.721  1.00  0.00     0.699 A 
HETATM    5  N3  UNL     1      14.591 -23.799  19.886  1.00  0.00    -0.138 N 
ATOM      6  H3  UNL     1      14.285 -23.585  20.835  1.00  0.00     0.205 HD
HETATM    7  N5  UNL     1      15.524 -25.395  18.518  1.00  0.00    -0.171 N 
ATOM      8  H5  UNL     1      15.478 -24.783  17.704  1.00  0.00     0.186 HD
HETATM    9  C7  UNL     1      16.043 -26.627  18.374  1.00  0.00     0.168 A 
HETATM   10  N6  UNL     1      16.507 -27.019  17.171  1.00  0.00    -0.260 N 
ATOM     11  H6  UNL     1      16.441 -26.409  16.356  1.00  0.00     0.191 HD
HETATM   12  N7  UNL     1      17.053 -28.228  17.083  1.00  0.00    -0.177 N 
HETATM   13  N8  UNL     1      17.547 -28.864  16.056  1.00  0.00    -0.272 N 
ATOM     14  H8  UNL     1      17.606 -28.487  15.109  1.00  0.00     0.189 HD
HETATM   15  C8  UNL     1      17.969 -30.086  16.425  1.00  0.00     0.126 A 
HETATM   16  C10 UNL     1      17.724 -30.226  17.775  1.00  0.00     0.048 A 
HETATM   17  C12 UNL     1      17.143 -29.053  18.175  1.00  0.00     0.156 A 
HETATM   18  N11 UNL     1      16.664 -28.631  19.345  1.00  0.00    -0.333 N 
ATOM     19  H11 UNL     1      16.732 -29.253  20.150  1.00  0.00     0.168 HD
HETATM   20  C13 UNL     1      16.088 -27.410  19.515  1.00  0.00     0.125 A 
ENDROOT
BRANCH   1  21
HETATM   21  N1  UNL     1      15.543 -27.691  21.784  1.00  0.00    -0.374 N 
ATOM     22  H1  UNL     1      16.427 -28.185  21.912  1.00  0.00     0.161 HD
BRANCH  21  23
HETATM   23  C4  UNL     1      14.683 -28.048  22.830  1.00  0.00     0.121 C 
BRANCH  23  24
HETATM   24  C3  UNL     1      15.318 -27.470  24.140  1.00  0.00     0.019 C 
BRANCH  24  25
HETATM   25  C2  UNL     1      14.544 -26.168  24.410  1.00  0.00    -0.003 C 
HETATM   26  C1  UNL     1      15.116 -25.488  25.611  1.00  0.00     0.005 C 
ENDBRANCH  24  25
ENDBRANCH  23  24
ENDBRANCH  21  23
ENDBRANCH   1  21
BRANCH   5  27
HETATM   27  N4  UNL     1      14.430 -22.791  18.975  1.00  0.00    -0.331 N 
ATOM     28  H42 UNL     1      15.084 -22.016  19.087  1.00  0.00     0.177 HD
ATOM     29  H41 UNL     1      13.756 -22.714  18.214  1.00  0.00     0.177 HD
ENDBRANCH   5  27
BRANCH  16  30
HETATM   30  C11 UNL     1      18.105 -31.366  18.672  1.00  0.00     0.274 C 
BRANCH  30  31
HETATM   31  N10 UNL     1      19.535 -31.296  18.953  1.00  0.00    -0.075 N 
ATOM     32 3H10 UNL     1      19.967 -30.461  18.557  1.00  0.00     0.274 HD
ATOM     33 2H10 UNL     1      19.729 -31.105  19.936  1.00  0.00     0.274 HD
ATOM     34 1H10 UNL     1      19.981 -32.154  18.629  1.00  0.00     0.274 HD
ENDBRANCH  30  31
ENDBRANCH  16  30
BRANCH  15  35
HETATM   35  C9  UNL     1      18.648 -31.079  15.563  1.00  0.00     0.283 C 
HETATM   36  N9  UNL     1      20.051 -31.204  15.654  1.00  0.00    -0.056 NA
HETATM   37  O1  UNL     1      18.011 -31.773  14.806  1.00  0.00    -0.269 OA
ENDBRANCH  15  35
TORSDOF 8
ENDMDL
MODEL 4
REMARK VINA RESULT: -6.974531938      8.085     10.544
REMARK  8 active torsions:
REMARK  status: ('A' for Active; 'I' for Inactive)
REMARK    1  A    between atoms: C2_2  and  C3_3 
REMARK    2  A    between atoms: C3_3  and  C4_4 
REMARK    3  A    between atoms: C4_4  and  N1_5 
REMARK    4  A    between atoms: N1_5  and  C5_7 
REMARK    5  A    between atoms: N3_11  and  N4_13 
REMARK    6  A    between atoms: C8_24  and  C9_25 
REMARK    7  A    between atoms: C10_28  and  C11_29 
REMARK    8  A    between atoms: C11_29  and  N10_30 
ROOT
HETATM    1  C5  UNL     1      14.573 -26.676  22.164  1.00  0.00     0.147 A 
HETATM    2  N2  UNL     1      15.215 -25.756  21.465  1.00  0.00    -0.173 N 
ATOM      3  H2  UNL     1      16.225 -25.684  21.590  1.00  0.00     0.186 HD
HETATM    4  C6  UNL     1      14.625 -24.903  20.593  1.00  0.00     0.699 A 
HETATM    5  N3  UNL     1      15.333 -24.099  19.978  1.00  0.00    -0.138 N 
ATOM      6  H3  UNL     1      16.328 -24.136  20.197  1.00  0.00     0.205 HD
HETATM    7  N5  UNL     1      13.267 -25.008  20.424  1.00  0.00    -0.171 N 
ATOM      8  H5  UNL     1      12.804 -24.379  19.768  1.00  0.00     0.186 HD
HETATM    9  C7  UNL     1      12.526 -25.908  21.091  1.00  0.00     0.168 A 
HETATM   10  N6  UNL     1      11.199 -25.977  20.869  1.00  0.00    -0.260 N 
ATOM     11  H6  UNL     1      10.738 -25.333  20.226  1.00  0.00     0.191 HD
HETATM   12  N7  UNL     1      10.510 -26.912  21.517  1.00  0.00    -0.177 N 
HETATM   13  N8  UNL     1       9.233 -27.182  21.513  1.00  0.00    -0.272 N 
ATOM     14  H8  UNL     1       8.534 -26.688  20.957  1.00  0.00     0.189 HD
HETATM   15  C8  UNL     1       8.972 -28.203  22.347  1.00  0.00     0.126 A 
HETATM   16  C10 UNL     1      10.166 -28.604  22.911  1.00  0.00     0.048 A 
HETATM   17  C12 UNL     1      11.124 -27.780  22.384  1.00  0.00     0.156 A 
HETATM   18  N11 UNL     1      12.437 -27.673  22.583  1.00  0.00    -0.333 N 
ATOM     19  H11 UNL     1      12.884 -28.320  23.233  1.00  0.00     0.168 HD
HETATM   20  C13 UNL     1      13.209 -26.741  21.962  1.00  0.00     0.125 A 
ENDROOT
BRANCH   1  21
HETATM   21  N1  UNL     1      15.226 -27.326  23.018  1.00  0.00    -0.374 N 
ATOM     22  H1  UNL     1      15.827 -27.988  22.527  1.00  0.00     0.161 HD
BRANCH  21  23
HETATM   23  C4  UNL     1      15.435 -27.478  24.394  1.00  0.00     0.121 C 
BRANCH  23  24
HETATM   24  C3  UNL     1      15.102 -26.094  25.047  1.00  0.00     0.019 C 
BRANCH  24  25
HETATM   25  C2  UNL     1      13.721 -26.289  25.696  1.00  0.00    -0.003 C 
HETATM   26  C1  UNL     1      13.583 -27.704  26.159  1.00  0.00     0.005 C 
ENDBRANCH  24  25
ENDBRANCH  23  24
ENDBRANCH  21  23
ENDBRANCH   1  21
BRANCH   5  27
HETATM   27  N4  UNL     1      14.969 -23.167  19.046  1.00  0.00    -0.331 N 
ATOM     28  H42 UNL     1      14.223 -23.469  18.419  1.00  0.00     0.177 HD
ATOM     29  H41 UNL     1      15.339 -22.228  18.897  1.00  0.00     0.177 HD
ENDBRANCH   5  27
BRANCH  16  30
HETATM   30  C11 UNL     1      10.415 -29.766  23.825  1.00  0.00     0.274 C 
BRANCH  30  31
HETATM   31  N10 UNL     1      10.512 -30.986  23.030  1.00  0.00    -0.075 N 
ATOM     32 3H10 UNL     1      10.198 -31.809  23.544  1.00  0.00     0.274 HD
ATOM     33 2H10 UNL     1       9.822 -31.015  22.279  1.00  0.00     0.274 HD
ATOM     34 1H10 UNL     1      11.466 -31.084  22.684  1.00  0.00     0.274 HD
ENDBRANCH  30  31
ENDBRANCH  16  30
BRANCH  15  35
HETATM   35  C9  UNL     1       7.656 -28.844  22.567  1.00  0.00     0.283 C 
HETATM   36  N9  UNL     1       6.533 -28.019  22.795  1.00  0.00    -0.056 NA
HETATM   37  O1  UNL     1       7.547 -30.047  22.543  1.00  0.00    -0.269 OA
ENDBRANCH  15  35
TORSDOF 8
ENDMDL
MODEL 5
REMARK VINA RESULT: -6.954082438      8.446     10.350
REMARK  8 active torsions:
REMARK  status: ('A' for Active; 'I' for Inactive)
REMARK    1  A    between atoms: C2_2  and  C3_3 
REMARK    2  A    between atoms: C3_3  and  C4_4 
REMARK    3  A    between atoms: C4_4  and  N1_5 
REMARK    4  A    between atoms: N1_5  and  C5_7 
REMARK    5  A    between atoms: N3_11  and  N4_13 
REMARK    6  A    between atoms: C8_24  and  C9_25 
REMARK    7  A    between atoms: C10_28  and  C11_29 
REMARK    8  A    between atoms: C11_29  and  N10_30 
ROOT
HETATM    1  C5  UNL     1      14.399 -26.372  22.557  1.00  0.00     0.147 A 
HETATM    2  N2  UNL     1      14.921 -25.370  21.869  1.00  0.00    -0.173 N 
ATOM      3  H2  UNL     1      15.811 -24.989  22.188  1.00  0.00     0.186 HD
HETATM    4  C6  UNL     1      14.353 -24.815  20.772  1.00  0.00     0.699 A 
HETATM    5  N3  UNL     1      14.946 -23.896  20.198  1.00  0.00    -0.138 N 
ATOM      6  H3  UNL     1      15.831 -23.615  20.621  1.00  0.00     0.205 HD
HETATM    7  N5  UNL     1      13.157 -25.334  20.344  1.00  0.00    -0.171 N 
ATOM      8  H5  UNL     1      12.716 -24.934  19.516  1.00  0.00     0.186 HD
HETATM    9  C7  UNL     1      12.545 -26.350  20.977  1.00  0.00     0.168 A 
HETATM   10  N6  UNL     1      11.381 -26.830  20.499  1.00  0.00    -0.260 N 
ATOM     11  H6  UNL     1      10.935 -26.414  19.681  1.00  0.00     0.191 HD
HETATM   12  N7  UNL     1      10.833 -27.864  21.129  1.00  0.00    -0.177 N 
HETATM   13  N8  UNL     1       9.716 -28.501  20.904  1.00  0.00    -0.272 N 
ATOM     14  H8  UNL     1       9.067 -28.291  20.145  1.00  0.00     0.189 HD
HETATM   15  C8  UNL     1       9.544 -29.474  21.816  1.00  0.00     0.126 A 
HETATM   16  C10 UNL     1      10.627 -29.448  22.670  1.00  0.00     0.048 A 
HETATM   17  C12 UNL     1      11.427 -28.427  22.229  1.00  0.00     0.156 A 
HETATM   18  N11 UNL     1      12.574 -27.917  22.677  1.00  0.00    -0.333 N 
ATOM     19  H11 UNL     1      13.006 -28.340  23.498  1.00  0.00     0.168 HD
HETATM   20  C13 UNL     1      13.194 -26.858  22.090  1.00  0.00     0.125 A 
ENDROOT
BRANCH   1  21
HETATM   21  N1  UNL     1      14.974 -26.717  23.619  1.00  0.00    -0.374 N 
ATOM     22  H1  UNL     1      15.423 -27.620  23.462  1.00  0.00     0.161 HD
BRANCH  21  23
HETATM   23  C4  UNL     1      15.228 -26.322  24.938  1.00  0.00     0.121 C 
BRANCH  23  24
HETATM   24  C3  UNL     1      13.863 -26.420  25.698  1.00  0.00     0.019 C 
BRANCH  24  25
HETATM   25  C2  UNL     1      13.726 -27.907  26.070  1.00  0.00    -0.003 C 
HETATM   26  C1  UNL     1      12.529 -28.093  26.947  1.00  0.00     0.005 C 
ENDBRANCH  24  25
ENDBRANCH  23  24
ENDBRANCH  21  23
ENDBRANCH   1  21
BRANCH   5  27
HETATM   27  N4  UNL     1      14.584 -23.203  19.076  1.00  0.00    -0.331 N 
ATOM     28  H42 UNL     1      13.815 -22.549  19.217  1.00  0.00     0.177 HD
ATOM     29  H41 UNL     1      14.973 -23.254  18.135  1.00  0.00     0.177 HD
ENDBRANCH   5  27
BRANCH  16  30
HETATM   30  C11 UNL     1      10.949 -30.395  23.787  1.00  0.00     0.274 C 
BRANCH  30  31
HETATM   31  N10 UNL     1      10.135 -30.056  24.949  1.00  0.00    -0.075 N 
ATOM     32 3H10 UNL     1       9.136 -30.104  24.750  1.00  0.00     0.274 HD
ATOM     33 2H10 UNL     1      10.171 -30.776  25.672  1.00  0.00     0.274 HD
ATOM     34 1H10 UNL     1      10.418 -29.141  25.300  1.00  0.00     0.274 HD
ENDBRANCH  30  31
ENDBRANCH  16  30
BRANCH  15  35
HETATM   35  C9  UNL     1       8.436 -30.454  21.858  1.00  0.00     0.283 C 
HETATM   36  N9  UNL     1       7.529 -30.402  22.938  1.00  0.00    -0.056 NA
HETATM   37  O1  UNL     1       8.308 -31.274  20.979  1.00  0.00    -0.269 OA
ENDBRANCH  15  35
TORSDOF 8
ENDMDL
