MODEL 1
REMARK VINA RESULT: -7.691470558      0.000      0.000
REMARK  8 active torsions:
REMARK  status: ('A' for Active; 'I' for Inactive)
REMARK    1  A    between atoms: C3_7  and  C4_8 
REMARK    2  A    between atoms: C4_8  and  N3_9 
REMARK    3  A    between atoms: N3_9  and  N4_11 
REMARK    4  A    between atoms: N4_11  and  C5_13 
REMARK    5  A    between atoms: C6_16  and  N6_17 
REMARK    6  A    between atoms: C9_24  and  N8_25 
REMARK    7  A    between atoms: C10_30  and  N10_31 
REMARK    8  A    between atoms: N10_31  and  C11_33 
ROOT
HETATM    1  C5  UNL     1      18.629 -29.035  15.285  1.00  0.00     0.153 A 
HETATM    2  N5  UNL     1      18.749 -28.665  14.013  1.00  0.00    -0.174 N 
ATOM      3  H5  UNL     1      18.031 -28.070  13.602  1.00  0.00     0.186 HD
HETATM    4  C6  UNL     1      19.797 -29.054  13.247  1.00  0.00     0.679 A 
HETATM    5  N7  UNL     1      20.792 -29.844  13.724  1.00  0.00    -0.175 N 
ATOM      6  H7  UNL     1      21.569 -30.121  13.124  1.00  0.00     0.186 HD
HETATM    7  C7  UNL     1      20.732 -30.253  15.005  1.00  0.00     0.156 A 
HETATM    8  C8  UNL     1      19.652 -29.850  15.788  1.00  0.00     0.099 A 
HETATM    9  C9  UNL     1      19.550 -30.250  17.100  1.00  0.00     0.132 A 
HETATM   10  N9  UNL     1      20.517 -31.022  17.565  1.00  0.00    -0.176 N 
ATOM     11  H9  UNL     1      20.464 -31.332  18.536  1.00  0.00     0.186 HD
HETATM   12  C10 UNL     1      21.600 -31.432  16.799  1.00  0.00     0.689 A 
HETATM   13  N11 UNL     1      21.712 -31.048  15.514  1.00  0.00    -0.171 N 
HETATM   14  C12 UNL     1      22.849 -31.463  14.704  1.00  0.00     0.177 C 
ENDROOT
BRANCH   1  15
HETATM   15  N4  UNL     1      17.701 -28.717  16.040  1.00  0.00    -0.288 N 
ATOM     16  H4  UNL     1      17.617 -29.386  16.805  1.00  0.00     0.188 HD
BRANCH  15  17
HETATM   17  N3  UNL     1      16.772 -27.755  16.153  1.00  0.00    -0.329 N 
ATOM     18  H3  UNL     1      17.017 -26.862  15.727  1.00  0.00     0.180 HD
BRANCH  17  19
HETATM   19  C4  UNL     1      15.481 -27.798  16.786  1.00  0.00     0.200 C 
BRANCH  19  20
HETATM   20  C3  UNL     1      15.384 -26.796  17.874  1.00  0.00     0.074 A 
HETATM   21  C2  UNL     1      14.493 -26.798  18.924  1.00  0.00     0.095 A 
HETATM   22  C1  UNL     1      13.441 -27.827  19.163  1.00  0.00     0.081 C 
HETATM   23  O1  UNL     1      14.739 -25.733  19.670  1.00  0.00    -0.227 OA
HETATM   24  N1  UNL     1      15.736 -25.084  19.124  1.00  0.00     0.027 NA
HETATM   25  N2  UNL     1      16.149 -25.709  18.029  1.00  0.00    -0.278 N 
ATOM     26  H2  UNL     1      16.910 -25.415  17.418  1.00  0.00     0.184 HD
ENDBRANCH  19  20
ENDBRANCH  17  19
ENDBRANCH  15  17
ENDBRANCH   1  15
BRANCH   4  27
HETATM   27  N6  UNL     1      19.891 -28.683  12.018  1.00  0.00    -0.234 N 
ATOM     28  H62 UNL     1      19.438 -29.278  11.323  1.00  0.00     0.174 HD
ATOM     29  H61 UNL     1      20.396 -27.835  11.764  1.00  0.00     0.174 HD
ENDBRANCH   4  27
BRANCH   9  30
HETATM   30  N8  UNL     1      18.535 -29.869  17.833  1.00  0.00    -0.384 N 
ATOM     31  H82 UNL     1      18.091 -28.957  17.728  1.00  0.00     0.157 HD
ATOM     32  H81 UNL     1      18.150 -30.490  18.545  1.00  0.00     0.157 HD
ENDBRANCH   9  30
BRANCH  12  33
HETATM   33  N10 UNL     1      22.416 -32.161  17.383  1.00  0.00    -0.167 N 
ATOM     34  H10 UNL     1      22.839 -32.819  16.729  1.00  0.00     0.186 HD
BRANCH  33  35
HETATM   35  C11 UNL     1      22.910 -32.344  18.617  1.00  0.00     0.368 C 
HETATM   36  O2  UNL     1      23.664 -31.440  19.134  1.00  0.00    -0.283 OA
ENDBRANCH  33  35
ENDBRANCH  12  33
TORSDOF 8
ENDMDL
MODEL 2
REMARK VINA RESULT: -7.634030023      2.646      6.079
REMARK  8 active torsions:
REMARK  status: ('A' for Active; 'I' for Inactive)
REMARK    1  A    between atoms: C3_7  and  C4_8 
REMARK    2  A    between atoms: C4_8  and  N3_9 
REMARK    3  A    between atoms: N3_9  and  N4_11 
REMARK    4  A    between atoms: N4_11  and  C5_13 
REMARK    5  A    between atoms: C6_16  and  N6_17 
REMARK    6  A    between atoms: C9_24  and  N8_25 
REMARK    7  A    between atoms: C10_30  and  N10_31 
REMARK    8  A    between atoms: N10_31  and  C11_33 
ROOT
HETATM    1  C5  UNL     1      21.171 -32.020  16.591  1.00  0.00     0.153 A 
HETATM    2  N5  UNL     1      22.171 -32.435  15.819  1.00  0.00    -0.174 N 
ATOM      3  H5  UNL     1      22.792 -33.165  16.165  1.00  0.00     0.186 HD
HETATM    4  C6  UNL     1      22.391 -31.917  14.586  1.00  0.00     0.679 A 
HETATM    5  N7  UNL     1      21.607 -30.944  14.057  1.00  0.00    -0.175 N 
ATOM      6  H7  UNL     1      21.796 -30.573  13.126  1.00  0.00     0.186 HD
HETATM    7  C7  UNL     1      20.576 -30.479  14.786  1.00  0.00     0.156 A 
HETATM    8  C8  UNL     1      20.355 -31.016  16.053  1.00  0.00     0.099 A 
HETATM    9  C9  UNL     1      19.315 -30.565  16.832  1.00  0.00     0.132 A 
HETATM   10  N9  UNL     1      18.552 -29.616  16.320  1.00  0.00    -0.176 N 
ATOM     11  H9  UNL     1      17.774 -29.265  16.879  1.00  0.00     0.186 HD
HETATM   12  C10 UNL     1      18.757 -29.071  15.059  1.00  0.00     0.689 A 
HETATM   13  N11 UNL     1      19.772 -29.501  14.287  1.00  0.00    -0.171 N 
HETATM   14  C12 UNL     1      19.991 -28.946  12.958  1.00  0.00     0.177 C 
ENDROOT
BRANCH   1  15
HETATM   15  N4  UNL     1      20.913 -32.448  17.723  1.00  0.00    -0.288 N 
ATOM     16  H4  UNL     1      20.082 -31.991  18.098  1.00  0.00     0.188 HD
BRANCH  15  17
HETATM   17  N3  UNL     1      21.401 -33.334  18.606  1.00  0.00    -0.329 N 
ATOM     18  H3  UNL     1      21.389 -34.306  18.298  1.00  0.00     0.180 HD
BRANCH  17  19
HETATM   19  C4  UNL     1      21.938 -33.115  19.922  1.00  0.00     0.200 C 
BRANCH  19  20
HETATM   20  C3  UNL     1      22.104 -31.667  20.199  1.00  0.00     0.074 A 
HETATM   21  C2  UNL     1      21.298 -30.878  20.990  1.00  0.00     0.095 A 
HETATM   22  C1  UNL     1      20.088 -31.344  21.725  1.00  0.00     0.081 C 
HETATM   23  O1  UNL     1      21.790 -29.650  20.975  1.00  0.00    -0.227 OA
HETATM   24  N1  UNL     1      22.855 -29.654  20.215  1.00  0.00     0.027 NA
HETATM   25  N2  UNL     1      23.070 -30.870  19.729  1.00  0.00    -0.278 N 
ATOM     26  H2  UNL     1      23.832 -31.146  19.111  1.00  0.00     0.184 HD
ENDBRANCH  19  20
ENDBRANCH  17  19
ENDBRANCH  15  17
ENDBRANCH   1  15
BRANCH   4  27
HETATM   27  N6  UNL     1      23.367 -32.335  13.857  1.00  0.00    -0.234 N 
ATOM     28  H62 UNL     1      23.859 -31.633  13.304  1.00  0.00     0.174 HD
ATOM     29  H61 UNL     1      23.623 -33.321  13.842  1.00  0.00     0.174 HD
ENDBRANCH   4  27
BRANCH   9  30
HETATM   30  N8  UNL     1      19.109 -31.072  18.022  1.00  0.00    -0.384 N 
ATOM     31  H82 UNL     1      19.438 -30.621  18.876  1.00  0.00     0.157 HD
ATOM     32  H81 UNL     1      18.603 -31.950  18.130  1.00  0.00     0.157 HD
ENDBRANCH   9  30
BRANCH  12  33
HETATM   33  N10 UNL     1      17.958 -28.182  14.730  1.00  0.00    -0.167 N 
ATOM     34  H10 UNL     1      18.006 -28.015  13.725  1.00  0.00     0.186 HD
BRANCH  33  35
HETATM   35  C11 UNL     1      17.048 -27.375  15.297  1.00  0.00     0.368 C 
HETATM   36  O2  UNL     1      16.237 -27.856  16.169  1.00  0.00    -0.283 OA
ENDBRANCH  33  35
ENDBRANCH  12  33
TORSDOF 8
ENDMDL
MODEL 3
REMARK VINA RESULT: -7.434451019      3.029      4.576
REMARK  8 active torsions:
REMARK  status: ('A' for Active; 'I' for Inactive)
REMARK    1  A    between atoms: C3_7  and  C4_8 
REMARK    2  A    between atoms: C4_8  and  N3_9 
REMARK    3  A    between atoms: N3_9  and  N4_11 
REMARK    4  A    between atoms: N4_11  and  C5_13 
REMARK    5  A    between atoms: C6_16  and  N6_17 
REMARK    6  A    between atoms: C9_24  and  N8_25 
REMARK    7  A    between atoms: C10_30  and  N10_31 
REMARK    8  A    between atoms: N10_31  and  C11_33 
ROOT
HETATM    1  C5  UNL     1      16.378 -28.002  19.984  1.00  0.00     0.153 A 
HETATM    2  N5  UNL     1      15.837 -27.710  18.804  1.00  0.00    -0.174 N 
ATOM      3  H5  UNL     1      14.985 -27.150  18.776  1.00  0.00     0.186 HD
HETATM    4  C6  UNL     1      16.383 -28.134  17.639  1.00  0.00     0.679 A 
HETATM    5  N7  UNL     1      17.515 -28.880  17.595  1.00  0.00    -0.175 N 
ATOM      6  H7  UNL     1      17.903 -29.184  16.702  1.00  0.00     0.186 HD
HETATM    7  C7  UNL     1      18.114 -29.210  18.754  1.00  0.00     0.156 A 
HETATM    8  C8  UNL     1      17.548 -28.772  19.950  1.00  0.00     0.099 A 
HETATM    9  C9  UNL     1      18.126 -29.091  21.156  1.00  0.00     0.132 A 
HETATM   10  N9  UNL     1      19.227 -29.821  21.116  1.00  0.00    -0.176 N 
ATOM     11  H9  UNL     1      19.675 -30.071  21.998  1.00  0.00     0.186 HD
HETATM   12  C10 UNL     1      19.805 -30.265  19.934  1.00  0.00     0.689 A 
HETATM   13  N11 UNL     1      19.249 -29.961  18.747  1.00  0.00    -0.171 N 
HETATM   14  C12 UNL     1      19.851 -30.411  17.499  1.00  0.00     0.177 C 
ENDROOT
BRANCH   1  15
HETATM   15  N4  UNL     1      15.934 -27.649  21.084  1.00  0.00    -0.288 N 
ATOM     16  H4  UNL     1      16.424 -28.129  21.838  1.00  0.00     0.188 HD
BRANCH  15  17
HETATM   17  N3  UNL     1      14.999 -26.824  21.581  1.00  0.00    -0.329 N 
ATOM     18  H3  UNL     1      15.237 -25.832  21.557  1.00  0.00     0.180 HD
BRANCH  17  19
HETATM   19  C4  UNL     1      13.712 -27.130  22.143  1.00  0.00     0.200 C 
BRANCH  19  20
HETATM   20  C3  UNL     1      12.620 -26.802  21.194  1.00  0.00     0.074 A 
HETATM   21  C2  UNL     1      12.155 -27.587  20.163  1.00  0.00     0.095 A 
HETATM   22  C1  UNL     1      12.674 -28.937  19.804  1.00  0.00     0.081 C 
HETATM   23  O1  UNL     1      11.177 -26.930  19.559  1.00  0.00    -0.227 OA
HETATM   24  N1  UNL     1      11.026 -25.785  20.174  1.00  0.00     0.027 NA
HETATM   25  N2  UNL     1      11.891 -25.680  21.174  1.00  0.00    -0.278 N 
ATOM     26  H2  UNL     1      11.984 -24.889  21.810  1.00  0.00     0.184 HD
ENDBRANCH  19  20
ENDBRANCH  17  19
ENDBRANCH  15  17
ENDBRANCH   1  15
BRANCH   4  27
HETATM   27  N6  UNL     1      15.840 -27.838  16.509  1.00  0.00    -0.234 N 
ATOM     28  H62 UNL     1      14.821 -27.873  16.466  1.00  0.00     0.174 HD
ATOM     29  H61 UNL     1      16.412 -27.586  15.703  1.00  0.00     0.174 HD
ENDBRANCH   4  27
BRANCH   9  30
HETATM   30  N8  UNL     1      17.593 -28.678  22.278  1.00  0.00    -0.384 N 
ATOM     31  H82 UNL     1      17.662 -27.712  22.598  1.00  0.00     0.157 HD
ATOM     32  H81 UNL     1      17.080 -29.325  22.877  1.00  0.00     0.157 HD
ENDBRANCH   9  30
BRANCH  12  33
HETATM   33  N10 UNL     1      20.832 -30.946  20.069  1.00  0.00    -0.167 N 
ATOM     34  H10 UNL     1      20.655 -31.915  19.805  1.00  0.00     0.186 HD
BRANCH  33  35
HETATM   35  C11 UNL     1      22.107 -30.792  20.459  1.00  0.00     0.368 C 
HETATM   36  O2  UNL     1      22.537 -29.618  20.756  1.00  0.00    -0.283 OA
ENDBRANCH  33  35
ENDBRANCH  12  33
TORSDOF 8
ENDMDL
MODEL 4
REMARK VINA RESULT: -7.353201370      3.345      8.703
REMARK  8 active torsions:
REMARK  status: ('A' for Active; 'I' for Inactive)
REMARK    1  A    between atoms: C3_7  and  C4_8 
REMARK    2  A    between atoms: C4_8  and  N3_9 
REMARK    3  A    between atoms: N3_9  and  N4_11 
REMARK    4  A    between atoms: N4_11  and  C5_13 
REMARK    5  A    between atoms: C6_16  and  N6_17 
REMARK    6  A    between atoms: C9_24  and  N8_25 
REMARK    7  A    between atoms: C10_30  and  N10_31 
REMARK    8  A    between atoms: N10_31  and  C11_33 
ROOT
HETATM    1  C5  UNL     1      16.209 -27.268  19.229  1.00  0.00     0.153 A 
HETATM    2  N5  UNL     1      17.181 -27.897  19.885  1.00  0.00    -0.174 N 
ATOM      3  H5  UNL     1      18.057 -28.092  19.401  1.00  0.00     0.186 HD
HETATM    4  C6  UNL     1      17.042 -28.288  21.174  1.00  0.00     0.679 A 
HETATM    5  N7  UNL     1      15.907 -28.063  21.883  1.00  0.00    -0.175 N 
ATOM      6  H7  UNL     1      15.831 -28.368  22.854  1.00  0.00     0.186 HD
HETATM    7  C7  UNL     1      14.885 -27.429  21.280  1.00  0.00     0.156 A 
HETATM    8  C8  UNL     1      15.033 -27.030  19.952  1.00  0.00     0.099 A 
HETATM    9  C9  UNL     1      14.011 -26.384  19.298  1.00  0.00     0.132 A 
HETATM   10  N9  UNL     1      12.904 -26.167  19.985  1.00  0.00    -0.176 N 
ATOM     11  H9  UNL     1      12.131 -25.688  19.521  1.00  0.00     0.186 HD
HETATM   12  C10 UNL     1      12.739 -26.556  21.308  1.00  0.00     0.689 A 
HETATM   13  N11 UNL     1      13.731 -27.190  21.961  1.00  0.00    -0.171 N 
HETATM   14  C12 UNL     1      13.575 -27.594  23.351  1.00  0.00     0.177 C 
ENDROOT
BRANCH   1  15
HETATM   15  N4  UNL     1      16.269 -26.884  18.054  1.00  0.00    -0.288 N 
ATOM     16  H4  UNL     1      15.833 -25.968  17.955  1.00  0.00     0.188 HD
BRANCH  15  17
HETATM   17  N3  UNL     1      16.735 -27.314  16.871  1.00  0.00    -0.329 N 
ATOM     18  H3  UNL     1      17.372 -26.674  16.396  1.00  0.00     0.180 HD
BRANCH  17  19
HETATM   19  C4  UNL     1      16.470 -28.543  16.173  1.00  0.00     0.200 C 
BRANCH  19  20
HETATM   20  C3  UNL     1      17.596 -28.906  15.279  1.00  0.00     0.074 A 
HETATM   21  C2  UNL     1      18.042 -30.175  14.984  1.00  0.00     0.095 A 
HETATM   22  C1  UNL     1      17.465 -31.440  15.520  1.00  0.00     0.081 C 
HETATM   23  O1  UNL     1      19.064 -30.064  14.149  1.00  0.00    -0.227 OA
HETATM   24  N1  UNL     1      19.258 -28.790  13.922  1.00  0.00     0.027 NA
HETATM   25  N2  UNL     1      18.379 -28.061  14.598  1.00  0.00    -0.278 N 
ATOM     26  H2  UNL     1      18.311 -27.044  14.597  1.00  0.00     0.184 HD
ENDBRANCH  19  20
ENDBRANCH  17  19
ENDBRANCH  15  17
ENDBRANCH   1  15
BRANCH   4  27
HETATM   27  N6  UNL     1      17.997 -28.896  21.788  1.00  0.00    -0.234 N 
ATOM     28  H62 UNL     1      17.804 -29.846  22.108  1.00  0.00     0.174 HD
ATOM     29  H61 UNL     1      18.896 -28.440  21.940  1.00  0.00     0.174 HD
ENDBRANCH   4  27
BRANCH   9  30
HETATM   30  N8  UNL     1      14.154 -26.009  18.051  1.00  0.00    -0.384 N 
ATOM     31  H82 UNL     1      14.963 -26.270  17.487  1.00  0.00     0.157 HD
ATOM     32  H81 UNL     1      13.443 -25.434  17.599  1.00  0.00     0.157 HD
ENDBRANCH   9  30
BRANCH  12  33
HETATM   33  N10 UNL     1      11.638 -26.285  21.807  1.00  0.00    -0.167 N 
ATOM     34  H10 UNL     1      11.723 -26.169  22.817  1.00  0.00     0.186 HD
BRANCH  33  35
HETATM   35  C11 UNL     1      10.367 -26.098  21.419  1.00  0.00     0.368 C 
HETATM   36  O2  UNL     1      10.127 -25.423  20.352  1.00  0.00    -0.283 OA
ENDBRANCH  33  35
ENDBRANCH  12  33
TORSDOF 8
ENDMDL
MODEL 5
REMARK VINA RESULT: -7.292738828      2.673      7.425
REMARK  8 active torsions:
REMARK  status: ('A' for Active; 'I' for Inactive)
REMARK    1  A    between atoms: C3_7  and  C4_8 
REMARK    2  A    between atoms: C4_8  and  N3_9 
REMARK    3  A    between atoms: N3_9  and  N4_11 
REMARK    4  A    between atoms: N4_11  and  C5_13 
REMARK    5  A    between atoms: C6_16  and  N6_17 
REMARK    6  A    between atoms: C9_24  and  N8_25 
REMARK    7  A    between atoms: C10_30  and  N10_31 
REMARK    8  A    between atoms: N10_31  and  C11_33 
ROOT
HETATM    1  C5  UNL     1      17.687 -29.397  18.194  1.00  0.00     0.153 A 
HETATM    2  N5  UNL     1      17.763 -29.120  16.894  1.00  0.00    -0.174 N 
ATOM      3  H5  UNL     1      18.275 -29.755  16.283  1.00  0.00     0.186 HD
HETATM    4  C6  UNL     1      17.180 -28.021  16.359  1.00  0.00     0.679 A 
HETATM    5  N7  UNL     1      16.480 -27.132  17.107  1.00  0.00    -0.175 N 
ATOM      6  H7  UNL     1      16.051 -26.313  16.676  1.00  0.00     0.186 HD
HETATM    7  C7  UNL     1      16.364 -27.353  18.430  1.00  0.00     0.156 A 
HETATM    8  C8  UNL     1      16.966 -28.486  18.975  1.00  0.00     0.099 A 
HETATM    9  C9  UNL     1      16.875 -28.746  20.323  1.00  0.00     0.132 A 
HETATM   10  N9  UNL     1      16.197 -27.880  21.054  1.00  0.00    -0.176 N 
ATOM     11  H9  UNL     1      16.114 -28.051  22.057  1.00  0.00     0.186 HD
HETATM   12  C10 UNL     1      15.590 -26.747  20.527  1.00  0.00     0.689 A 
HETATM   13  N11 UNL     1      15.671 -26.480  19.210  1.00  0.00    -0.171 N 
HETATM   14  C12 UNL     1      15.030 -25.301  18.644  1.00  0.00     0.177 C 
ENDROOT
BRANCH   1  15
HETATM   15  N4  UNL     1      18.195 -30.381  18.748  1.00  0.00    -0.288 N 
ATOM     16  H4  UNL     1      17.701 -30.596  19.614  1.00  0.00     0.188 HD
BRANCH  15  17
HETATM   17  N3  UNL     1      19.199 -31.249  18.550  1.00  0.00    -0.329 N 
ATOM     18  H3  UNL     1      19.408 -31.457  17.573  1.00  0.00     0.180 HD
BRANCH  17  19
HETATM   19  C4  UNL     1      20.025 -31.928  19.511  1.00  0.00     0.200 C 
BRANCH  19  20
HETATM   20  C3  UNL     1      21.243 -31.140  19.824  1.00  0.00     0.074 A 
HETATM   21  C2  UNL     1      22.447 -31.177  19.157  1.00  0.00     0.095 A 
HETATM   22  C1  UNL     1      22.754 -32.032  17.976  1.00  0.00     0.081 C 
HETATM   23  O1  UNL     1      23.268 -30.325  19.750  1.00  0.00    -0.227 OA
HETATM   24  N1  UNL     1      22.621 -29.773  20.745  1.00  0.00     0.027 NA
HETATM   25  N2  UNL     1      21.385 -30.251  20.813  1.00  0.00    -0.278 N 
ATOM     26  H2  UNL     1      20.674 -29.987  21.495  1.00  0.00     0.184 HD
ENDBRANCH  19  20
ENDBRANCH  17  19
ENDBRANCH  15  17
ENDBRANCH   1  15
BRANCH   4  27
HETATM   27  N6  UNL     1      17.267 -27.774  15.098  1.00  0.00    -0.234 N 
ATOM     28  H62 UNL     1      18.111 -27.296  14.782  1.00  0.00     0.174 HD
ATOM     29  H61 UNL     1      16.523 -28.048  14.458  1.00  0.00     0.174 HD
ENDBRANCH   4  27
BRANCH   9  30
HETATM   30  N8  UNL     1      17.441 -29.811  20.832  1.00  0.00    -0.384 N 
ATOM     31  H82 UNL     1      17.614 -29.918  21.832  1.00  0.00     0.157 HD
ATOM     32  H81 UNL     1      17.731 -30.582  20.230  1.00  0.00     0.157 HD
ENDBRANCH   9  30
BRANCH  12  33
HETATM   33  N10 UNL     1      14.998 -26.032  21.349  1.00  0.00    -0.167 N 
ATOM     34  H10 UNL     1      15.042 -25.053  21.067  1.00  0.00     0.186 HD
BRANCH  33  35
HETATM   35  C11 UNL     1      14.317 -26.158  22.498  1.00  0.00     0.368 C 
HETATM   36  O2  UNL     1      14.883 -26.716  23.508  1.00  0.00    -0.283 OA
ENDBRANCH  33  35
ENDBRANCH  12  33
TORSDOF 8
ENDMDL
