MODEL 1
REMARK VINA RESULT: -7.005365827      0.000      0.000
REMARK  8 active torsions:
REMARK  status: ('A' for Active; 'I' for Inactive)
REMARK    1  A    between atoms: C2_2  and  N1_3 
REMARK    2  A    between atoms: N1_3  and  C3_5 
REMARK    3  A    between atoms: N3_8  and  C4_9 
REMARK    4  A    between atoms: C4_9  and  C5_10 
REMARK    5  A    between atoms: C5_10  and  N4_11 
REMARK    6  A    between atoms: N4_11  and  C6_13 
REMARK    7  A    between atoms: C9_20  and  N7_21 
REMARK    8  A    between atoms: C13_34  and  N11_35 
ROOT
HETATM    1  N4  UNL     1      20.136 -32.446  16.860  1.00  0.00    -0.373 N 
ATOM      2  H4  UNL     1      20.596 -31.636  17.276  1.00  0.00     0.161 HD
ENDROOT
BRANCH   1   3
HETATM    3  C5  UNL     1      18.719 -32.532  17.023  1.00  0.00     0.143 C 
BRANCH   3   4
HETATM    4  C4  UNL     1      18.018 -32.262  15.695  1.00  0.00     0.173 C 
BRANCH   4   5
HETATM    5  N3  UNL     1      17.765 -30.844  15.550  1.00  0.00    -0.239 N 
HETATM    6  N2  UNL     1      16.861 -30.206  16.258  1.00  0.00    -0.276 N 
HETATM    7  C3  UNL     1      16.618 -28.866  16.123  1.00  0.00     0.160 A 
ATOM      8  H2  UNL     1      16.314 -30.733  16.938  1.00  0.00     0.189 HD
HETATM    9  C13 UNL     1      17.379 -28.200  15.195  1.00  0.00     0.149 A 
HETATM   10  N10 UNL     1      18.322 -28.841  14.450  1.00  0.00    -0.290 N 
HETATM   11  C12 UNL     1      18.485 -30.156  14.656  1.00  0.00     0.342 A 
ATOM     12  H10 UNL     1      18.884 -28.339  13.762  1.00  0.00     0.172 HD
HETATM   13  O1  UNL     1      19.350 -30.766  13.979  1.00  0.00    -0.245 OA
BRANCH   7  14
HETATM   14  N1  UNL     1      15.621 -28.254  16.930  1.00  0.00    -0.372 N 
ATOM     15  H1  UNL     1      14.663 -28.189  16.586  1.00  0.00     0.161 HD
BRANCH  14  16
HETATM   16  C2  UNL     1      15.956 -27.720  18.244  1.00  0.00     0.117 C 
HETATM   17  C1  UNL     1      15.694 -26.232  18.183  1.00  0.00     0.026 C 
ENDBRANCH  14  16
ENDBRANCH   7  14
BRANCH   9  18
HETATM   18  N11 UNL     1      17.229 -26.955  14.997  1.00  0.00    -0.382 N 
ATOM     19 2H11 UNL     1      16.504 -26.671  14.338  1.00  0.00     0.157 HD
ATOM     20 1H11 UNL     1      17.811 -26.271  15.482  1.00  0.00     0.157 HD
ENDBRANCH   9  18
ENDBRANCH   4   5
ENDBRANCH   3   4
ENDBRANCH   1   3
BRANCH   1  21
HETATM   21  C6  UNL     1      20.880 -33.274  16.250  1.00  0.00     0.131 A 
HETATM   22  N5  UNL     1      20.824 -34.613  16.382  1.00  0.00    -0.337 N 
HETATM   23  C7  UNL     1      21.640 -35.452  15.709  1.00  0.00     0.182 A 
ATOM     24  H5  UNL     1      20.134 -35.012  17.020  1.00  0.00     0.168 HD
HETATM   25  N6  UNL     1      22.550 -34.928  14.867  1.00  0.00    -0.347 N 
HETATM   26  C8  UNL     1      22.661 -33.592  14.684  1.00  0.00     0.108 A 
ATOM     27  H6  UNL     1      23.171 -35.554  14.354  1.00  0.00     0.167 HD
HETATM   28  C9  UNL     1      23.592 -33.036  13.822  1.00  0.00     0.129 A 
HETATM   29  C11 UNL     1      21.828 -32.735  15.372  1.00  0.00     0.108 A 
HETATM   30  N8  UNL     1      23.695 -31.703  13.646  1.00  0.00    -0.337 N 
HETATM   31  C10 UNL     1      22.875 -30.896  14.326  1.00  0.00     0.182 A 
ATOM     32  H8  UNL     1      24.388 -31.318  13.004  1.00  0.00     0.168 HD
HETATM   33  N9  UNL     1      21.964 -31.424  15.169  1.00  0.00    -0.347 N 
ATOM     34  H9  UNL     1      21.349 -30.789  15.677  1.00  0.00     0.167 HD
BRANCH  28  35
HETATM   35  N7  UNL     1      24.360 -33.860  13.189  1.00  0.00    -0.384 N 
ATOM     36  H72 UNL     1      24.895 -33.566  12.372  1.00  0.00     0.157 HD
ATOM     37  H71 UNL     1      24.403 -34.814  13.548  1.00  0.00     0.157 HD
ENDBRANCH  28  35
ENDBRANCH   1  21
TORSDOF 8
ENDMDL
MODEL 2
REMARK VINA RESULT: -6.948624167      3.471      5.376
REMARK  8 active torsions:
REMARK  status: ('A' for Active; 'I' for Inactive)
REMARK    1  A    between atoms: C2_2  and  N1_3 
REMARK    2  A    between atoms: N1_3  and  C3_5 
REMARK    3  A    between atoms: N3_8  and  C4_9 
REMARK    4  A    between atoms: C4_9  and  C5_10 
REMARK    5  A    between atoms: C5_10  and  N4_11 
REMARK    6  A    between atoms: N4_11  and  C6_13 
REMARK    7  A    between atoms: C9_20  and  N7_21 
REMARK    8  A    between atoms: C13_34  and  N11_35 
ROOT
HETATM    1  N4  UNL     1      17.837 -28.888  17.838  1.00  0.00    -0.373 N 
ATOM      2  H4  UNL     1      17.651 -28.179  17.128  1.00  0.00     0.161 HD
ENDROOT
BRANCH   1   3
HETATM    3  C5  UNL     1      17.421 -28.587  19.171  1.00  0.00     0.143 C 
BRANCH   3   4
HETATM    4  C4  UNL     1      15.898 -28.585  19.261  1.00  0.00     0.173 C 
BRANCH   4   5
HETATM    5  N3  UNL     1      15.425 -27.262  19.612  1.00  0.00    -0.239 N 
HETATM    6  N2  UNL     1      15.255 -26.874  20.855  1.00  0.00    -0.276 N 
HETATM    7  C3  UNL     1      14.808 -25.625  21.191  1.00  0.00     0.160 A 
ATOM      8  H2  UNL     1      15.466 -27.533  21.605  1.00  0.00     0.189 HD
HETATM    9  C13 UNL     1      14.539 -24.774  20.149  1.00  0.00     0.149 A 
HETATM   10  N10 UNL     1      14.708 -25.155  18.852  1.00  0.00    -0.290 N 
HETATM   11  C12 UNL     1      15.151 -26.401  18.626  1.00  0.00     0.342 A 
ATOM     12  H10 UNL     1      14.506 -24.517  18.081  1.00  0.00     0.172 HD
HETATM   13  O1  UNL     1      15.315 -26.772  17.436  1.00  0.00    -0.245 OA
BRANCH   7  14
HETATM   14  N1  UNL     1      14.652 -25.287  22.563  1.00  0.00    -0.372 N 
ATOM     15  H1  UNL     1      14.630 -24.307  22.843  1.00  0.00     0.161 HD
BRANCH  14  16
HETATM   16  C2  UNL     1      14.522 -26.331  23.572  1.00  0.00     0.117 C 
HETATM   17  C1  UNL     1      14.756 -25.667  24.910  1.00  0.00     0.026 C 
ENDBRANCH  14  16
ENDBRANCH   7  14
BRANCH   9  18
HETATM   18  N11 UNL     1      14.120 -23.594  20.358  1.00  0.00    -0.382 N 
ATOM     19 2H11 UNL     1      14.627 -23.033  21.043  1.00  0.00     0.157 HD
ATOM     20 1H11 UNL     1      13.309 -23.227  19.858  1.00  0.00     0.157 HD
ENDBRANCH   9  18
ENDBRANCH   4   5
ENDBRANCH   3   4
ENDBRANCH   1   3
BRANCH   1  21
HETATM   21  C6  UNL     1      18.414 -29.949  17.446  1.00  0.00     0.131 A 
HETATM   22  N5  UNL     1      18.558 -31.071  18.178  1.00  0.00    -0.337 N 
HETATM   23  C7  UNL     1      19.182 -32.174  17.713  1.00  0.00     0.182 A 
ATOM     24  H5  UNL     1      18.179 -31.087  19.125  1.00  0.00     0.168 HD
HETATM   25  N6  UNL     1      19.682 -32.155  16.463  1.00  0.00    -0.347 N 
HETATM   26  C8  UNL     1      19.572 -31.062  15.673  1.00  0.00     0.108 A 
ATOM     27  H6  UNL     1      20.155 -32.984  16.104  1.00  0.00     0.167 HD
HETATM   28  C9  UNL     1      20.081 -31.024  14.385  1.00  0.00     0.129 A 
HETATM   29  C11 UNL     1      18.935 -29.935  16.147  1.00  0.00     0.108 A 
HETATM   30  N8  UNL     1      19.966 -29.931  13.604  1.00  0.00    -0.337 N 
HETATM   31  C10 UNL     1      19.345 -28.852  14.089  1.00  0.00     0.182 A 
ATOM     32  H8  UNL     1      20.348 -29.928  12.658  1.00  0.00     0.168 HD
HETATM   33  N9  UNL     1      18.845 -28.875  15.342  1.00  0.00    -0.347 N 
ATOM     34  H9  UNL     1      18.374 -28.040  15.691  1.00  0.00     0.167 HD
BRANCH  28  35
HETATM   35  N7  UNL     1      20.672 -32.093  13.964  1.00  0.00    -0.384 N 
ATOM     36  H72 UNL     1      20.542 -32.991  14.430  1.00  0.00     0.157 HD
ATOM     37  H71 UNL     1      21.273 -31.992  13.146  1.00  0.00     0.157 HD
ENDBRANCH  28  35
ENDBRANCH   1  21
TORSDOF 8
ENDMDL
MODEL 3
REMARK VINA RESULT: -6.881819616      2.845      8.655
REMARK  8 active torsions:
REMARK  status: ('A' for Active; 'I' for Inactive)
REMARK    1  A    between atoms: C2_2  and  N1_3 
REMARK    2  A    between atoms: N1_3  and  C3_5 
REMARK    3  A    between atoms: N3_8  and  C4_9 
REMARK    4  A    between atoms: C4_9  and  C5_10 
REMARK    5  A    between atoms: C5_10  and  N4_11 
REMARK    6  A    between atoms: N4_11  and  C6_13 
REMARK    7  A    between atoms: C9_20  and  N7_21 
REMARK    8  A    between atoms: C13_34  and  N11_35 
ROOT
HETATM    1  N4  UNL     1      16.674 -28.829  19.401  1.00  0.00    -0.373 N 
ATOM      2  H4  UNL     1      16.010 -29.395  19.930  1.00  0.00     0.161 HD
ENDROOT
BRANCH   1   3
HETATM    3  C5  UNL     1      17.915 -29.450  19.057  1.00  0.00     0.143 C 
BRANCH   3   4
HETATM    4  C4  UNL     1      17.693 -30.507  17.979  1.00  0.00     0.173 C 
BRANCH   4   5
HETATM    5  N3  UNL     1      18.229 -30.044  16.717  1.00  0.00    -0.239 N 
HETATM    6  N2  UNL     1      19.501 -30.147  16.402  1.00  0.00    -0.276 N 
HETATM    7  C3  UNL     1      20.011 -29.710  15.210  1.00  0.00     0.160 A 
ATOM      8  H2  UNL     1      20.137 -30.571  17.078  1.00  0.00     0.189 HD
HETATM    9  C13 UNL     1      19.117 -29.148  14.335  1.00  0.00     0.149 A 
HETATM   10  N10 UNL     1      17.794 -29.031  14.639  1.00  0.00    -0.290 N 
HETATM   11  C12 UNL     1      17.391 -29.489  15.834  1.00  0.00     0.342 A 
ATOM     12  H10 UNL     1      17.135 -28.611  13.984  1.00  0.00     0.172 HD
HETATM   13  O1  UNL     1      16.175 -29.391  16.133  1.00  0.00    -0.245 OA
BRANCH   7  14
HETATM   14  N1  UNL     1      21.401 -29.860  14.951  1.00  0.00    -0.372 N 
ATOM     15  H1  UNL     1      21.941 -29.064  14.614  1.00  0.00     0.161 HD
BRANCH  14  16
HETATM   16  C2  UNL     1      22.059 -31.143  15.165  1.00  0.00     0.117 C 
HETATM   17  C1  UNL     1      23.196 -31.213  14.170  1.00  0.00     0.026 C 
ENDBRANCH  14  16
ENDBRANCH   7  14
BRANCH   9  18
HETATM   18  N11 UNL     1      19.494 -28.713  13.203  1.00  0.00    -0.382 N 
ATOM     19 2H11 UNL     1      20.239 -29.225  12.731  1.00  0.00     0.157 HD
ATOM     20 1H11 UNL     1      19.064 -27.885  12.788  1.00  0.00     0.157 HD
ENDBRANCH   9  18
ENDBRANCH   4   5
ENDBRANCH   3   4
ENDBRANCH   1   3
BRANCH   1  21
HETATM   21  C6  UNL     1      16.315 -27.645  19.117  1.00  0.00     0.131 A 
HETATM   22  N5  UNL     1      16.525 -27.033  17.935  1.00  0.00    -0.337 N 
HETATM   23  C7  UNL     1      16.122 -25.769  17.683  1.00  0.00     0.182 A 
ATOM     24  H5  UNL     1      17.010 -27.546  17.199  1.00  0.00     0.168 HD
HETATM   25  N6  UNL     1      15.481 -25.090  18.653  1.00  0.00    -0.347 N 
HETATM   26  C8  UNL     1      15.236 -25.644  19.863  1.00  0.00     0.108 A 
ATOM     27  H6  UNL     1      15.172 -24.135  18.471  1.00  0.00     0.167 HD
HETATM   28  C9  UNL     1      14.579 -24.961  20.872  1.00  0.00     0.129 A 
HETATM   29  C11 UNL     1      15.648 -26.935  20.121  1.00  0.00     0.108 A 
HETATM   30  N8  UNL     1      14.338 -25.521  22.075  1.00  0.00    -0.337 N 
HETATM   31  C10 UNL     1      14.749 -26.772  22.298  1.00  0.00     0.182 A 
ATOM     32  H8  UNL     1      13.851 -24.997  22.802  1.00  0.00     0.168 HD
HETATM   33  N9  UNL     1      15.391 -27.451  21.324  1.00  0.00    -0.347 N 
ATOM     34  H9  UNL     1      15.695 -28.405  21.517  1.00  0.00     0.167 HD
BRANCH  28  35
HETATM   35  N7  UNL     1      14.202 -23.754  20.605  1.00  0.00    -0.384 N 
ATOM     36  H72 UNL     1      14.745 -22.947  20.915  1.00  0.00     0.157 HD
ATOM     37  H71 UNL     1      13.339 -23.650  20.071  1.00  0.00     0.157 HD
ENDBRANCH  28  35
ENDBRANCH   1  21
TORSDOF 8
ENDMDL
MODEL 4
REMARK VINA RESULT: -6.864937296      3.525      5.780
REMARK  8 active torsions:
REMARK  status: ('A' for Active; 'I' for Inactive)
REMARK    1  A    between atoms: C2_2  and  N1_3 
REMARK    2  A    between atoms: N1_3  and  C3_5 
REMARK    3  A    between atoms: N3_8  and  C4_9 
REMARK    4  A    between atoms: C4_9  and  C5_10 
REMARK    5  A    between atoms: C5_10  and  N4_11 
REMARK    6  A    between atoms: N4_11  and  C6_13 
REMARK    7  A    between atoms: C9_20  and  N7_21 
REMARK    8  A    between atoms: C13_34  and  N11_35 
ROOT
HETATM    1  N4  UNL     1      17.507 -29.788  18.378  1.00  0.00    -0.373 N 
ATOM      2  H4  UNL     1      17.438 -30.777  18.617  1.00  0.00     0.161 HD
ENDROOT
BRANCH   1   3
HETATM    3  C5  UNL     1      17.090 -28.856  19.378  1.00  0.00     0.143 C 
BRANCH   3   4
HETATM    4  C4  UNL     1      15.570 -28.714  19.365  1.00  0.00     0.173 C 
BRANCH   4   5
HETATM    5  N3  UNL     1      15.198 -27.358  19.708  1.00  0.00    -0.239 N 
HETATM    6  N2  UNL     1      15.088 -26.941  20.949  1.00  0.00    -0.276 N 
HETATM    7  C3  UNL     1      14.736 -25.660  21.276  1.00  0.00     0.160 A 
ATOM      8  H2  UNL     1      15.275 -27.602  21.702  1.00  0.00     0.189 HD
HETATM    9  C13 UNL     1      14.497 -24.808  20.227  1.00  0.00     0.149 A 
HETATM   10  N10 UNL     1      14.604 -25.218  18.933  1.00  0.00    -0.290 N 
HETATM   11  C12 UNL     1      14.955 -26.494  18.715  1.00  0.00     0.342 A 
ATOM     12  H10 UNL     1      14.424 -24.579  18.158  1.00  0.00     0.172 HD
HETATM   13  O1  UNL     1      15.061 -26.892  17.528  1.00  0.00    -0.245 OA
BRANCH   7  14
HETATM   14  N1  UNL     1      14.641 -25.292  22.645  1.00  0.00    -0.372 N 
ATOM     15  H1  UNL     1      14.602 -24.307  22.903  1.00  0.00     0.161 HD
BRANCH  14  16
HETATM   16  C2  UNL     1      14.599 -26.314  23.684  1.00  0.00     0.117 C 
HETATM   17  C1  UNL     1      14.777 -25.595  25.003  1.00  0.00     0.026 C 
ENDBRANCH  14  16
ENDBRANCH   7  14
BRANCH   9  18
HETATM   18  N11 UNL     1      14.164 -23.599  20.428  1.00  0.00    -0.382 N 
ATOM     19 2H11 UNL     1      14.734 -23.060  21.080  1.00  0.00     0.157 HD
ATOM     20 1H11 UNL     1      13.359 -23.189  19.954  1.00  0.00     0.157 HD
ENDBRANCH   9  18
ENDBRANCH   4   5
ENDBRANCH   3   4
ENDBRANCH   1   3
BRANCH   1  21
HETATM   21  C6  UNL     1      17.953 -29.511  17.223  1.00  0.00     0.131 A 
HETATM   22  N5  UNL     1      17.296 -28.801  16.285  1.00  0.00    -0.337 N 
HETATM   23  C7  UNL     1      17.817 -28.534  15.069  1.00  0.00     0.182 A 
ATOM     24  H5  UNL     1      16.363 -28.451  16.504  1.00  0.00     0.168 HD
HETATM   25  N6  UNL     1      19.048 -28.994  14.779  1.00  0.00    -0.347 N 
HETATM   26  C8  UNL     1      19.766 -29.712  15.674  1.00  0.00     0.108 A 
ATOM     27  H6  UNL     1      19.450 -28.796  13.862  1.00  0.00     0.167 HD
HETATM   28  C9  UNL     1      21.033 -30.193  15.392  1.00  0.00     0.129 A 
HETATM   29  C11 UNL     1      19.234 -29.986  16.916  1.00  0.00     0.108 A 
HETATM   30  N8  UNL     1      21.741 -30.908  16.290  1.00  0.00    -0.337 N 
HETATM   31  C10 UNL     1      21.201 -31.159  17.486  1.00  0.00     0.182 A 
ATOM     32  H8  UNL     1      22.674 -31.250  16.059  1.00  0.00     0.168 HD
HETATM   33  N9  UNL     1      19.967 -30.697  17.774  1.00  0.00    -0.347 N 
ATOM     34  H9  UNL     1      19.575 -30.900  18.693  1.00  0.00     0.167 HD
BRANCH  28  35
HETATM   35  N7  UNL     1      21.509 -29.922  14.222  1.00  0.00    -0.384 N 
ATOM     36  H72 UNL     1      21.218 -30.445  13.395  1.00  0.00     0.157 HD
ATOM     37  H71 UNL     1      22.189 -29.163  14.168  1.00  0.00     0.157 HD
ENDBRANCH  28  35
ENDBRANCH   1  21
TORSDOF 8
ENDMDL
MODEL 5
REMARK VINA RESULT: -6.845189712      3.081      6.961
REMARK  8 active torsions:
REMARK  status: ('A' for Active; 'I' for Inactive)
REMARK    1  A    between atoms: C2_2  and  N1_3 
REMARK    2  A    between atoms: N1_3  and  C3_5 
REMARK    3  A    between atoms: N3_8  and  C4_9 
REMARK    4  A    between atoms: C4_9  and  C5_10 
REMARK    5  A    between atoms: C5_10  and  N4_11 
REMARK    6  A    between atoms: N4_11  and  C6_13 
REMARK    7  A    between atoms: C9_20  and  N7_21 
REMARK    8  A    between atoms: C13_34  and  N11_35 
ROOT
HETATM    1  N4  UNL     1      20.199 -29.994  16.332  1.00  0.00    -0.373 N 
ATOM      2  H4  UNL     1      20.887 -29.296  16.047  1.00  0.00     0.161 HD
ENDROOT
BRANCH   1   3
HETATM    3  C5  UNL     1      19.723 -30.879  15.317  1.00  0.00     0.143 C 
BRANCH   3   4
HETATM    4  C4  UNL     1      20.618 -30.796  14.083  1.00  0.00     0.173 C 
BRANCH   4   5
HETATM    5  N3  UNL     1      21.369 -32.024  13.934  1.00  0.00    -0.239 N 
HETATM    6  N2  UNL     1      20.949 -33.031  13.203  1.00  0.00    -0.276 N 
HETATM    7  C3  UNL     1      21.656 -34.194  13.060  1.00  0.00     0.160 A 
ATOM      8  H2  UNL     1      20.056 -32.942  12.719  1.00  0.00     0.189 HD
HETATM    9  C13 UNL     1      22.852 -34.265  13.729  1.00  0.00     0.149 A 
HETATM   10  N10 UNL     1      23.307 -33.234  14.494  1.00  0.00    -0.290 N 
HETATM   11  C12 UNL     1      22.541 -32.135  14.570  1.00  0.00     0.342 A 
ATOM     12  H10 UNL     1      24.197 -33.294  14.989  1.00  0.00     0.172 HD
HETATM   13  O1  UNL     1      22.943 -31.172  15.270  1.00  0.00    -0.245 OA
BRANCH   7  14
HETATM   14  N1  UNL     1      21.128 -35.235  12.249  1.00  0.00    -0.372 N 
ATOM     15  H1  UNL     1      21.631 -35.527  11.411  1.00  0.00     0.161 HD
BRANCH  14  16
HETATM   16  C2  UNL     1      19.873 -35.886  12.604  1.00  0.00     0.117 C 
HETATM   17  C1  UNL     1      20.120 -36.613  13.907  1.00  0.00     0.026 C 
ENDBRANCH  14  16
ENDBRANCH   7  14
BRANCH   9  18
HETATM   18  N11 UNL     1      23.581 -35.303  13.659  1.00  0.00    -0.382 N 
ATOM     19 2H11 UNL     1      23.127 -36.203  13.817  1.00  0.00     0.157 HD
ATOM     20 1H11 UNL     1      24.578 -35.233  13.453  1.00  0.00     0.157 HD
ENDBRANCH   9  18
ENDBRANCH   4   5
ENDBRANCH   3   4
ENDBRANCH   1   3
BRANCH   1  21
HETATM   21  C6  UNL     1      19.854 -29.987  17.554  1.00  0.00     0.131 A 
HETATM   22  N5  UNL     1      18.694 -29.494  18.031  1.00  0.00    -0.337 N 
HETATM   23  C7  UNL     1      18.375 -29.511  19.342  1.00  0.00     0.182 A 
ATOM     24  H5  UNL     1      18.028 -29.091  17.371  1.00  0.00     0.168 HD
HETATM   25  N6  UNL     1      19.252 -30.044  20.213  1.00  0.00    -0.347 N 
HETATM   26  C8  UNL     1      20.435 -30.557  19.804  1.00  0.00     0.108 A 
ATOM     27  H6  UNL     1      19.019 -30.061  21.206  1.00  0.00     0.167 HD
HETATM   28  C9  UNL     1      21.349 -31.109  20.686  1.00  0.00     0.129 A 
HETATM   29  C11 UNL     1      20.762 -30.540  18.464  1.00  0.00     0.108 A 
HETATM   30  N8  UNL     1      22.525 -31.619  20.269  1.00  0.00    -0.337 N 
HETATM   31  C10 UNL     1      22.817 -31.589  18.965  1.00  0.00     0.182 A 
ATOM     32  H8  UNL     1      23.181 -32.022  20.938  1.00  0.00     0.168 HD
HETATM   33  N9  UNL     1      21.936 -31.054  18.094  1.00  0.00    -0.347 N 
ATOM     34  H9  UNL     1      22.180 -31.042  17.104  1.00  0.00     0.167 HD
BRANCH  28  35
HETATM   35  N7  UNL     1      21.018 -31.114  21.935  1.00  0.00    -0.384 N 
ATOM     36  H72 UNL     1      20.532 -31.907  22.353  1.00  0.00     0.157 HD
ATOM     37  H71 UNL     1      21.268 -30.287  22.478  1.00  0.00     0.157 HD
ENDBRANCH  28  35
ENDBRANCH   1  21
TORSDOF 8
ENDMDL
