MODEL 1
REMARK VINA RESULT: -6.973608385      0.000      0.000
REMARK  5 active torsions:
REMARK  status: ('A' for Active; 'I' for Inactive)
REMARK    1  A    between atoms: N1_1  and  N2_4 
REMARK    2  A    between atoms: N2_4  and  C1_6 
REMARK    3  A    between atoms: C2_12  and  N5_13 
REMARK    4  A    between atoms: N5_13  and  C3_15 
REMARK    5  A    between atoms: N7_20  and  C6_21 
ROOT
HETATM    1  C3  UNL     1     -23.441 -18.294 -20.454  1.00  0.00     0.125 A 
HETATM    2  C4  UNL     1     -24.148 -17.218 -19.966  1.00  0.00     0.068 A 
HETATM    3  C5  UNL     1     -24.209 -16.299 -20.987  1.00  0.00     0.111 A 
HETATM    4  N6  UNL     1     -23.550 -16.851 -22.020  1.00  0.00    -0.308 N 
ATOM      5  H6  UNL     1     -23.427 -16.398 -22.925  1.00  0.00     0.186 HD
HETATM    6  N7  UNL     1     -23.083 -18.040 -21.726  1.00  0.00    -0.270 N 
ENDROOT
BRANCH   1   7
HETATM    7  N5  UNL     1     -23.153 -19.365 -19.835  1.00  0.00    -0.323 N 
ATOM      8  H5  UNL     1     -23.170 -20.233 -20.371  1.00  0.00     0.169 HD
BRANCH   7   9
HETATM    9  C2  UNL     1     -22.814 -19.459 -18.473  1.00  0.00     0.176 A 
HETATM   10  C1  UNL     1     -21.579 -19.868 -18.015  1.00  0.00     0.188 A 
HETATM   11  N3  UNL     1     -21.645 -19.826 -16.687  1.00  0.00    -0.221 N 
HETATM   12  O1  UNL     1     -22.834 -19.419 -16.356  1.00  0.00    -0.153 OA
ATOM     13  H3  UNL     1     -20.893 -20.069 -16.041  1.00  0.00     0.198 HD
HETATM   14  N4  UNL     1     -23.570 -19.186 -17.377  1.00  0.00    -0.222 N 
ATOM     15  H4  UNL     1     -24.537 -18.859 -17.370  1.00  0.00     0.198 HD
BRANCH  10  16
HETATM   16  N2  UNL     1     -20.574 -20.219 -18.776  1.00  0.00    -0.287 N 
ATOM     17  H2  UNL     1     -20.091 -21.098 -18.588  1.00  0.00     0.188 HD
BRANCH  16  18
HETATM   18  N1  UNL     1     -20.152 -19.431 -19.825  1.00  0.00    -0.343 N 
ATOM     19  H12 UNL     1     -20.742 -18.648 -20.107  1.00  0.00     0.176 HD
ATOM     20  H11 UNL     1     -19.277 -19.615 -20.314  1.00  0.00     0.176 HD
ENDBRANCH  16  18
ENDBRANCH  10  16
ENDBRANCH   7   9
ENDBRANCH   1   7
BRANCH   6  21
HETATM   21  C6  UNL     1     -22.334 -18.916 -22.579  1.00  0.00     0.135 C 
HETATM   22  C7  UNL     1     -23.141 -19.787 -23.460  1.00  0.00     0.030 C 
HETATM   23  C8  UNL     1     -22.535 -20.042 -24.813  1.00  0.00     0.029 C 
HETATM   24  C9  UNL     1     -21.063 -20.010 -24.864  1.00  0.00     0.232 C 
HETATM   25  N8  UNL     1     -20.408 -19.163 -23.934  1.00  0.00    -0.073 N 
HETATM   26  C10 UNL     1     -21.345 -18.146 -23.451  1.00  0.00     0.259 C 
ATOM     27  H82 UNL     1     -19.982 -19.687 -23.170  1.00  0.00     0.277 HD
ATOM     28  H81 UNL     1     -19.559 -18.751 -24.321  1.00  0.00     0.277 HD
ENDBRANCH   6  21
TORSDOF 5
ENDMDL
MODEL 2
REMARK VINA RESULT: -6.849480261      2.775      5.201
REMARK  5 active torsions:
REMARK  status: ('A' for Active; 'I' for Inactive)
REMARK    1  A    between atoms: N1_1  and  N2_4 
REMARK    2  A    between atoms: N2_4  and  C1_6 
REMARK    3  A    between atoms: C2_12  and  N5_13 
REMARK    4  A    between atoms: N5_13  and  C3_15 
REMARK    5  A    between atoms: N7_20  and  C6_21 
ROOT
HETATM    1  C3  UNL     1     -22.627 -17.959 -20.983  1.00  0.00     0.125 A 
HETATM    2  C4  UNL     1     -22.317 -18.573 -19.789  1.00  0.00     0.068 A 
HETATM    3  C5  UNL     1     -23.210 -18.090 -18.862  1.00  0.00     0.111 A 
HETATM    4  N6  UNL     1     -23.998 -17.226 -19.524  1.00  0.00    -0.308 N 
ATOM      5  H6  UNL     1     -24.762 -16.706 -19.092  1.00  0.00     0.186 HD
HETATM    6  N7  UNL     1     -23.669 -17.131 -20.789  1.00  0.00    -0.270 N 
ENDROOT
BRANCH   1   7
HETATM    7  N5  UNL     1     -22.045 -18.121 -22.100  1.00  0.00    -0.323 N 
ATOM      8  H5  UNL     1     -21.299 -17.466 -22.336  1.00  0.00     0.169 HD
BRANCH   7   9
HETATM    9  C2  UNL     1     -22.341 -19.124 -23.040  1.00  0.00     0.176 A 
HETATM   10  C1  UNL     1     -21.632 -19.316 -24.207  1.00  0.00     0.188 A 
HETATM   11  N3  UNL     1     -22.206 -20.347 -24.823  1.00  0.00    -0.221 N 
HETATM   12  O1  UNL     1     -23.195 -20.755 -24.086  1.00  0.00    -0.153 OA
ATOM     13  H3  UNL     1     -21.920 -20.746 -25.717  1.00  0.00     0.198 HD
HETATM   14  N4  UNL     1     -23.321 -20.066 -23.014  1.00  0.00    -0.222 N 
ATOM     15  H4  UNL     1     -24.020 -20.197 -22.284  1.00  0.00     0.198 HD
BRANCH  10  16
HETATM   16  N2  UNL     1     -20.605 -18.601 -24.589  1.00  0.00    -0.287 N 
ATOM     17  H2  UNL     1     -20.523 -17.637 -24.265  1.00  0.00     0.188 HD
BRANCH  16  18
HETATM   18  N1  UNL     1     -19.632 -19.116 -25.416  1.00  0.00    -0.343 N 
ATOM     19  H12 UNL     1     -18.706 -19.288 -25.022  1.00  0.00     0.176 HD
ATOM     20  H11 UNL     1     -19.818 -19.324 -26.397  1.00  0.00     0.176 HD
ENDBRANCH  16  18
ENDBRANCH  10  16
ENDBRANCH   7   9
ENDBRANCH   1   7
BRANCH   6  21
HETATM   21  C6  UNL     1     -24.289 -16.311 -21.789  1.00  0.00     0.135 C 
HETATM   22  C7  UNL     1     -25.659 -15.853 -21.475  1.00  0.00     0.030 C 
HETATM   23  C8  UNL     1     -25.986 -14.471 -21.972  1.00  0.00     0.029 C 
HETATM   24  C9  UNL     1     -25.268 -14.048 -23.188  1.00  0.00     0.232 C 
HETATM   25  N8  UNL     1     -23.975 -14.597 -23.392  1.00  0.00    -0.073 N 
HETATM   26  C10 UNL     1     -23.442 -15.084 -22.118  1.00  0.00     0.259 C 
ATOM     27  H82 UNL     1     -23.974 -15.319 -24.112  1.00  0.00     0.277 HD
ATOM     28  H81 UNL     1     -23.344 -13.936 -23.846  1.00  0.00     0.277 HD
ENDBRANCH   6  21
TORSDOF 5
ENDMDL
MODEL 3
REMARK VINA RESULT: -6.717617175      2.702      5.024
REMARK  5 active torsions:
REMARK  status: ('A' for Active; 'I' for Inactive)
REMARK    1  A    between atoms: N1_1  and  N2_4 
REMARK    2  A    between atoms: N2_4  and  C1_6 
REMARK    3  A    between atoms: C2_12  and  N5_13 
REMARK    4  A    between atoms: N5_13  and  C3_15 
REMARK    5  A    between atoms: N7_20  and  C6_21 
ROOT
HETATM    1  C3  UNL     1     -22.624 -18.157 -20.759  1.00  0.00     0.125 A 
HETATM    2  C4  UNL     1     -22.669 -18.950 -19.634  1.00  0.00     0.068 A 
HETATM    3  C5  UNL     1     -23.558 -18.352 -18.773  1.00  0.00     0.111 A 
HETATM    4  N6  UNL     1     -23.998 -17.250 -19.404  1.00  0.00    -0.308 N 
ATOM      5  H6  UNL     1     -24.674 -16.597 -19.007  1.00  0.00     0.186 HD
HETATM    6  N7  UNL     1     -23.454 -17.113 -20.589  1.00  0.00    -0.270 N 
ENDROOT
BRANCH   1   7
HETATM    7  N5  UNL     1     -21.924 -18.347 -21.802  1.00  0.00    -0.323 N 
ATOM      8  H5  UNL     1     -21.060 -17.812 -21.888  1.00  0.00     0.169 HD
BRANCH   7   9
HETATM    9  C2  UNL     1     -22.238 -19.232 -22.849  1.00  0.00     0.176 A 
HETATM   10  C1  UNL     1     -21.546 -19.288 -24.041  1.00  0.00     0.188 A 
HETATM   11  N3  UNL     1     -22.135 -20.236 -24.765  1.00  0.00    -0.221 N 
HETATM   12  O1  UNL     1     -23.116 -20.725 -24.068  1.00  0.00    -0.153 OA
ATOM     13  H3  UNL     1     -21.863 -20.529 -25.705  1.00  0.00     0.198 HD
HETATM   14  N4  UNL     1     -23.223 -20.166 -22.921  1.00  0.00    -0.222 N 
ATOM     15  H4  UNL     1     -23.914 -20.379 -22.201  1.00  0.00     0.198 HD
BRANCH  10  16
HETATM   16  N2  UNL     1     -20.521 -18.537 -24.350  1.00  0.00    -0.287 N 
ATOM     17  H2  UNL     1     -20.441 -17.609 -23.933  1.00  0.00     0.188 HD
BRANCH  16  18
HETATM   18  N1  UNL     1     -19.546 -18.967 -25.223  1.00  0.00    -0.343 N 
ATOM     19  H12 UNL     1     -19.289 -19.954 -25.210  1.00  0.00     0.176 HD
ATOM     20  H11 UNL     1     -19.086 -18.326 -25.870  1.00  0.00     0.176 HD
ENDBRANCH  16  18
ENDBRANCH  10  16
ENDBRANCH   7   9
ENDBRANCH   1   7
BRANCH   6  21
HETATM   21  C6  UNL     1     -23.687 -16.061 -21.536  1.00  0.00     0.135 C 
HETATM   22  C7  UNL     1     -23.557 -16.446 -22.957  1.00  0.00     0.030 C 
HETATM   23  C8  UNL     1     -24.516 -15.751 -23.884  1.00  0.00     0.029 C 
HETATM   24  C9  UNL     1     -24.939 -14.403 -23.464  1.00  0.00     0.232 C 
HETATM   25  N8  UNL     1     -24.980 -14.150 -22.069  1.00  0.00    -0.073 N 
HETATM   26  C10 UNL     1     -25.059 -15.419 -21.342  1.00  0.00     0.259 C 
ATOM     27  H82 UNL     1     -24.196 -13.577 -21.759  1.00  0.00     0.277 HD
ATOM     28  H81 UNL     1     -25.736 -13.514 -21.815  1.00  0.00     0.277 HD
ENDBRANCH   6  21
TORSDOF 5
ENDMDL
MODEL 4
REMARK VINA RESULT: -6.668995455      2.698      5.086
REMARK  5 active torsions:
REMARK  status: ('A' for Active; 'I' for Inactive)
REMARK    1  A    between atoms: N1_1  and  N2_4 
REMARK    2  A    between atoms: N2_4  and  C1_6 
REMARK    3  A    between atoms: C2_12  and  N5_13 
REMARK    4  A    between atoms: N5_13  and  C3_15 
REMARK    5  A    between atoms: N7_20  and  C6_21 
ROOT
HETATM    1  C3  UNL     1     -23.417 -18.441 -20.769  1.00  0.00     0.125 A 
HETATM    2  C4  UNL     1     -23.029 -18.863 -19.517  1.00  0.00     0.068 A 
HETATM    3  C5  UNL     1     -23.409 -17.875 -18.640  1.00  0.00     0.111 A 
HETATM    4  N6  UNL     1     -23.994 -16.923 -19.387  1.00  0.00    -0.308 N 
ATOM      5  H6  UNL     1     -24.380 -16.058 -19.009  1.00  0.00     0.186 HD
HETATM    6  N7  UNL     1     -24.010 -17.238 -20.659  1.00  0.00    -0.270 N 
ENDROOT
BRANCH   1   7
HETATM    7  N5  UNL     1     -23.255 -19.056 -21.868  1.00  0.00    -0.323 N 
ATOM      8  H5  UNL     1     -24.042 -19.604 -22.216  1.00  0.00     0.169 HD
BRANCH   7   9
HETATM    9  C2  UNL     1     -22.084 -19.048 -22.648  1.00  0.00     0.176 A 
HETATM   10  C1  UNL     1     -21.947 -19.735 -23.836  1.00  0.00     0.188 A 
HETATM   11  N3  UNL     1     -20.714 -19.483 -24.268  1.00  0.00    -0.221 N 
HETATM   12  O1  UNL     1     -20.139 -18.699 -23.407  1.00  0.00    -0.153 OA
ATOM     13  H3  UNL     1     -20.295 -19.843 -25.126  1.00  0.00     0.198 HD
HETATM   14  N4  UNL     1     -20.906 -18.408 -22.424  1.00  0.00    -0.222 N 
ATOM     15  H4  UNL     1     -20.678 -17.812 -21.629  1.00  0.00     0.198 HD
BRANCH  10  16
HETATM   16  N2  UNL     1     -22.875 -20.474 -24.387  1.00  0.00    -0.287 N 
ATOM     17  H2  UNL     1     -23.208 -21.304 -23.895  1.00  0.00     0.188 HD
BRANCH  16  18
HETATM   18  N1  UNL     1     -23.415 -20.161 -25.616  1.00  0.00    -0.343 N 
ATOM     19  H12 UNL     1     -23.101 -19.306 -26.076  1.00  0.00     0.176 HD
ATOM     20  H11 UNL     1     -24.109 -20.758 -26.063  1.00  0.00     0.176 HD
ENDBRANCH  16  18
ENDBRANCH  10  16
ENDBRANCH   7   9
ENDBRANCH   1   7
BRANCH   6  21
HETATM   21  C6  UNL     1     -24.550 -16.465 -21.740  1.00  0.00     0.135 C 
HETATM   22  C7  UNL     1     -25.652 -15.549 -21.377  1.00  0.00     0.030 C 
HETATM   23  C8  UNL     1     -25.664 -14.252 -22.138  1.00  0.00     0.029 C 
HETATM   24  C9  UNL     1     -25.098 -14.310 -23.498  1.00  0.00     0.232 C 
HETATM   25  N8  UNL     1     -24.074 -15.266 -23.725  1.00  0.00    -0.073 N 
HETATM   26  C10 UNL     1     -23.470 -15.651 -22.448  1.00  0.00     0.259 C 
ATOM     27  H82 UNL     1     -24.410 -16.072 -24.251  1.00  0.00     0.277 HD
ATOM     28  H81 UNL     1     -23.379 -14.933 -24.394  1.00  0.00     0.277 HD
ENDBRANCH   6  21
TORSDOF 5
ENDMDL
MODEL 5
REMARK VINA RESULT: -6.664007187      2.664      5.603
REMARK  5 active torsions:
REMARK  status: ('A' for Active; 'I' for Inactive)
REMARK    1  A    between atoms: N1_1  and  N2_4 
REMARK    2  A    between atoms: N2_4  and  C1_6 
REMARK    3  A    between atoms: C2_12  and  N5_13 
REMARK    4  A    between atoms: N5_13  and  C3_15 
REMARK    5  A    between atoms: N7_20  and  C6_21 
ROOT
HETATM    1  C3  UNL     1     -23.096 -17.518 -22.737  1.00  0.00     0.125 A 
HETATM    2  C4  UNL     1     -23.654 -16.685 -23.681  1.00  0.00     0.068 A 
HETATM    3  C5  UNL     1     -24.231 -15.646 -22.989  1.00  0.00     0.111 A 
HETATM    4  N6  UNL     1     -24.001 -15.897 -21.689  1.00  0.00    -0.308 N 
ATOM      5  H6  UNL     1     -24.315 -15.294 -20.928  1.00  0.00     0.186 HD
HETATM    6  N7  UNL     1     -23.327 -17.007 -21.514  1.00  0.00    -0.270 N 
ENDROOT
BRANCH   1   7
HETATM    7  N5  UNL     1     -22.464 -18.599 -22.949  1.00  0.00    -0.323 N 
ATOM      8  H5  UNL     1     -22.737 -19.414 -22.399  1.00  0.00     0.169 HD
BRANCH   7   9
HETATM    9  C2  UNL     1     -21.420 -18.770 -23.875  1.00  0.00     0.176 A 
HETATM   10  C1  UNL     1     -21.517 -19.553 -25.007  1.00  0.00     0.188 A 
HETATM   11  N3  UNL     1     -20.339 -19.463 -25.620  1.00  0.00    -0.221 N 
HETATM   12  O1  UNL     1     -19.577 -18.683 -24.914  1.00  0.00    -0.153 OA
ATOM     13  H3  UNL     1     -20.081 -19.926 -26.492  1.00  0.00     0.198 HD
HETATM   14  N4  UNL     1     -20.167 -18.242 -23.867  1.00  0.00    -0.222 N 
ATOM     15  H4  UNL     1     -19.774 -17.617 -23.164  1.00  0.00     0.198 HD
BRANCH  10  16
HETATM   16  N2  UNL     1     -22.579 -20.229 -25.363  1.00  0.00    -0.287 N 
ATOM     17  H2  UNL     1     -22.863 -20.228 -26.343  1.00  0.00     0.188 HD
BRANCH  16  18
HETATM   18  N1  UNL     1     -23.322 -20.942 -24.449  1.00  0.00    -0.343 N 
ATOM     19  H12 UNL     1     -22.927 -21.805 -24.075  1.00  0.00     0.176 HD
ATOM     20  H11 UNL     1     -24.244 -20.628 -24.147  1.00  0.00     0.176 HD
ENDBRANCH  16  18
ENDBRANCH  10  16
ENDBRANCH   7   9
ENDBRANCH   1   7
BRANCH   6  21
HETATM   21  C6  UNL     1     -22.906 -17.582 -20.270  1.00  0.00     0.135 C 
HETATM   22  C7  UNL     1     -23.641 -17.117 -19.074  1.00  0.00     0.030 C 
HETATM   23  C8  UNL     1     -23.847 -18.168 -18.018  1.00  0.00     0.029 C 
HETATM   24  C9  UNL     1     -22.810 -19.213 -17.953  1.00  0.00     0.232 C 
HETATM   25  N8  UNL     1     -22.149 -19.536 -19.167  1.00  0.00    -0.073 N 
HETATM   26  C10 UNL     1     -22.969 -19.108 -20.301  1.00  0.00     0.259 C 
ATOM     27  H82 UNL     1     -21.206 -19.149 -19.205  1.00  0.00     0.277 HD
ATOM     28  H81 UNL     1     -21.904 -20.525 -19.220  1.00  0.00     0.277 HD
ENDBRANCH   6  21
TORSDOF 5
ENDMDL
