MODEL 1
REMARK VINA RESULT: -5.997685656      0.000      0.000
REMARK  4 active torsions:
REMARK  status: ('A' for Active; 'I' for Inactive)
REMARK    1  A    between atoms: N1_1  and  C1_4 
REMARK    2  A    between atoms: C5_8  and  N2_9 
REMARK    3  A    between atoms: C9_21  and  N6_22 
REMARK    4  A    between atoms: N6_22  and  N7_24 
ROOT
HETATM    1  C1  UNL     1     -23.447 -18.062 -19.129  1.00  0.00     0.152 A 
HETATM    2  C2  UNL     1     -23.739 -17.235 -20.221  1.00  0.00     0.026 A 
HETATM    3  C3  UNL     1     -24.858 -16.442 -20.270  1.00  0.00     0.019 A 
HETATM    4  C4  UNL     1     -25.100 -15.635 -21.385  1.00  0.00     0.037 A 
HETATM    5  C5  UNL     1     -24.235 -15.609 -22.458  1.00  0.00     0.103 A 
HETATM    6  C6  UNL     1     -23.112 -16.407 -22.403  1.00  0.00     0.054 A 
HETATM    7  C7  UNL     1     -22.880 -17.210 -21.283  1.00  0.00     0.052 A 
HETATM    8  C8  UNL     1     -21.772 -18.018 -21.193  1.00  0.00     0.294 A 
HETATM    9  O3  UNL     1     -20.971 -18.002 -22.172  1.00  0.00    -0.264 OA
HETATM   10  N3  UNL     1     -21.530 -18.800 -20.124  1.00  0.00    -0.118 N 
HETATM   11  N4  UNL     1     -20.532 -19.633 -19.859  1.00  0.00    -0.203 N 
ATOM     12  H4  UNL     1     -19.746 -19.810 -20.485  1.00  0.00     0.211 HD
HETATM   13  N5  UNL     1     -20.690 -20.198 -18.689  1.00  0.00    -0.113 N 
ATOM     14  H5  UNL     1     -20.065 -20.876 -18.253  1.00  0.00     0.207 HD
HETATM   15  C9  UNL     1     -21.853 -19.707 -18.163  1.00  0.00     0.737 A 
HETATM   16  N8  UNL     1     -22.347 -18.846 -19.075  1.00  0.00    -0.041 N 
ENDROOT
BRANCH  15  17
HETATM   17  N6  UNL     1     -22.356 -20.016 -17.029  1.00  0.00    -0.135 N 
ATOM     18  H6  UNL     1     -23.265 -20.478 -17.008  1.00  0.00     0.205 HD
BRANCH  17  19
HETATM   19  N7  UNL     1     -21.724 -19.753 -15.837  1.00  0.00    -0.331 N 
ATOM     20  H72 UNL     1     -20.993 -19.042 -15.838  1.00  0.00     0.177 HD
ATOM     21  H71 UNL     1     -21.958 -20.235 -14.969  1.00  0.00     0.177 HD
ENDBRANCH  17  19
ENDBRANCH  15  17
BRANCH   1  22
HETATM   22  N1  UNL     1     -24.300 -18.025 -18.183  1.00  0.00    -0.383 N 
ATOM     23  H12 UNL     1     -24.786 -17.167 -17.925  1.00  0.00     0.157 HD
ATOM     24  H11 UNL     1     -24.454 -18.914 -17.707  1.00  0.00     0.157 HD
ENDBRANCH   1  22
BRANCH   5  25
HETATM   25  N2  UNL     1     -24.503 -14.772 -23.591  1.00  0.00    -0.116 N 
HETATM   26  O1  UNL     1     -23.619 -14.175 -24.200  1.00  0.00    -0.532 OA
HETATM   27  O2  UNL     1     -25.793 -14.630 -24.015  1.00  0.00    -0.532 OA
ENDBRANCH   5  25
TORSDOF 4
ENDMDL
MODEL 2
REMARK VINA RESULT: -5.510107832      4.468      6.563
REMARK  4 active torsions:
REMARK  status: ('A' for Active; 'I' for Inactive)
REMARK    1  A    between atoms: N1_1  and  C1_4 
REMARK    2  A    between atoms: C5_8  and  N2_9 
REMARK    3  A    between atoms: C9_21  and  N6_22 
REMARK    4  A    between atoms: N6_22  and  N7_24 
ROOT
HETATM    1  C1  UNL     1     -20.716 -18.585 -24.004  1.00  0.00     0.152 A 
HETATM    2  C2  UNL     1     -21.321 -18.595 -22.741  1.00  0.00     0.026 A 
HETATM    3  C3  UNL     1     -20.843 -17.860 -21.685  1.00  0.00     0.019 A 
HETATM    4  C4  UNL     1     -21.487 -17.907 -20.446  1.00  0.00     0.037 A 
HETATM    5  C5  UNL     1     -22.608 -18.684 -20.245  1.00  0.00     0.103 A 
HETATM    6  C6  UNL     1     -23.084 -19.421 -21.309  1.00  0.00     0.054 A 
HETATM    7  C7  UNL     1     -22.432 -19.366 -22.544  1.00  0.00     0.052 A 
HETATM    8  C8  UNL     1     -22.877 -20.086 -23.627  1.00  0.00     0.294 A 
HETATM    9  O3  UNL     1     -23.905 -20.803 -23.453  1.00  0.00    -0.264 OA
HETATM   10  N3  UNL     1     -22.263 -20.047 -24.824  1.00  0.00    -0.118 N 
HETATM   11  N4  UNL     1     -22.540 -20.662 -25.967  1.00  0.00    -0.203 N 
ATOM     12  H4  UNL     1     -23.322 -21.302 -26.104  1.00  0.00     0.211 HD
HETATM   13  N5  UNL     1     -21.676 -20.337 -26.896  1.00  0.00    -0.113 N 
ATOM     14  H5  UNL     1     -21.666 -20.671 -27.859  1.00  0.00     0.207 HD
HETATM   15  C9  UNL     1     -20.789 -19.465 -26.328  1.00  0.00     0.737 A 
HETATM   16  N8  UNL     1     -21.180 -19.308 -25.047  1.00  0.00    -0.041 N 
ENDROOT
BRANCH  15  17
HETATM   17  N6  UNL     1     -19.792 -18.918 -26.912  1.00  0.00    -0.135 N 
ATOM     18  H6  UNL     1     -19.155 -18.347 -26.357  1.00  0.00     0.205 HD
BRANCH  17  19
HETATM   19  N7  UNL     1     -19.543 -19.067 -28.255  1.00  0.00    -0.331 N 
ATOM     20  H72 UNL     1     -20.279 -18.791 -28.906  1.00  0.00     0.177 HD
ATOM     21  H71 UNL     1     -18.663 -19.435 -28.617  1.00  0.00     0.177 HD
ENDBRANCH  17  19
ENDBRANCH  15  17
BRANCH   1  22
HETATM   22  N1  UNL     1     -19.685 -17.840 -24.101  1.00  0.00    -0.383 N 
ATOM     23  H12 UNL     1     -19.321 -17.313 -23.308  1.00  0.00     0.157 HD
ATOM     24  H11 UNL     1     -19.259 -17.813 -25.027  1.00  0.00     0.157 HD
ENDBRANCH   1  22
BRANCH   5  25
HETATM   25  N2  UNL     1     -23.252 -18.717 -18.965  1.00  0.00    -0.116 N 
HETATM   26  O1  UNL     1     -23.996 -17.821 -18.573  1.00  0.00    -0.532 OA
HETATM   27  O2  UNL     1     -23.034 -19.785 -18.143  1.00  0.00    -0.532 OA
ENDBRANCH   5  25
TORSDOF 4
ENDMDL
MODEL 3
REMARK VINA RESULT: -5.139284891      2.989      4.535
REMARK  4 active torsions:
REMARK  status: ('A' for Active; 'I' for Inactive)
REMARK    1  A    between atoms: N1_1  and  C1_4 
REMARK    2  A    between atoms: C5_8  and  N2_9 
REMARK    3  A    between atoms: C9_21  and  N6_22 
REMARK    4  A    between atoms: N6_22  and  N7_24 
ROOT
HETATM    1  C1  UNL     1     -21.898 -18.660 -20.847  1.00  0.00     0.152 A 
HETATM    2  C2  UNL     1     -21.574 -18.836 -22.199  1.00  0.00     0.026 A 
HETATM    3  C3  UNL     1     -20.559 -19.661 -22.615  1.00  0.00     0.019 A 
HETATM    4  C4  UNL     1     -20.280 -19.800 -23.977  1.00  0.00     0.037 A 
HETATM    5  C5  UNL     1     -21.004 -19.122 -24.935  1.00  0.00     0.103 A 
HETATM    6  C6  UNL     1     -22.023 -18.296 -24.511  1.00  0.00     0.054 A 
HETATM    7  C7  UNL     1     -22.294 -18.165 -23.146  1.00  0.00     0.052 A 
HETATM    8  C8  UNL     1     -23.301 -17.350 -22.687  1.00  0.00     0.294 A 
HETATM    9  O3  UNL     1     -23.972 -16.724 -23.557  1.00  0.00    -0.264 OA
HETATM   10  N3  UNL     1     -23.577 -17.209 -21.377  1.00  0.00    -0.118 N 
HETATM   11  N4  UNL     1     -24.495 -16.482 -20.751  1.00  0.00    -0.203 N 
ATOM     12  H4  UNL     1     -25.172 -15.880 -21.219  1.00  0.00     0.211 HD
HETATM   13  N5  UNL     1     -24.416 -16.641 -19.454  1.00  0.00    -0.113 N 
ATOM     14  H5  UNL     1     -25.005 -16.196 -18.751  1.00  0.00     0.207 HD
HETATM   15  C9  UNL     1     -23.392 -17.518 -19.222  1.00  0.00     0.737 A 
HETATM   16  N8  UNL     1     -22.896 -17.850 -20.430  1.00  0.00    -0.041 N 
ENDROOT
BRANCH  15  17
HETATM   17  N6  UNL     1     -22.999 -17.930 -18.078  1.00  0.00    -0.135 N 
ATOM     18  H6  UNL     1     -22.371 -17.338 -17.535  1.00  0.00     0.205 HD
BRANCH  17  19
HETATM   19  N7  UNL     1     -23.387 -19.137 -17.547  1.00  0.00    -0.331 N 
ATOM     20  H72 UNL     1     -22.662 -19.727 -17.137  1.00  0.00     0.177 HD
ATOM     21  H71 UNL     1     -24.355 -19.457 -17.548  1.00  0.00     0.177 HD
ENDBRANCH  17  19
ENDBRANCH  15  17
BRANCH   1  22
HETATM   22  N1  UNL     1     -21.178 -19.323 -20.031  1.00  0.00    -0.383 N 
ATOM     23  H12 UNL     1     -21.424 -19.418 -19.045  1.00  0.00     0.157 HD
ATOM     24  H11 UNL     1     -20.344 -19.746 -20.437  1.00  0.00     0.157 HD
ENDBRANCH   1  22
BRANCH   5  25
HETATM   25  N2  UNL     1     -20.699 -19.281 -26.326  1.00  0.00    -0.116 N 
HETATM   26  O1  UNL     1     -21.526 -19.674 -27.147  1.00  0.00    -0.532 OA
HETATM   27  O2  UNL     1     -19.441 -18.985 -26.765  1.00  0.00    -0.532 OA
ENDBRANCH   5  25
TORSDOF 4
ENDMDL
MODEL 4
REMARK VINA RESULT: -4.458886751      1.482      1.792
REMARK  4 active torsions:
REMARK  status: ('A' for Active; 'I' for Inactive)
REMARK    1  A    between atoms: N1_1  and  C1_4 
REMARK    2  A    between atoms: C5_8  and  N2_9 
REMARK    3  A    between atoms: C9_21  and  N6_22 
REMARK    4  A    between atoms: N6_22  and  N7_24 
ROOT
HETATM    1  C1  UNL     1     -23.473 -17.447 -20.136  1.00  0.00     0.152 A 
HETATM    2  C2  UNL     1     -24.133 -16.548 -20.984  1.00  0.00     0.026 A 
HETATM    3  C3  UNL     1     -25.134 -15.717 -20.548  1.00  0.00     0.019 A 
HETATM    4  C4  UNL     1     -25.758 -14.839 -21.438  1.00  0.00     0.037 A 
HETATM    5  C5  UNL     1     -25.394 -14.780 -22.767  1.00  0.00     0.103 A 
HETATM    6  C6  UNL     1     -24.388 -15.616 -23.199  1.00  0.00     0.054 A 
HETATM    7  C7  UNL     1     -23.770 -16.490 -22.300  1.00  0.00     0.052 A 
HETATM    8  C8  UNL     1     -22.764 -17.339 -22.696  1.00  0.00     0.294 A 
HETATM    9  O3  UNL     1     -22.422 -17.292 -23.913  1.00  0.00    -0.264 OA
HETATM   10  N3  UNL     1     -22.157 -18.188 -21.846  1.00  0.00    -0.118 N 
HETATM   11  N4  UNL     1     -21.183 -19.069 -22.038  1.00  0.00    -0.203 N 
ATOM     12  H4  UNL     1     -20.723 -19.235 -22.934  1.00  0.00     0.211 HD
HETATM   13  N5  UNL     1     -20.889 -19.695 -20.927  1.00  0.00    -0.113 N 
ATOM     14  H5  UNL     1     -20.179 -20.417 -20.806  1.00  0.00     0.207 HD
HETATM   15  C9  UNL     1     -21.717 -19.196 -19.959  1.00  0.00     0.737 A 
HETATM   16  N8  UNL     1     -22.487 -18.268 -20.559  1.00  0.00    -0.041 N 
ENDROOT
BRANCH  15  17
HETATM   17  N6  UNL     1     -21.739 -19.554 -18.732  1.00  0.00    -0.135 N 
ATOM     18  H6  UNL     1     -22.346 -19.047 -18.087  1.00  0.00     0.205 HD
BRANCH  17  19
HETATM   19  N7  UNL     1     -20.981 -20.591 -18.243  1.00  0.00    -0.331 N 
ATOM     20  H72 UNL     1     -21.333 -21.539 -18.381  1.00  0.00     0.177 HD
ATOM     21  H71 UNL     1     -20.096 -20.448 -17.758  1.00  0.00     0.177 HD
ENDBRANCH  17  19
ENDBRANCH  15  17
BRANCH   1  22
HETATM   22  N1  UNL     1     -23.872 -17.436 -18.925  1.00  0.00    -0.383 N 
ATOM     23  H12 UNL     1     -23.388 -17.951 -18.190  1.00  0.00     0.157 HD
ATOM     24  H11 UNL     1     -24.708 -16.878 -18.752  1.00  0.00     0.157 HD
ENDBRANCH   1  22
BRANCH   5  25
HETATM   25  N2  UNL     1     -26.048 -13.871 -23.661  1.00  0.00    -0.116 N 
HETATM   26  O1  UNL     1     -25.435 -13.054 -24.344  1.00  0.00    -0.532 OA
HETATM   27  O2  UNL     1     -27.409 -13.910 -23.763  1.00  0.00    -0.532 OA
ENDBRANCH   5  25
TORSDOF 4
ENDMDL
MODEL 5
REMARK VINA RESULT: -3.855721170      1.544      2.619
REMARK  4 active torsions:
REMARK  status: ('A' for Active; 'I' for Inactive)
REMARK    1  A    between atoms: N1_1  and  C1_4 
REMARK    2  A    between atoms: C5_8  and  N2_9 
REMARK    3  A    between atoms: C9_21  and  N6_22 
REMARK    4  A    between atoms: N6_22  and  N7_24 
ROOT
HETATM    1  C1  UNL     1     -22.373 -18.634 -20.696  1.00  0.00     0.152 A 
HETATM    2  C2  UNL     1     -23.073 -17.638 -21.389  1.00  0.00     0.026 A 
HETATM    3  C3  UNL     1     -22.944 -17.448 -22.742  1.00  0.00     0.019 A 
HETATM    4  C4  UNL     1     -23.668 -16.438 -23.382  1.00  0.00     0.037 A 
HETATM    5  C5  UNL     1     -24.522 -15.610 -22.686  1.00  0.00     0.103 A 
HETATM    6  C6  UNL     1     -24.648 -15.806 -21.327  1.00  0.00     0.054 A 
HETATM    7  C7  UNL     1     -23.919 -16.819 -20.697  1.00  0.00     0.052 A 
HETATM    8  C8  UNL     1     -24.019 -17.043 -19.344  1.00  0.00     0.294 A 
HETATM    9  O3  UNL     1     -24.800 -16.288 -18.695  1.00  0.00    -0.264 OA
HETATM   10  N3  UNL     1     -23.326 -18.012 -18.718  1.00  0.00    -0.118 N 
HETATM   11  N4  UNL     1     -23.290 -18.375 -17.442  1.00  0.00    -0.203 N 
ATOM     12  H4  UNL     1     -23.830 -17.929 -16.700  1.00  0.00     0.211 HD
HETATM   13  N5  UNL     1     -22.472 -19.381 -17.263  1.00  0.00    -0.113 N 
ATOM     14  H5  UNL     1     -22.266 -19.846 -16.378  1.00  0.00     0.207 HD
HETATM   15  C9  UNL     1     -21.946 -19.690 -18.487  1.00  0.00     0.737 A 
HETATM   16  N8  UNL     1     -22.494 -18.826 -19.364  1.00  0.00    -0.041 N 
ENDROOT
BRANCH  15  17
HETATM   17  N6  UNL     1     -21.103 -20.619 -18.730  1.00  0.00    -0.135 N 
ATOM     18  H6  UNL     1     -21.436 -21.582 -18.774  1.00  0.00     0.205 HD
BRANCH  17  19
HETATM   19  N7  UNL     1     -19.766 -20.376 -18.936  1.00  0.00    -0.331 N 
ATOM     20  H72 UNL     1     -19.151 -20.398 -18.121  1.00  0.00     0.177 HD
ATOM     21  H71 UNL     1     -19.374 -20.180 -19.857  1.00  0.00     0.177 HD
ENDBRANCH  17  19
ENDBRANCH  15  17
BRANCH   1  22
HETATM   22  N1  UNL     1     -21.606 -19.353 -21.417  1.00  0.00    -0.383 N 
ATOM     23  H12 UNL     1     -21.034 -18.956 -22.162  1.00  0.00     0.157 HD
ATOM     24  H11 UNL     1     -21.610 -20.347 -21.191  1.00  0.00     0.157 HD
ENDBRANCH   1  22
BRANCH   5  25
HETATM   25  N2  UNL     1     -25.254 -14.582 -23.365  1.00  0.00    -0.116 N 
HETATM   26  O1  UNL     1     -24.815 -13.994 -24.351  1.00  0.00    -0.532 OA
HETATM   27  O2  UNL     1     -26.491 -14.236 -22.902  1.00  0.00    -0.532 OA
ENDBRANCH   5  25
TORSDOF 4
ENDMDL
