MODEL 1
REMARK VINA RESULT: -9.337954869      0.000      0.000
REMARK  11 active torsions:
REMARK  status: ('A' for Active; 'I' for Inactive)
REMARK    1  A    between atoms: N1_2  and  C2_3 
REMARK    2  A    between atoms: N1_2  and  C23_35 
REMARK    3  A    between atoms: C2_3  and  C3_4 
REMARK    4  A    between atoms: C3_4  and  C4_5 
REMARK    5  A    between atoms: C4_5  and  N2_6 
REMARK    6  A    between atoms: N2_6  and  C5_8 
REMARK    7  A    between atoms: C5_8  and  C6_9 
REMARK    8  A    between atoms: C6_9  and  C7_10 
REMARK    9  A    between atoms: C7_10  and  N3_11 
REMARK   10  A    between atoms: C8_12  and  O1_13 
REMARK   11  A    between atoms: C11_17  and  O2_18 
ROOT
HETATM    1  N3  UNL     1      38.427  39.132  11.062  1.00  0.00    -0.307 N 
HETATM    2  C8  UNL     1      39.047  40.141  10.458  1.00  0.00     0.161 A 
HETATM    3  C9  UNL     1      38.404  41.319  10.771  1.00  0.00     0.098 A 
HETATM    4  C10 UNL     1      37.348  40.968  11.601  1.00  0.00     0.062 A 
HETATM    5  C11 UNL     1      37.379  39.581  11.776  1.00  0.00     0.156 A 
HETATM    6  C12 UNL     1      36.574  42.150  11.951  1.00  0.00     0.147 A 
HETATM    7  C13 UNL     1      35.226  42.009  11.199  1.00  0.00     0.070 C 
HETATM    8  N4  UNL     1      36.294  42.378  13.334  1.00  0.00    -0.321 N 
HETATM    9  C14 UNL     1      36.477  41.377  14.331  1.00  0.00     0.156 C 
HETATM   10  C15 UNL     1      35.803  43.688  13.722  1.00  0.00     0.258 C 
HETATM   11  O3  UNL     1      35.142  43.832  14.774  1.00  0.00    -0.267 OA
HETATM   12  C16 UNL     1      36.097  44.833  12.860  1.00  0.00     0.059 A 
HETATM   13  C17 UNL     1      35.643  46.080  13.210  1.00  0.00     0.019 A 
HETATM   14  C18 UNL     1      35.970  47.109  12.335  1.00  0.00     0.001 A 
HETATM   15  C19 UNL     1      36.700  46.929  11.185  1.00  0.00     0.002 A 
HETATM   16  C20 UNL     1      37.138  45.638  10.875  1.00  0.00     0.031 A 
HETATM   17  C21 UNL     1      36.838  44.605  11.707  1.00  0.00     0.056 A 
HETATM   18  N5  UNL     1      37.295  43.271  11.388  1.00  0.00    -0.281 N 
HETATM   19  C22 UNL     1      38.366  42.769  10.634  1.00  0.00     0.266 A 
HETATM   20  O4  UNL     1      39.176  43.448   9.942  1.00  0.00    -0.267 OA
ENDROOT
BRANCH   1  21
HETATM   21  C7  UNL     1      38.804  37.751  10.966  1.00  0.00     0.138 C 
BRANCH  21  22
HETATM   22  C6  UNL     1      37.559  36.852  11.011  1.00  0.00     0.065 C 
BRANCH  22  23
HETATM   23  C5  UNL     1      37.799  35.846  12.107  1.00  0.00     0.061 C 
BRANCH  23  24
HETATM   24  N2  UNL     1      36.696  35.519  12.911  1.00  0.00    -0.382 N 
ATOM     25  H2  UNL     1      36.697  35.769  13.899  1.00  0.00     0.163 HD
BRANCH  24  26
HETATM   26  C4  UNL     1      35.586  34.848  12.360  1.00  0.00     0.062 C 
BRANCH  26  27
HETATM   27  C3  UNL     1      35.373  33.494  13.020  1.00  0.00     0.074 C 
BRANCH  27  28
HETATM   28  C2  UNL     1      36.387  33.230  14.086  1.00  0.00     0.279 C 
BRANCH  28  29
HETATM   29  N1  UNL     1      36.912  31.879  14.105  1.00  0.00     0.108 N 
HETATM   30  C1  UNL     1      36.102  31.182  13.076  1.00  0.00     0.312 C 
BRANCH  29  31
HETATM   31  C23 UNL     1      38.284  31.799  13.670  1.00  0.00     0.227 C 
HETATM   32  C24 UNL     1      38.978  30.512  13.921  1.00  0.00     0.067 C 
HETATM   33  C25 UNL     1      39.047  32.850  14.503  1.00  0.00     0.067 C 
HETATM   34 CL1  UNL     1      38.547  32.292  11.990  1.00  0.00    -0.086 Cl
ENDBRANCH  29  31
ENDBRANCH  28  29
ENDBRANCH  27  28
ENDBRANCH  26  27
ENDBRANCH  24  26
ENDBRANCH  23  24
ENDBRANCH  22  23
ENDBRANCH  21  22
ENDBRANCH   1  21
BRANCH   2  35
HETATM   35  O1  UNL     1      40.161  40.034   9.646  1.00  0.00    -0.345 OA
ATOM     36  H1  UNL     1      40.583  39.224   9.386  1.00  0.00     0.219 HD
ENDBRANCH   2  35
BRANCH   5  37
HETATM   37  O2  UNL     1      36.545  38.759  12.509  1.00  0.00    -0.345 OA
ATOM     38  H2  UNL     1      36.719  37.838  12.664  1.00  0.00     0.219 HD
ENDBRANCH   5  37
TORSDOF 11
ENDMDL
MODEL 2
REMARK VINA RESULT: -8.965085951      1.449      2.442
REMARK  11 active torsions:
REMARK  status: ('A' for Active; 'I' for Inactive)
REMARK    1  A    between atoms: N1_2  and  C2_3 
REMARK    2  A    between atoms: N1_2  and  C23_35 
REMARK    3  A    between atoms: C2_3  and  C3_4 
REMARK    4  A    between atoms: C3_4  and  C4_5 
REMARK    5  A    between atoms: C4_5  and  N2_6 
REMARK    6  A    between atoms: N2_6  and  C5_8 
REMARK    7  A    between atoms: C5_8  and  C6_9 
REMARK    8  A    between atoms: C6_9  and  C7_10 
REMARK    9  A    between atoms: C7_10  and  N3_11 
REMARK   10  A    between atoms: C8_12  and  O1_13 
REMARK   11  A    between atoms: C11_17  and  O2_18 
ROOT
HETATM    1  N3  UNL     1      39.191  41.394  11.835  1.00  0.00    -0.307 N 
HETATM    2  C8  UNL     1      39.513  42.648  11.537  1.00  0.00     0.161 A 
HETATM    3  C9  UNL     1      38.497  43.485  11.942  1.00  0.00     0.098 A 
HETATM    4  C10 UNL     1      37.529  42.664  12.505  1.00  0.00     0.062 A 
HETATM    5  C11 UNL     1      37.985  41.344  12.431  1.00  0.00     0.156 A 
HETATM    6  C12 UNL     1      36.383  43.457  12.926  1.00  0.00     0.147 A 
HETATM    7  C13 UNL     1      35.239  43.100  11.944  1.00  0.00     0.070 C 
HETATM    8  N4  UNL     1      35.901  43.277  14.259  1.00  0.00    -0.321 N 
HETATM    9  C14 UNL     1      36.291  42.177  15.077  1.00  0.00     0.156 C 
HETATM   10  C15 UNL     1      34.977  44.264  14.788  1.00  0.00     0.258 C 
HETATM   11  O3  UNL     1      34.199  43.969  15.721  1.00  0.00    -0.267 OA
HETATM   12  C16 UNL     1      34.975  45.607  14.208  1.00  0.00     0.059 A 
HETATM   13  C17 UNL     1      34.110  46.555  14.694  1.00  0.00     0.019 A 
HETATM   14  C18 UNL     1      34.179  47.804  14.087  1.00  0.00     0.001 A 
HETATM   15  C19 UNL     1      35.044  48.108  13.064  1.00  0.00     0.002 A 
HETATM   16  C20 UNL     1      35.904  47.105  12.606  1.00  0.00     0.031 A 
HETATM   17  C21 UNL     1      35.867  45.871  13.175  1.00  0.00     0.056 A 
HETATM   18  N5  UNL     1      36.760  44.836  12.704  1.00  0.00    -0.281 N 
HETATM   19  C22 UNL     1      38.008  44.852  12.064  1.00  0.00     0.266 A 
HETATM   20  O4  UNL     1      38.624  45.875  11.653  1.00  0.00    -0.267 OA
ENDROOT
BRANCH   1  21
HETATM   21  C7  UNL     1      40.001  40.242  11.558  1.00  0.00     0.138 C 
BRANCH  21  22
HETATM   22  C6  UNL     1      39.818  39.799  10.098  1.00  0.00     0.065 C 
BRANCH  22  23
HETATM   23  C5  UNL     1      39.456  38.337  10.138  1.00  0.00     0.061 C 
BRANCH  23  24
HETATM   24  N2  UNL     1      38.732  37.901  11.258  1.00  0.00    -0.382 N 
ATOM     25  H2  UNL     1      39.016  38.198  12.192  1.00  0.00     0.163 HD
BRANCH  24  26
HETATM   26  C4  UNL     1      37.617  37.055  11.102  1.00  0.00     0.062 C 
BRANCH  26  27
HETATM   27  C3  UNL     1      37.255  36.365  12.408  1.00  0.00     0.074 C 
BRANCH  27  28
HETATM   28  C2  UNL     1      37.695  34.936  12.421  1.00  0.00     0.279 C 
BRANCH  28  29
HETATM   29  N1  UNL     1      37.000  34.094  13.376  1.00  0.00     0.108 N 
HETATM   30  C1  UNL     1      35.630  33.998  12.815  1.00  0.00     0.312 C 
BRANCH  29  31
HETATM   31  C23 UNL     1      37.517  32.750  13.427  1.00  0.00     0.227 C 
HETATM   32  C24 UNL     1      36.515  31.668  13.586  1.00  0.00     0.067 C 
HETATM   33  C25 UNL     1      38.396  32.690  14.694  1.00  0.00     0.067 C 
HETATM   34 CL1  UNL     1      38.621  32.341  12.106  1.00  0.00    -0.086 Cl
ENDBRANCH  29  31
ENDBRANCH  28  29
ENDBRANCH  27  28
ENDBRANCH  26  27
ENDBRANCH  24  26
ENDBRANCH  23  24
ENDBRANCH  22  23
ENDBRANCH  21  22
ENDBRANCH   1  21
BRANCH   2  35
HETATM   35  O1  UNL     1      40.681  43.057  10.920  1.00  0.00    -0.345 OA
ATOM     36  H1  UNL     1      40.743  43.470  10.066  1.00  0.00     0.219 HD
ENDBRANCH   2  35
BRANCH   5  37
HETATM   37  O2  UNL     1      37.389  40.171  12.851  1.00  0.00    -0.345 OA
ATOM     38  H2  UNL     1      37.238  39.956  13.764  1.00  0.00     0.219 HD
ENDBRANCH   5  37
TORSDOF 11
ENDMDL
MODEL 3
REMARK VINA RESULT: -8.933999915      1.591      2.177
REMARK  11 active torsions:
REMARK  status: ('A' for Active; 'I' for Inactive)
REMARK    1  A    between atoms: N1_2  and  C2_3 
REMARK    2  A    between atoms: N1_2  and  C23_35 
REMARK    3  A    between atoms: C2_3  and  C3_4 
REMARK    4  A    between atoms: C3_4  and  C4_5 
REMARK    5  A    between atoms: C4_5  and  N2_6 
REMARK    6  A    between atoms: N2_6  and  C5_8 
REMARK    7  A    between atoms: C5_8  and  C6_9 
REMARK    8  A    between atoms: C6_9  and  C7_10 
REMARK    9  A    between atoms: C7_10  and  N3_11 
REMARK   10  A    between atoms: C8_12  and  O1_13 
REMARK   11  A    between atoms: C11_17  and  O2_18 
ROOT
HETATM    1  N3  UNL     1      38.869  40.849  11.908  1.00  0.00    -0.307 N 
HETATM    2  C8  UNL     1      39.282  42.073  11.597  1.00  0.00     0.161 A 
HETATM    3  C9  UNL     1      38.329  42.986  11.991  1.00  0.00     0.098 A 
HETATM    4  C10 UNL     1      37.302  42.243  12.560  1.00  0.00     0.062 A 
HETATM    5  C11 UNL     1      37.662  40.893  12.500  1.00  0.00     0.156 A 
HETATM    6  C12 UNL     1      36.217  43.123  12.969  1.00  0.00     0.147 A 
HETATM    7  C13 UNL     1      35.051  42.839  11.987  1.00  0.00     0.070 C 
HETATM    8  N4  UNL     1      35.720  42.992  14.303  1.00  0.00    -0.321 N 
HETATM    9  C14 UNL     1      36.027  41.875  15.133  1.00  0.00     0.156 C 
HETATM   10  C15 UNL     1      34.869  44.049  14.819  1.00  0.00     0.258 C 
HETATM   11  O3  UNL     1      34.070  43.821  15.752  1.00  0.00    -0.267 OA
HETATM   12  C16 UNL     1      34.966  45.383  14.225  1.00  0.00     0.059 A 
HETATM   13  C17 UNL     1      34.172  46.396  14.699  1.00  0.00     0.019 A 
HETATM   14  C18 UNL     1      34.332  47.630  14.079  1.00  0.00     0.001 A 
HETATM   15  C19 UNL     1      35.219  47.860  13.055  1.00  0.00     0.002 A 
HETATM   16  C20 UNL     1      36.006  46.792  12.610  1.00  0.00     0.031 A 
HETATM   17  C21 UNL     1      35.877  45.570  13.192  1.00  0.00     0.056 A 
HETATM   18  N5  UNL     1      36.694  44.468  12.734  1.00  0.00    -0.281 N 
HETATM   19  C22 UNL     1      37.941  44.386  12.098  1.00  0.00     0.266 A 
HETATM   20  O4  UNL     1      38.630  45.357  11.678  1.00  0.00    -0.267 OA
ENDROOT
BRANCH   1  21
HETATM   21  C7  UNL     1      39.594  39.638  11.644  1.00  0.00     0.138 C 
BRANCH  21  22
HETATM   22  C6  UNL     1      39.082  38.978  10.355  1.00  0.00     0.065 C 
BRANCH  22  23
HETATM   23  C5  UNL     1      38.754  37.551  10.707  1.00  0.00     0.061 C 
BRANCH  23  24
HETATM   24  N2  UNL     1      37.465  37.308  11.206  1.00  0.00    -0.382 N 
ATOM     25  H2  UNL     1      36.657  37.732  10.751  1.00  0.00     0.163 HD
BRANCH  24  26
HETATM   26  C4  UNL     1      37.279  36.482  12.332  1.00  0.00     0.062 C 
BRANCH  26  27
HETATM   27  C3  UNL     1      37.033  35.037  11.927  1.00  0.00     0.074 C 
BRANCH  27  28
HETATM   28  C2  UNL     1      38.011  34.106  12.569  1.00  0.00     0.279 C 
BRANCH  28  29
HETATM   29  N1  UNL     1      37.707  32.698  12.407  1.00  0.00     0.108 N 
HETATM   30  C1  UNL     1      38.996  32.120  11.951  1.00  0.00     0.312 C 
BRANCH  29  31
HETATM   31  C23 UNL     1      37.382  32.042  13.649  1.00  0.00     0.227 C 
HETATM   32  C24 UNL     1      37.759  32.762  14.890  1.00  0.00     0.067 C 
HETATM   33  C25 UNL     1      38.207  30.739  13.660  1.00  0.00     0.067 C 
HETATM   34 CL1  UNL     1      35.701  31.500  13.770  1.00  0.00    -0.086 Cl
ENDBRANCH  29  31
ENDBRANCH  28  29
ENDBRANCH  27  28
ENDBRANCH  26  27
ENDBRANCH  24  26
ENDBRANCH  23  24
ENDBRANCH  22  23
ENDBRANCH  21  22
ENDBRANCH   1  21
BRANCH   2  35
HETATM   35  O1  UNL     1      40.478  42.389  10.979  1.00  0.00    -0.345 OA
ATOM     36  H1  UNL     1      40.602  43.062  10.320  1.00  0.00     0.219 HD
ENDBRANCH   2  35
BRANCH   5  37
HETATM   37  O2  UNL     1      36.981  39.771  12.931  1.00  0.00    -0.345 OA
ATOM     38  H2  UNL     1      36.073  39.783  13.212  1.00  0.00     0.219 HD
ENDBRANCH   5  37
TORSDOF 11
ENDMDL
MODEL 4
REMARK VINA RESULT: -8.830887264      1.202      1.502
REMARK  11 active torsions:
REMARK  status: ('A' for Active; 'I' for Inactive)
REMARK    1  A    between atoms: N1_2  and  C2_3 
REMARK    2  A    between atoms: N1_2  and  C23_35 
REMARK    3  A    between atoms: C2_3  and  C3_4 
REMARK    4  A    between atoms: C3_4  and  C4_5 
REMARK    5  A    between atoms: C4_5  and  N2_6 
REMARK    6  A    between atoms: N2_6  and  C5_8 
REMARK    7  A    between atoms: C5_8  and  C6_9 
REMARK    8  A    between atoms: C6_9  and  C7_10 
REMARK    9  A    between atoms: C7_10  and  N3_11 
REMARK   10  A    between atoms: C8_12  and  O1_13 
REMARK   11  A    between atoms: C11_17  and  O2_18 
ROOT
HETATM    1  N3  UNL     1      38.294  39.992  11.650  1.00  0.00    -0.307 N 
HETATM    2  C8  UNL     1      38.759  40.950  10.856  1.00  0.00     0.161 A 
HETATM    3  C9  UNL     1      38.098  42.127  11.132  1.00  0.00     0.098 A 
HETATM    4  C10 UNL     1      37.194  41.828  12.143  1.00  0.00     0.062 A 
HETATM    5  C11 UNL     1      37.333  40.473  12.460  1.00  0.00     0.156 A 
HETATM    6  C12 UNL     1      36.407  43.007  12.475  1.00  0.00     0.147 A 
HETATM    7  C13 UNL     1      34.977  42.720  11.952  1.00  0.00     0.070 C 
HETATM    8  N4  UNL     1      36.314  43.380  13.852  1.00  0.00    -0.321 N 
HETATM    9  C14 UNL     1      36.698  42.510  14.913  1.00  0.00     0.156 C 
HETATM   10  C15 UNL     1      35.805  44.703  14.165  1.00  0.00     0.258 C 
HETATM   11  O3  UNL     1      35.293  44.938  15.282  1.00  0.00    -0.267 OA
HETATM   12  C16 UNL     1      35.902  45.753  13.151  1.00  0.00     0.059 A 
HETATM   13  C17 UNL     1      35.428  47.010  13.428  1.00  0.00     0.019 A 
HETATM   14  C18 UNL     1      35.563  47.945  12.408  1.00  0.00     0.001 A 
HETATM   15  C19 UNL     1      36.131  47.666  11.188  1.00  0.00     0.002 A 
HETATM   16  C20 UNL     1      36.599  46.369  10.958  1.00  0.00     0.031 A 
HETATM   17  C21 UNL     1      36.484  45.426  11.932  1.00  0.00     0.056 A 
HETATM   18  N5  UNL     1      36.971  44.086  11.694  1.00  0.00    -0.281 N 
HETATM   19  C22 UNL     1      37.952  43.548  10.847  1.00  0.00     0.266 A 
HETATM   20  O4  UNL     1      38.612  44.178   9.974  1.00  0.00    -0.267 OA
ENDROOT
BRANCH   1  21
HETATM   21  C7  UNL     1      38.738  38.627  11.649  1.00  0.00     0.138 C 
BRANCH  21  22
HETATM   22  C6  UNL     1      37.644  37.710  11.081  1.00  0.00     0.065 C 
BRANCH  22  23
HETATM   23  C5  UNL     1      37.366  36.673  12.138  1.00  0.00     0.061 C 
BRANCH  23  24
HETATM   24  N2  UNL     1      36.239  35.860  11.937  1.00  0.00    -0.382 N 
ATOM     25  H2  UNL     1      35.454  36.209  11.388  1.00  0.00     0.163 HD
BRANCH  24  26
HETATM   26  C4  UNL     1      36.185  34.566  12.491  1.00  0.00     0.062 C 
BRANCH  26  27
HETATM   27  C3  UNL     1      37.485  34.208  13.195  1.00  0.00     0.074 C 
BRANCH  27  28
HETATM   28  C2  UNL     1      38.290  33.224  12.407  1.00  0.00     0.279 C 
BRANCH  28  29
HETATM   29  N1  UNL     1      39.070  32.299  13.206  1.00  0.00     0.108 N 
HETATM   30  C1  UNL     1      38.833  32.762  14.596  1.00  0.00     0.312 C 
BRANCH  29  31
HETATM   31  C23 UNL     1      38.585  30.944  13.138  1.00  0.00     0.227 C 
HETATM   32  C24 UNL     1      39.188  29.982  14.093  1.00  0.00     0.067 C 
HETATM   33  C25 UNL     1      38.975  30.433  11.735  1.00  0.00     0.067 C 
HETATM   34 CL1  UNL     1      36.822  30.795  13.187  1.00  0.00    -0.086 Cl
ENDBRANCH  29  31
ENDBRANCH  28  29
ENDBRANCH  27  28
ENDBRANCH  26  27
ENDBRANCH  24  26
ENDBRANCH  23  24
ENDBRANCH  22  23
ENDBRANCH  21  22
ENDBRANCH   1  21
BRANCH   2  35
HETATM   35  O1  UNL     1      39.751  40.801   9.904  1.00  0.00    -0.345 OA
ATOM     36  H1  UNL     1      39.801  40.104   9.260  1.00  0.00     0.219 HD
ENDBRANCH   2  35
BRANCH   5  37
HETATM   37  O2  UNL     1      36.664  39.704  13.393  1.00  0.00    -0.345 OA
ATOM     38  H2  UNL     1      36.195  40.068  14.134  1.00  0.00     0.219 HD
ENDBRANCH   5  37
TORSDOF 11
ENDMDL
MODEL 5
REMARK VINA RESULT: -8.784284311      1.550      2.880
REMARK  11 active torsions:
REMARK  status: ('A' for Active; 'I' for Inactive)
REMARK    1  A    between atoms: N1_2  and  C2_3 
REMARK    2  A    between atoms: N1_2  and  C23_35 
REMARK    3  A    between atoms: C2_3  and  C3_4 
REMARK    4  A    between atoms: C3_4  and  C4_5 
REMARK    5  A    between atoms: C4_5  and  N2_6 
REMARK    6  A    between atoms: N2_6  and  C5_8 
REMARK    7  A    between atoms: C5_8  and  C6_9 
REMARK    8  A    between atoms: C6_9  and  C7_10 
REMARK    9  A    between atoms: C7_10  and  N3_11 
REMARK   10  A    between atoms: C8_12  and  O1_13 
REMARK   11  A    between atoms: C11_17  and  O2_18 
ROOT
HETATM    1  N3  UNL     1      38.247  41.796  10.470  1.00  0.00    -0.307 N 
HETATM    2  C8  UNL     1      38.465  43.106  10.518  1.00  0.00     0.161 A 
HETATM    3  C9  UNL     1      37.595  43.676  11.422  1.00  0.00     0.098 A 
HETATM    4  C10 UNL     1      36.829  42.632  11.923  1.00  0.00     0.062 A 
HETATM    5  C11 UNL     1      37.256  41.450  11.311  1.00  0.00     0.156 A 
HETATM    6  C12 UNL     1      35.840  43.143  12.861  1.00  0.00     0.147 A 
HETATM    7  C13 UNL     1      34.470  42.996  12.152  1.00  0.00     0.070 C 
HETATM    8  N4  UNL     1      35.750  42.516  14.142  1.00  0.00    -0.321 N 
HETATM    9  C14 UNL     1      36.360  41.261  14.430  1.00  0.00     0.156 C 
HETATM   10  C15 UNL     1      35.002  43.199  15.183  1.00  0.00     0.258 C 
HETATM   11  O3  UNL     1      34.517  42.558  16.141  1.00  0.00    -0.267 OA
HETATM   12  C16 UNL     1      34.829  44.649  15.089  1.00  0.00     0.059 A 
HETATM   13  C17 UNL     1      34.127  45.313  16.063  1.00  0.00     0.019 A 
HETATM   14  C18 UNL     1      34.014  46.688  15.894  1.00  0.00     0.001 A 
HETATM   15  C19 UNL     1      34.558  47.374  14.835  1.00  0.00     0.002 A 
HETATM   16  C20 UNL     1      35.264  46.649  13.870  1.00  0.00     0.031 A 
HETATM   17  C21 UNL     1      35.396  45.302  14.001  1.00  0.00     0.056 A 
HETATM   18  N5  UNL     1      36.130  44.553  13.005  1.00  0.00    -0.281 N 
HETATM   19  C22 UNL     1      37.150  44.885  12.101  1.00  0.00     0.266 A 
HETATM   20  O4  UNL     1      37.619  46.039  11.896  1.00  0.00    -0.267 OA
ENDROOT
BRANCH   1  21
HETATM   21  C7  UNL     1      38.956  40.869   9.634  1.00  0.00     0.138 C 
BRANCH  21  22
HETATM   22  C6  UNL     1      40.114  40.225  10.413  1.00  0.00     0.065 C 
BRANCH  22  23
HETATM   23  C5  UNL     1      39.868  38.739  10.391  1.00  0.00     0.061 C 
BRANCH  23  24
HETATM   24  N2  UNL     1      38.906  38.249  11.289  1.00  0.00    -0.382 N 
ATOM     25  H2  UNL     1      38.784  38.699  12.196  1.00  0.00     0.163 HD
BRANCH  24  26
HETATM   26  C4  UNL     1      38.108  37.140  10.946  1.00  0.00     0.062 C 
BRANCH  26  27
HETATM   27  C3  UNL     1      37.416  36.554  12.167  1.00  0.00     0.074 C 
BRANCH  27  28
HETATM   28  C2  UNL     1      37.797  35.126  12.389  1.00  0.00     0.279 C 
BRANCH  28  29
HETATM   29  N1  UNL     1      36.932  34.400  13.298  1.00  0.00     0.108 N 
HETATM   30  C1  UNL     1      35.605  34.469  12.636  1.00  0.00     0.312 C 
BRANCH  29  31
HETATM   31  C23 UNL     1      37.265  33.001  13.401  1.00  0.00     0.227 C 
HETATM   32  C24 UNL     1      36.125  32.064  13.549  1.00  0.00     0.067 C 
HETATM   33  C25 UNL     1      38.084  32.864  14.702  1.00  0.00     0.067 C 
HETATM   34 CL1  UNL     1      38.351  32.413  12.133  1.00  0.00    -0.086 Cl
ENDBRANCH  29  31
ENDBRANCH  28  29
ENDBRANCH  27  28
ENDBRANCH  26  27
ENDBRANCH  24  26
ENDBRANCH  23  24
ENDBRANCH  22  23
ENDBRANCH  21  22
ENDBRANCH   1  21
BRANCH   2  35
HETATM   35  O1  UNL     1      39.411  43.795   9.783  1.00  0.00    -0.345 OA
ATOM     36  H1  UNL     1      39.766  44.650   9.997  1.00  0.00     0.219 HD
ENDBRANCH   2  35
BRANCH   5  37
HETATM   37  O2  UNL     1      36.809  40.152  11.471  1.00  0.00    -0.345 OA
ATOM     38  H2  UNL     1      36.480  39.808  12.293  1.00  0.00     0.219 HD
ENDBRANCH   5  37
TORSDOF 11
ENDMDL
