MODEL 1
REMARK VINA RESULT: -6.711228036      0.000      0.000
REMARK  11 active torsions:
REMARK  status: ('A' for Active; 'I' for Inactive)
REMARK    1  A    between atoms: C2_2  and  C3_3 
REMARK    2  A    between atoms: C3_3  and  C4_4 
REMARK    3  A    between atoms: C4_4  and  N1_5 
REMARK    4  A    between atoms: C6_8  and  N3_9 
REMARK    5  A    between atoms: N3_9  and  C7_10 
REMARK    6  A    between atoms: C9_12  and  O1_13 
REMARK    7  A    between atoms: C9_12  and  C10_15 
REMARK    8  A    between atoms: C11_16  and  N4_17 
REMARK       I    between atoms: N4_17  and  C12_19 
REMARK    9  A    between atoms: C12_19  and  C13_21 
REMARK   10  A    between atoms: C17_26  and  C18_27 
REMARK   11  A    between atoms: C18_27  and  O3_29 
ROOT
HETATM    1  N3  UNL     1      36.450  43.220  14.733  1.00  0.00    -0.320 N 
HETATM    2  C9  UNL     1      36.207  42.944  13.418  1.00  0.00     0.156 C 
ENDROOT
BRANCH   2   3
HETATM    3  O1  UNL     1      34.880  42.587  13.306  1.00  0.00    -0.345 OA
ATOM      4  H1  UNL     1      34.704  42.421  12.387  1.00  0.00     0.219 HD
ENDBRANCH   2   3
BRANCH   2   5
HETATM    5  C10 UNL     1      36.848  42.883  12.080  1.00  0.00     0.056 A 
HETATM    6  C11 UNL     1      37.125  44.120  11.479  1.00  0.00     0.092 A 
HETATM    7  S1  UNL     1      38.263  43.709  10.234  1.00  0.00    -0.069 SA
HETATM    8  C17 UNL     1      38.359  42.027  10.470  1.00  0.00     0.042 A 
HETATM    9  C20 UNL     1      37.507  41.816  11.512  1.00  0.00    -0.025 A 
HETATM   10  C21 UNL     1      37.206  40.365  11.895  1.00  0.00     0.050 C 
BRANCH   6  11
HETATM   11  N4  UNL     1      36.495  45.394  11.510  1.00  0.00    -0.320 N 
HETATM   12  C12 UNL     1      37.085  46.634  11.597  1.00  0.00     0.230 C 
HETATM   13  O2  UNL     1      38.328  46.793  11.706  1.00  0.00    -0.272 OA
ATOM     14  H4  UNL     1      35.476  45.389  11.460  1.00  0.00     0.169 HD
BRANCH  12  15
HETATM   15  C13 UNL     1      36.264  47.900  11.570  1.00  0.00     0.030 C 
HETATM   16  C14 UNL     1      35.454  48.035  10.327  1.00  0.00     0.025 C 
HETATM   17  C15 UNL     1      35.319  47.832  12.743  1.00  0.00     0.025 C 
HETATM   18  C16 UNL     1      37.164  49.090  11.716  1.00  0.00     0.025 C 
ENDBRANCH  12  15
ENDBRANCH   6  11
BRANCH   8  19
HETATM   19  C18 UNL     1      39.243  41.127   9.678  1.00  0.00     0.057 C 
HETATM   20  C19 UNL     1      40.467  40.470  10.044  1.00  0.00     0.077 C 
BRANCH  19  21
HETATM   21  O3  UNL     1      38.801  40.934   8.461  1.00  0.00    -0.364 OA
ATOM     22  H3  UNL     1      38.331  40.113   8.370  1.00  0.00     0.217 HD
ENDBRANCH  19  21
ENDBRANCH   8  19
ENDBRANCH   2   5
BRANCH   1  23
HETATM   23  C6  UNL     1      35.272  42.954  15.648  1.00  0.00     0.147 A 
HETATM   24  C5  UNL     1      34.386  43.926  15.973  1.00  0.00     0.155 A 
HETATM   25  N1  UNL     1      33.335  43.602  16.809  1.00  0.00    -0.285 N 
HETATM   26  N2  UNL     1      34.545  45.240  15.454  1.00  0.00    -0.080 NA
HETATM   27  C23 UNL     1      33.194  42.361  17.286  1.00  0.00     0.330 A 
HETATM   28  N5  UNL     1      34.075  41.409  16.959  1.00  0.00    -0.273 N 
HETATM   29  O5  UNL     1      32.215  42.062  18.063  1.00  0.00    -0.246 OA
HETATM   30  C22 UNL     1      35.139  41.701  16.125  1.00  0.00     0.279 A 
ATOM     31  H5  UNL     1      33.962  40.465  17.326  1.00  0.00     0.173 HD
HETATM   32  O4  UNL     1      35.938  40.782  15.843  1.00  0.00    -0.265 OA
BRANCH  25  33
HETATM   33  C4  UNL     1      32.399  44.632  17.144  1.00  0.00     0.135 C 
BRANCH  33  34
HETATM   34  C3  UNL     1      31.343  44.694  16.064  1.00  0.00     0.020 C 
BRANCH  34  35
HETATM   35  C2  UNL     1      30.823  46.095  15.853  1.00  0.00    -0.003 C 
HETATM   36  C1  UNL     1      31.322  46.710  14.580  1.00  0.00     0.005 C 
ENDBRANCH  34  35
ENDBRANCH  33  34
ENDBRANCH  25  33
ENDBRANCH   1  23
BRANCH   1  37
HETATM   37  C7  UNL     1      37.485  43.742  15.574  1.00  0.00     0.127 C 
HETATM   38  C8  UNL     1      38.014  45.101  15.150  1.00  0.00     0.027 C 
ENDBRANCH   1  37
TORSDOF 11
ENDMDL
MODEL 2
REMARK VINA RESULT: -6.613490501      2.481      7.184
REMARK  11 active torsions:
REMARK  status: ('A' for Active; 'I' for Inactive)
REMARK    1  A    between atoms: C2_2  and  C3_3 
REMARK    2  A    between atoms: C3_3  and  C4_4 
REMARK    3  A    between atoms: C4_4  and  N1_5 
REMARK    4  A    between atoms: C6_8  and  N3_9 
REMARK    5  A    between atoms: N3_9  and  C7_10 
REMARK    6  A    between atoms: C9_12  and  O1_13 
REMARK    7  A    between atoms: C9_12  and  C10_15 
REMARK    8  A    between atoms: C11_16  and  N4_17 
REMARK       I    between atoms: N4_17  and  C12_19 
REMARK    9  A    between atoms: C12_19  and  C13_21 
REMARK   10  A    between atoms: C17_26  and  C18_27 
REMARK   11  A    between atoms: C18_27  and  O3_29 
ROOT
HETATM    1  N3  UNL     1      37.124  43.567  14.577  1.00  0.00    -0.320 N 
HETATM    2  C9  UNL     1      35.781  43.325  14.616  1.00  0.00     0.156 C 
ENDROOT
BRANCH   2   3
HETATM    3  O1  UNL     1      35.362  43.092  13.323  1.00  0.00    -0.345 OA
ATOM      4  H1  UNL     1      34.920  42.251  13.312  1.00  0.00     0.219 HD
ENDBRANCH   2   3
BRANCH   2   5
HETATM    5  C10 UNL     1      34.618  43.231  15.534  1.00  0.00     0.056 A 
HETATM    6  C11 UNL     1      33.559  44.113  15.271  1.00  0.00     0.092 A 
HETATM    7  S1  UNL     1      32.239  43.424  16.164  1.00  0.00    -0.069 SA
HETATM    8  C17 UNL     1      33.022  42.079  16.851  1.00  0.00     0.042 A 
HETATM    9  C20 UNL     1      34.293  42.189  16.375  1.00  0.00    -0.025 A 
HETATM   10  C21 UNL     1      35.342  41.224  16.932  1.00  0.00     0.050 C 
BRANCH   6  11
HETATM   11  N4  UNL     1      33.482  45.430  14.740  1.00  0.00    -0.320 N 
HETATM   12  C12 UNL     1      34.121  46.565  15.181  1.00  0.00     0.230 C 
HETATM   13  O2  UNL     1      34.866  46.579  16.196  1.00  0.00    -0.272 OA
ATOM     14  H4  UNL     1      32.876  45.547  13.928  1.00  0.00     0.169 HD
BRANCH  12  15
HETATM   15  C13 UNL     1      33.964  47.885  14.467  1.00  0.00     0.030 C 
HETATM   16  C14 UNL     1      34.776  47.966  13.221  1.00  0.00     0.025 C 
HETATM   17  C15 UNL     1      32.510  48.006  14.091  1.00  0.00     0.025 C 
HETATM   18  C16 UNL     1      34.343  49.006  15.387  1.00  0.00     0.025 C 
ENDBRANCH  12  15
ENDBRANCH   6  11
BRANCH   8  19
HETATM   19  C18 UNL     1      32.341  41.077  17.717  1.00  0.00     0.057 C 
HETATM   20  C19 UNL     1      32.373  40.908  19.144  1.00  0.00     0.077 C 
BRANCH  19  21
HETATM   21  O3  UNL     1      31.615  40.231  17.031  1.00  0.00    -0.364 OA
ATOM     22  H3  UNL     1      30.817  39.985  17.485  1.00  0.00     0.217 HD
ENDBRANCH  19  21
ENDBRANCH   8  19
ENDBRANCH   2   5
BRANCH   1  23
HETATM   23  C6  UNL     1      37.703  43.615  13.177  1.00  0.00     0.147 A 
HETATM   24  C5  UNL     1      38.048  42.488  12.508  1.00  0.00     0.155 A 
HETATM   25  N1  UNL     1      38.564  42.615  11.233  1.00  0.00    -0.285 N 
HETATM   26  N2  UNL     1      37.872  41.214  13.114  1.00  0.00    -0.080 NA
HETATM   27  C23 UNL     1      38.720  43.819  10.672  1.00  0.00     0.330 A 
HETATM   28  N5  UNL     1      38.376  44.924  11.342  1.00  0.00    -0.273 N 
HETATM   29  O5  UNL     1      39.199  43.935   9.486  1.00  0.00    -0.246 OA
HETATM   30  C22 UNL     1      37.857  44.832  12.621  1.00  0.00     0.279 A 
ATOM     31  H5  UNL     1      38.497  45.839  10.909  1.00  0.00     0.173 HD
HETATM   32  O4  UNL     1      37.547  45.889  13.211  1.00  0.00    -0.265 OA
BRANCH  25  33
HETATM   33  C4  UNL     1      38.921  41.421  10.529  1.00  0.00     0.135 C 
BRANCH  33  34
HETATM   34  C3  UNL     1      40.393  41.154  10.750  1.00  0.00     0.020 C 
BRANCH  34  35
HETATM   35  C2  UNL     1      40.672  39.697  11.028  1.00  0.00    -0.003 C 
HETATM   36  C1  UNL     1      39.506  38.814  10.705  1.00  0.00     0.005 C 
ENDBRANCH  34  35
ENDBRANCH  33  34
ENDBRANCH  25  33
ENDBRANCH   1  23
BRANCH   1  37
HETATM   37  C7  UNL     1      38.233  43.759  15.462  1.00  0.00     0.127 C 
HETATM   38  C8  UNL     1      37.896  44.515  16.736  1.00  0.00     0.027 C 
ENDBRANCH   1  37
TORSDOF 11
ENDMDL
MODEL 3
REMARK VINA RESULT: -6.535728877      1.401      2.701
REMARK  11 active torsions:
REMARK  status: ('A' for Active; 'I' for Inactive)
REMARK    1  A    between atoms: C2_2  and  C3_3 
REMARK    2  A    between atoms: C3_3  and  C4_4 
REMARK    3  A    between atoms: C4_4  and  N1_5 
REMARK    4  A    between atoms: C6_8  and  N3_9 
REMARK    5  A    between atoms: N3_9  and  C7_10 
REMARK    6  A    between atoms: C9_12  and  O1_13 
REMARK    7  A    between atoms: C9_12  and  C10_15 
REMARK    8  A    between atoms: C11_16  and  N4_17 
REMARK       I    between atoms: N4_17  and  C12_19 
REMARK    9  A    between atoms: C12_19  and  C13_21 
REMARK   10  A    between atoms: C17_26  and  C18_27 
REMARK   11  A    between atoms: C18_27  and  O3_29 
ROOT
HETATM    1  N3  UNL     1      36.304  43.532  15.026  1.00  0.00    -0.320 N 
HETATM    2  C9  UNL     1      36.045  43.231  13.720  1.00  0.00     0.156 C 
ENDROOT
BRANCH   2   3
HETATM    3  O1  UNL     1      34.684  43.047  13.596  1.00  0.00    -0.345 OA
ATOM      4  H1  UNL     1      34.328  43.817  13.169  1.00  0.00     0.219 HD
ENDBRANCH   2   3
BRANCH   2   5
HETATM    5  C10 UNL     1      36.691  43.024  12.399  1.00  0.00     0.056 A 
HETATM    6  C11 UNL     1      36.994  44.189  11.679  1.00  0.00     0.092 A 
HETATM    7  S1  UNL     1      38.131  43.635  10.489  1.00  0.00    -0.069 SA
HETATM    8  C17 UNL     1      38.194  41.984  10.893  1.00  0.00     0.042 A 
HETATM    9  C20 UNL     1      37.333  41.893  11.945  1.00  0.00    -0.025 A 
HETATM   10  C21 UNL     1      37.003  40.494  12.469  1.00  0.00     0.050 C 
BRANCH   6  11
HETATM   11  N4  UNL     1      36.388  45.471  11.577  1.00  0.00    -0.320 N 
HETATM   12  C12 UNL     1      36.999  46.704  11.570  1.00  0.00     0.230 C 
HETATM   13  O2  UNL     1      38.242  46.851  11.699  1.00  0.00    -0.272 OA
ATOM     14  H4  UNL     1      35.371  45.478  11.500  1.00  0.00     0.169 HD
BRANCH  12  15
HETATM   15  C13 UNL     1      36.204  47.976  11.407  1.00  0.00     0.030 C 
HETATM   16  C14 UNL     1      35.430  48.012  10.134  1.00  0.00     0.025 C 
HETATM   17  C15 UNL     1      35.226  48.029  12.553  1.00  0.00     0.025 C 
HETATM   18  C16 UNL     1      37.122  49.158  11.472  1.00  0.00     0.025 C 
ENDBRANCH  12  15
ENDBRANCH   6  11
BRANCH   8  19
HETATM   19  C18 UNL     1      39.065  40.993  10.201  1.00  0.00     0.057 C 
HETATM   20  C19 UNL     1      40.138  40.184  10.710  1.00  0.00     0.077 C 
BRANCH  19  21
HETATM   21  O3  UNL     1      38.777  40.874   8.930  1.00  0.00    -0.364 OA
ATOM     22  H3  UNL     1      39.525  41.046   8.370  1.00  0.00     0.217 HD
ENDBRANCH  19  21
ENDBRANCH   8  19
ENDBRANCH   2   5
BRANCH   1  23
HETATM   23  C6  UNL     1      35.088  43.466  15.928  1.00  0.00     0.147 A 
HETATM   24  C5  UNL     1      34.792  42.357  16.648  1.00  0.00     0.155 A 
HETATM   25  N1  UNL     1      33.668  42.377  17.451  1.00  0.00    -0.285 N 
HETATM   26  N2  UNL     1      35.630  41.211  16.572  1.00  0.00    -0.080 NA
HETATM   27  C23 UNL     1      32.891  43.463  17.518  1.00  0.00     0.330 A 
HETATM   28  N5  UNL     1      33.193  44.552  16.802  1.00  0.00    -0.273 N 
HETATM   29  O5  UNL     1      31.847  43.480  18.266  1.00  0.00    -0.246 OA
HETATM   30  C22 UNL     1      34.311  44.564  15.987  1.00  0.00     0.279 A 
ATOM     31  H5  UNL     1      32.596  45.377  16.857  1.00  0.00     0.173 HD
HETATM   32  O4  UNL     1      34.557  45.602  15.337  1.00  0.00    -0.265 OA
BRANCH  25  33
HETATM   33  C4  UNL     1      33.364  41.204  18.214  1.00  0.00     0.135 C 
BRANCH  33  34
HETATM   34  C3  UNL     1      32.190  40.503  17.570  1.00  0.00     0.020 C 
BRANCH  34  35
HETATM   35  C2  UNL     1      31.470  39.593  18.535  1.00  0.00    -0.003 C 
HETATM   36  C1  UNL     1      31.785  38.146  18.309  1.00  0.00     0.005 C 
ENDBRANCH  34  35
ENDBRANCH  33  34
ENDBRANCH  25  33
ENDBRANCH   1  23
BRANCH   1  37
HETATM   37  C7  UNL     1      37.386  43.950  15.864  1.00  0.00     0.127 C 
HETATM   38  C8  UNL     1      37.995  45.288  15.483  1.00  0.00     0.027 C 
ENDBRANCH   1  37
TORSDOF 11
ENDMDL
MODEL 4
REMARK VINA RESULT: -6.512936818      3.252      8.037
REMARK  11 active torsions:
REMARK  status: ('A' for Active; 'I' for Inactive)
REMARK    1  A    between atoms: C2_2  and  C3_3 
REMARK    2  A    between atoms: C3_3  and  C4_4 
REMARK    3  A    between atoms: C4_4  and  N1_5 
REMARK    4  A    between atoms: C6_8  and  N3_9 
REMARK    5  A    between atoms: N3_9  and  C7_10 
REMARK    6  A    between atoms: C9_12  and  O1_13 
REMARK    7  A    between atoms: C9_12  and  C10_15 
REMARK    8  A    between atoms: C11_16  and  N4_17 
REMARK       I    between atoms: N4_17  and  C12_19 
REMARK    9  A    between atoms: C12_19  and  C13_21 
REMARK   10  A    between atoms: C17_26  and  C18_27 
REMARK   11  A    between atoms: C18_27  and  O3_29 
ROOT
HETATM    1  N3  UNL     1      36.372  43.483  13.680  1.00  0.00    -0.320 N 
HETATM    2  C9  UNL     1      35.865  43.165  14.907  1.00  0.00     0.156 C 
ENDROOT
BRANCH   2   3
HETATM    3  O1  UNL     1      36.593  42.103  15.397  1.00  0.00    -0.345 OA
ATOM      4  H1  UNL     1      36.027  41.609  15.979  1.00  0.00     0.219 HD
ENDBRANCH   2   3
BRANCH   2   5
HETATM    5  C10 UNL     1      34.819  43.540  15.893  1.00  0.00     0.056 A 
HETATM    6  C11 UNL     1      35.259  43.713  17.214  1.00  0.00     0.092 A 
HETATM    7  S1  UNL     1      33.956  44.590  17.954  1.00  0.00    -0.069 SA
HETATM    8  C17 UNL     1      32.895  44.709  16.629  1.00  0.00     0.042 A 
HETATM    9  C20 UNL     1      33.572  44.067  15.637  1.00  0.00    -0.025 A 
HETATM   10  C21 UNL     1      32.834  43.828  14.318  1.00  0.00     0.050 C 
BRANCH   6  11
HETATM   11  N4  UNL     1      36.283  43.115  17.998  1.00  0.00    -0.320 N 
HETATM   12  C12 UNL     1      37.465  43.674  18.426  1.00  0.00     0.230 C 
HETATM   13  O2  UNL     1      37.816  44.844  18.121  1.00  0.00    -0.272 OA
ATOM     14  H4  UNL     1      36.122  42.147  18.279  1.00  0.00     0.169 HD
BRANCH  12  15
HETATM   15  C13 UNL     1      38.429  42.908  19.298  1.00  0.00     0.030 C 
HETATM   16  C14 UNL     1      39.817  42.904  18.757  1.00  0.00     0.025 C 
HETATM   17  C15 UNL     1      38.447  43.600  20.638  1.00  0.00     0.025 C 
HETATM   18  C16 UNL     1      37.949  41.499  19.465  1.00  0.00     0.025 C 
ENDBRANCH  12  15
ENDBRANCH   6  11
BRANCH   8  19
HETATM   19  C18 UNL     1      31.585  45.416  16.676  1.00  0.00     0.057 C 
HETATM   20  C19 UNL     1      31.290  46.821  16.748  1.00  0.00     0.077 C 
BRANCH  19  21
HETATM   21  O3  UNL     1      30.569  44.592  16.653  1.00  0.00    -0.364 OA
ATOM     22  H3  UNL     1      30.629  43.959  15.946  1.00  0.00     0.217 HD
ENDBRANCH  19  21
ENDBRANCH   8  19
ENDBRANCH   2   5
BRANCH   1  23
HETATM   23  C6  UNL     1      37.459  42.544  13.199  1.00  0.00     0.147 A 
HETATM   24  C5  UNL     1      37.193  41.514  12.360  1.00  0.00     0.155 A 
HETATM   25  N1  UNL     1      38.241  40.706  11.962  1.00  0.00    -0.285 N 
HETATM   26  N2  UNL     1      35.866  41.287  11.904  1.00  0.00    -0.080 NA
HETATM   27  C23 UNL     1      39.486  40.932  12.394  1.00  0.00     0.330 A 
HETATM   28  N5  UNL     1      39.736  41.952  13.223  1.00  0.00    -0.273 N 
HETATM   29  O5  UNL     1      40.458  40.179  12.023  1.00  0.00    -0.246 OA
HETATM   30  C22 UNL     1      38.710  42.780  13.641  1.00  0.00     0.279 A 
ATOM     31  H5  UNL     1      40.688  42.120  13.549  1.00  0.00     0.173 HD
HETATM   32  O4  UNL     1      38.987  43.721  14.413  1.00  0.00    -0.265 OA
BRANCH  25  33
HETATM   33  C4  UNL     1      37.955  39.622  11.071  1.00  0.00     0.135 C 
BRANCH  33  34
HETATM   34  C3  UNL     1      37.537  38.422  11.890  1.00  0.00     0.020 C 
BRANCH  34  35
HETATM   35  C2  UNL     1      37.817  37.121  11.179  1.00  0.00    -0.003 C 
HETATM   36  C1  UNL     1      36.819  36.054  11.514  1.00  0.00     0.005 C 
ENDBRANCH  34  35
ENDBRANCH  33  34
ENDBRANCH  25  33
ENDBRANCH   1  23
BRANCH   1  37
HETATM   37  C7  UNL     1      36.242  44.481  12.662  1.00  0.00     0.127 C 
HETATM   38  C8  UNL     1      36.002  45.886  13.187  1.00  0.00     0.027 C 
ENDBRANCH   1  37
TORSDOF 11
ENDMDL
MODEL 5
REMARK VINA RESULT: -6.462702802      3.170      8.052
REMARK  11 active torsions:
REMARK  status: ('A' for Active; 'I' for Inactive)
REMARK    1  A    between atoms: C2_2  and  C3_3 
REMARK    2  A    between atoms: C3_3  and  C4_4 
REMARK    3  A    between atoms: C4_4  and  N1_5 
REMARK    4  A    between atoms: C6_8  and  N3_9 
REMARK    5  A    between atoms: N3_9  and  C7_10 
REMARK    6  A    between atoms: C9_12  and  O1_13 
REMARK    7  A    between atoms: C9_12  and  C10_15 
REMARK    8  A    between atoms: C11_16  and  N4_17 
REMARK       I    between atoms: N4_17  and  C12_19 
REMARK    9  A    between atoms: C12_19  and  C13_21 
REMARK   10  A    between atoms: C17_26  and  C18_27 
REMARK   11  A    between atoms: C18_27  and  O3_29 
ROOT
HETATM    1  N3  UNL     1      36.242  43.812  13.963  1.00  0.00    -0.320 N 
HETATM    2  C9  UNL     1      35.712  43.442  15.166  1.00  0.00     0.156 C 
ENDROOT
BRANCH   2   3
HETATM    3  O1  UNL     1      36.412  42.341  15.609  1.00  0.00    -0.345 OA
ATOM      4  H1  UNL     1      35.780  41.705  15.923  1.00  0.00     0.219 HD
ENDBRANCH   2   3
BRANCH   2   5
HETATM    5  C10 UNL     1      34.660  43.788  16.157  1.00  0.00     0.056 A 
HETATM    6  C11 UNL     1      35.095  43.934  17.482  1.00  0.00     0.092 A 
HETATM    7  S1  UNL     1      33.783  44.785  18.237  1.00  0.00    -0.069 SA
HETATM    8  C17 UNL     1      32.726  44.926  16.912  1.00  0.00     0.042 A 
HETATM    9  C20 UNL     1      33.411  44.311  15.908  1.00  0.00    -0.025 A 
HETATM   10  C21 UNL     1      32.678  44.095  14.582  1.00  0.00     0.050 C 
BRANCH   6  11
HETATM   11  N4  UNL     1      36.122  43.327  18.256  1.00  0.00    -0.320 N 
HETATM   12  C12 UNL     1      37.414  43.760  18.447  1.00  0.00     0.230 C 
HETATM   13  O2  UNL     1      37.877  44.790  17.893  1.00  0.00    -0.272 OA
ATOM     14  H4  UNL     1      35.869  42.460  18.730  1.00  0.00     0.169 HD
BRANCH  12  15
HETATM   15  C13 UNL     1      38.370  43.014  19.345  1.00  0.00     0.030 C 
HETATM   16  C14 UNL     1      38.029  41.570  19.476  1.00  0.00     0.025 C 
HETATM   17  C15 UNL     1      39.734  43.121  18.713  1.00  0.00     0.025 C 
HETATM   18  C16 UNL     1      38.390  43.651  20.702  1.00  0.00     0.025 C 
ENDBRANCH  12  15
ENDBRANCH   6  11
BRANCH   8  19
HETATM   19  C18 UNL     1      31.410  45.621  16.971  1.00  0.00     0.057 C 
HETATM   20  C19 UNL     1      30.908  46.724  16.198  1.00  0.00     0.077 C 
BRANCH  19  21
HETATM   21  O3  UNL     1      30.619  45.122  17.886  1.00  0.00    -0.364 OA
ATOM     22  H3  UNL     1      30.308  44.252  17.664  1.00  0.00     0.217 HD
ENDBRANCH  19  21
ENDBRANCH   8  19
ENDBRANCH   2   5
BRANCH   1  23
HETATM   23  C6  UNL     1      37.317  42.876  13.448  1.00  0.00     0.147 A 
HETATM   24  C5  UNL     1      37.042  41.900  12.550  1.00  0.00     0.155 A 
HETATM   25  N1  UNL     1      38.079  41.091  12.125  1.00  0.00    -0.285 N 
HETATM   26  N2  UNL     1      35.718  41.727  12.063  1.00  0.00    -0.080 NA
HETATM   27  C23 UNL     1      39.321  41.266  12.587  1.00  0.00     0.330 A 
HETATM   28  N5  UNL     1      39.580  42.234  13.474  1.00  0.00    -0.273 N 
HETATM   29  O5  UNL     1      40.283  40.513  12.190  1.00  0.00    -0.246 OA
HETATM   30  C22 UNL     1      38.565  43.060  13.921  1.00  0.00     0.279 A 
ATOM     31  H5  UNL     1      40.529  42.363  13.822  1.00  0.00     0.173 HD
HETATM   32  O4  UNL     1      38.850  43.952  14.748  1.00  0.00    -0.265 OA
BRANCH  25  33
HETATM   33  C4  UNL     1      37.784  40.064  11.172  1.00  0.00     0.135 C 
BRANCH  33  34
HETATM   34  C3  UNL     1      37.397  38.809  11.920  1.00  0.00     0.020 C 
BRANCH  34  35
HETATM   35  C2  UNL     1      38.074  37.581  11.363  1.00  0.00    -0.003 C 
HETATM   36  C1  UNL     1      39.060  37.906  10.282  1.00  0.00     0.005 C 
ENDBRANCH  34  35
ENDBRANCH  33  34
ENDBRANCH  25  33
ENDBRANCH   1  23
BRANCH   1  37
HETATM   37  C7  UNL     1      36.146  44.864  12.996  1.00  0.00     0.127 C 
HETATM   38  C8  UNL     1      35.934  46.245  13.590  1.00  0.00     0.027 C 
ENDBRANCH   1  37
TORSDOF 11
ENDMDL
