MODEL 1
REMARK VINA RESULT: -5.881598758      0.000      0.000
REMARK  2 active torsions:
REMARK  status: ('A' for Active; 'I' for Inactive)
REMARK    1  A    between atoms: C1_2  and  C2_4 
REMARK    2  A    between atoms: C3_11  and  C4_12 
ROOT
HETATM    1  C2  UNL     1      -3.322  13.008 -16.331  1.00  0.00     0.146 A 
HETATM    2  N2  UNL     1      -3.205  14.039 -15.405  1.00  0.00    -0.279 N 
ATOM      3  H2  UNL     1      -2.671  14.013 -14.536  1.00  0.00     0.189 HD
HETATM    4  N3  UNL     1      -3.898  15.038 -15.851  1.00  0.00    -0.242 N 
ATOM      5  H3  UNL     1      -3.993  15.934 -15.371  1.00  0.00     0.208 HD
HETATM    6  N4  UNL     1      -4.465  14.748 -17.001  1.00  0.00    -0.280 N 
ATOM      7  H4  UNL     1      -5.058  15.373 -17.547  1.00  0.00     0.188 HD
HETATM    8  C3  UNL     1      -4.124  13.465 -17.343  1.00  0.00     0.128 A 
ENDROOT
BRANCH   8   9
HETATM    9  C4  UNL     1      -4.561  12.805 -18.541  1.00  0.00     0.155 A 
HETATM   10  N5  UNL     1      -5.333  11.752 -18.765  1.00  0.00    -0.290 N 
HETATM   11  C5  UNL     1      -5.468  11.492 -20.078  1.00  0.00     0.340 A 
ATOM     12  H5  UNL     1      -5.774  11.202 -18.027  1.00  0.00     0.172 HD
HETATM   13  O2  UNL     1      -6.109  10.594 -20.666  1.00  0.00    -0.245 OA
HETATM   14  N6  UNL     1      -4.747  12.423 -20.716  1.00  0.00    -0.250 N 
HETATM   15  N7  UNL     1      -4.209  13.203 -19.806  1.00  0.00    -0.279 N 
ATOM     16  H6  UNL     1      -4.637  12.511 -21.726  1.00  0.00     0.192 HD
ATOM     17  H7  UNL     1      -3.608  14.000 -20.013  1.00  0.00     0.189 HD
ENDBRANCH   8   9
BRANCH   1  18
HETATM   18  C1  UNL     1      -2.680  11.722 -16.174  1.00  0.00     0.285 C 
HETATM   19  N1  UNL     1      -1.553  11.658 -15.280  1.00  0.00    -0.056 NA
HETATM   20  O1  UNL     1      -2.999  10.679 -16.727  1.00  0.00    -0.269 OA
ENDBRANCH   1  18
TORSDOF 2
ENDMDL
MODEL 2
REMARK VINA RESULT: -5.855359312      2.330      5.056
REMARK  2 active torsions:
REMARK  status: ('A' for Active; 'I' for Inactive)
REMARK    1  A    between atoms: C1_2  and  C2_4 
REMARK    2  A    between atoms: C3_11  and  C4_12 
ROOT
HETATM    1  C2  UNL     1      -5.563  12.989 -18.244  1.00  0.00     0.146 A 
HETATM    2  N2  UNL     1      -5.455  13.062 -19.628  1.00  0.00    -0.279 N 
ATOM      3  H2  UNL     1      -6.224  13.024 -20.297  1.00  0.00     0.189 HD
HETATM    4  N3  UNL     1      -4.198  13.188 -19.910  1.00  0.00    -0.242 N 
ATOM      5  H3  UNL     1      -3.824  13.264 -20.856  1.00  0.00     0.208 HD
HETATM    6  N4  UNL     1      -3.465  13.204 -18.819  1.00  0.00    -0.280 N 
ATOM      7  H4  UNL     1      -2.449  13.294 -18.785  1.00  0.00     0.188 HD
HETATM    8  C3  UNL     1      -4.295  13.080 -17.735  1.00  0.00     0.128 A 
ENDROOT
BRANCH   8   9
HETATM    9  C4  UNL     1      -3.846  13.058 -16.371  1.00  0.00     0.155 A 
HETATM   10  N5  UNL     1      -3.128  13.897 -15.640  1.00  0.00    -0.290 N 
HETATM   11  C5  UNL     1      -2.952  13.451 -14.383  1.00  0.00     0.340 A 
ATOM     12  H5  UNL     1      -2.753  14.779 -15.989  1.00  0.00     0.172 HD
HETATM   13  O2  UNL     1      -2.340  13.962 -13.419  1.00  0.00    -0.245 OA
HETATM   14  N6  UNL     1      -3.587  12.274 -14.315  1.00  0.00    -0.250 N 
HETATM   15  N7  UNL     1      -4.117  12.039 -15.492  1.00  0.00    -0.279 N 
ATOM     16  H6  UNL     1      -3.647  11.670 -13.496  1.00  0.00     0.192 HD
ATOM     17  H7  UNL     1      -4.661  11.208 -15.724  1.00  0.00     0.189 HD
ENDBRANCH   8   9
BRANCH   1  18
HETATM   18  C1  UNL     1      -6.824  12.844 -17.551  1.00  0.00     0.285 C 
HETATM   19  N1  UNL     1      -7.919  13.662 -18.007  1.00  0.00    -0.056 NA
HETATM   20  O1  UNL     1      -7.057  12.094 -16.614  1.00  0.00    -0.269 OA
ENDBRANCH   1  18
TORSDOF 2
ENDMDL
MODEL 3
REMARK VINA RESULT: -5.776825196      2.476      5.204
REMARK  2 active torsions:
REMARK  status: ('A' for Active; 'I' for Inactive)
REMARK    1  A    between atoms: C1_2  and  C2_4 
REMARK    2  A    between atoms: C3_11  and  C4_12 
ROOT
HETATM    1  C2  UNL     1      -5.851  13.292 -18.914  1.00  0.00     0.146 A 
HETATM    2  N2  UNL     1      -5.746  12.595 -20.113  1.00  0.00    -0.279 N 
ATOM      3  H2  UNL     1      -6.502  12.113 -20.600  1.00  0.00     0.189 HD
HETATM    4  N3  UNL     1      -4.511  12.673 -20.497  1.00  0.00    -0.242 N 
ATOM      5  H3  UNL     1      -4.145  12.249 -21.350  1.00  0.00     0.208 HD
HETATM    6  N4  UNL     1      -3.791  13.367 -19.644  1.00  0.00    -0.280 N 
ATOM      7  H4  UNL     1      -2.794  13.565 -19.730  1.00  0.00     0.188 HD
HETATM    8  C3  UNL     1      -4.605  13.780 -18.622  1.00  0.00     0.128 A 
ENDROOT
BRANCH   8   9
HETATM    9  C4  UNL     1      -4.163  14.565 -17.503  1.00  0.00     0.155 A 
HETATM   10  N5  UNL     1      -3.045  14.582 -16.793  1.00  0.00    -0.290 N 
HETATM   11  C5  UNL     1      -3.077  15.507 -15.817  1.00  0.00     0.340 A 
ATOM     12  H5  UNL     1      -2.251  13.964 -16.966  1.00  0.00     0.172 HD
HETATM   13  O2  UNL     1      -2.221  15.812 -14.959  1.00  0.00    -0.245 OA
HETATM   14  N6  UNL     1      -4.272  16.105 -15.914  1.00  0.00    -0.250 N 
HETATM   15  N7  UNL     1      -4.917  15.548 -16.913  1.00  0.00    -0.279 N 
ATOM     16  H6  UNL     1      -4.618  16.857 -15.318  1.00  0.00     0.192 HD
ATOM     17  H7  UNL     1      -5.855  15.812 -17.211  1.00  0.00     0.189 HD
ENDBRANCH   8   9
BRANCH   1  18
HETATM   18  C1  UNL     1      -7.088  13.426 -18.178  1.00  0.00     0.285 C 
HETATM   19  N1  UNL     1      -7.784  14.682 -18.292  1.00  0.00    -0.056 NA
HETATM   20  O1  UNL     1      -7.606  12.577 -17.466  1.00  0.00    -0.269 OA
ENDBRANCH   1  18
TORSDOF 2
ENDMDL
MODEL 4
REMARK VINA RESULT: -5.767304250      2.193      5.052
REMARK  2 active torsions:
REMARK  status: ('A' for Active; 'I' for Inactive)
REMARK    1  A    between atoms: C1_2  and  C2_4 
REMARK    2  A    between atoms: C3_11  and  C4_12 
ROOT
HETATM    1  C2  UNL     1      -4.868  12.141 -18.352  1.00  0.00     0.146 A 
HETATM    2  N2  UNL     1      -5.789  11.401 -19.085  1.00  0.00    -0.279 N 
ATOM      3  H2  UNL     1      -5.992  11.502 -20.080  1.00  0.00     0.189 HD
HETATM    4  N3  UNL     1      -6.342  10.558 -18.271  1.00  0.00    -0.242 N 
ATOM      5  H3  UNL     1      -7.060   9.885 -18.538  1.00  0.00     0.208 HD
HETATM    6  N4  UNL     1      -5.856  10.684 -17.056  1.00  0.00    -0.280 N 
ATOM      7  H4  UNL     1      -6.134  10.132 -16.244  1.00  0.00     0.188 HD
HETATM    8  C3  UNL     1      -4.915  11.680 -17.063  1.00  0.00     0.128 A 
ENDROOT
BRANCH   8   9
HETATM    9  C4  UNL     1      -4.171  12.098 -15.908  1.00  0.00     0.155 A 
HETATM   10  N5  UNL     1      -3.509  13.205 -15.609  1.00  0.00    -0.290 N 
HETATM   11  C5  UNL     1      -2.954  13.149 -14.384  1.00  0.00     0.340 A 
ATOM     12  H5  UNL     1      -3.430  14.007 -16.234  1.00  0.00     0.172 HD
HETATM   13  O2  UNL     1      -2.266  13.990 -13.766  1.00  0.00    -0.245 OA
HETATM   14  N6  UNL     1      -3.280  11.950 -13.885  1.00  0.00    -0.250 N 
HETATM   15  N7  UNL     1      -4.001  11.325 -14.787  1.00  0.00    -0.279 N 
ATOM     16  H6  UNL     1      -3.015  11.587 -12.969  1.00  0.00     0.192 HD
ATOM     17  H7  UNL     1      -4.385  10.388 -14.669  1.00  0.00     0.189 HD
ENDBRANCH   8   9
BRANCH   1  18
HETATM   18  C1  UNL     1      -4.051  13.186 -18.927  1.00  0.00     0.285 C 
HETATM   19  N1  UNL     1      -4.299  14.532 -18.478  1.00  0.00    -0.056 NA
HETATM   20  O1  UNL     1      -3.166  13.042 -19.759  1.00  0.00    -0.269 OA
ENDBRANCH   1  18
TORSDOF 2
ENDMDL
MODEL 5
REMARK VINA RESULT: -5.766388468      4.610      6.192
REMARK  2 active torsions:
REMARK  status: ('A' for Active; 'I' for Inactive)
REMARK    1  A    between atoms: C1_2  and  C2_4 
REMARK    2  A    between atoms: C3_11  and  C4_12 
ROOT
HETATM    1  C2  UNL     1      -4.505  18.995 -15.271  1.00  0.00     0.146 A 
HETATM    2  N2  UNL     1      -4.120  20.330 -15.320  1.00  0.00    -0.279 N 
ATOM      3  H2  UNL     1      -4.622  21.120 -14.914  1.00  0.00     0.189 HD
HETATM    4  N3  UNL     1      -3.004  20.386 -15.976  1.00  0.00    -0.242 N 
ATOM      5  H3  UNL     1      -2.489  21.246 -16.167  1.00  0.00     0.208 HD
HETATM    6  N4  UNL     1      -2.621  19.190 -16.364  1.00  0.00    -0.280 N 
ATOM      7  H4  UNL     1      -1.776  18.978 -16.895  1.00  0.00     0.188 HD
HETATM    8  C3  UNL     1      -3.548  18.275 -15.936  1.00  0.00     0.128 A 
ENDROOT
BRANCH   8   9
HETATM    9  C4  UNL     1      -3.461  16.862 -16.178  1.00  0.00     0.155 A 
HETATM   10  N5  UNL     1      -2.443  16.036 -16.363  1.00  0.00    -0.290 N 
HETATM   11  C5  UNL     1      -2.848  14.767 -16.559  1.00  0.00     0.340 A 
ATOM     12  H5  UNL     1      -1.465  16.326 -16.357  1.00  0.00     0.172 HD
HETATM   13  O2  UNL     1      -2.186  13.727 -16.763  1.00  0.00    -0.245 OA
HETATM   14  N6  UNL     1      -4.186  14.792 -16.495  1.00  0.00    -0.250 N 
HETATM   15  N7  UNL     1      -4.551  16.033 -16.270  1.00  0.00    -0.279 N 
ATOM     16  H6  UNL     1      -4.808  13.992 -16.603  1.00  0.00     0.192 HD
ATOM     17  H7  UNL     1      -5.519  16.341 -16.175  1.00  0.00     0.189 HD
ENDBRANCH   8   9
BRANCH   1  18
HETATM   18  C1  UNL     1      -5.710  18.539 -14.615  1.00  0.00     0.285 C 
HETATM   19  N1  UNL     1      -6.945  19.173 -15.001  1.00  0.00    -0.056 NA
HETATM   20  O1  UNL     1      -5.787  17.666 -13.762  1.00  0.00    -0.269 OA
ENDBRANCH   1  18
TORSDOF 2
ENDMDL
