MODEL 1
REMARK VINA RESULT: -5.226246659      0.000      0.000
REMARK  4 active torsions:
REMARK  status: ('A' for Active; 'I' for Inactive)
REMARK    1  A    between atoms: C2_2  and  N1_3 
REMARK    2  A    between atoms: C2_2  and  S1_14 
REMARK    3  A    between atoms: C4_10  and  N5_11 
REMARK    4  A    between atoms: S1_14  and  N6_15 
ROOT
HETATM    1  N1  UNL     1      -4.594  14.576 -17.566  1.00  0.00    -0.072 N 
HETATM    2  N2  UNL     1      -5.780  15.143 -17.218  1.00  0.00    -0.251 N 
ATOM      3  H2  UNL     1      -6.009  15.514 -16.297  1.00  0.00     0.191 HD
HETATM    4  C3  UNL     1      -6.599  15.137 -18.278  1.00  0.00     0.222 A 
HETATM    5  N3  UNL     1      -7.938  15.634 -18.356  1.00  0.00    -0.061 NA
HETATM    6  N4  UNL     1      -5.900  14.563 -19.266  1.00  0.00    -0.161 N 
ATOM      7  H4  UNL     1      -6.254  14.412 -20.211  1.00  0.00     0.187 HD
HETATM    8  C4  UNL     1      -4.651  14.207 -18.839  1.00  0.00     0.700 A 
ENDROOT
BRANCH   1   9
HETATM    9  C2  UNL     1      -3.508  14.406 -16.661  1.00  0.00     0.179 C 
HETATM   10  C1  UNL     1      -2.732  15.363 -16.231  1.00  0.00     0.061 C 
BRANCH   9  11
HETATM   11  S1  UNL     1      -3.170  12.765 -16.060  1.00  0.00     0.274 S 
HETATM   12  O1  UNL     1      -2.455  11.968 -17.112  1.00  0.00    -0.199 OA
HETATM   13  O2  UNL     1      -2.316  12.850 -14.827  1.00  0.00    -0.199 OA
BRANCH  11  14
HETATM   14  N6  UNL     1      -4.652  11.973 -15.671  1.00  0.00    -0.323 N 
ATOM     15  H62 UNL     1      -5.575  12.398 -15.764  1.00  0.00     0.169 HD
ATOM     16  H61 UNL     1      -4.460  11.028 -15.339  1.00  0.00     0.169 HD
ENDBRANCH  11  14
ENDBRANCH   9  11
ENDBRANCH   1   9
BRANCH   8  17
HETATM   17  N5  UNL     1      -3.791  13.609 -19.564  1.00  0.00    -0.233 N 
ATOM     18  H52 UNL     1      -3.829  12.617 -19.798  1.00  0.00     0.174 HD
ATOM     19  H51 UNL     1      -2.936  13.959 -19.996  1.00  0.00     0.174 HD
ENDBRANCH   8  17
TORSDOF 4
ENDMDL
MODEL 2
REMARK VINA RESULT: -5.158113734      1.354      1.381
REMARK  4 active torsions:
REMARK  status: ('A' for Active; 'I' for Inactive)
REMARK    1  A    between atoms: C2_2  and  N1_3 
REMARK    2  A    between atoms: C2_2  and  S1_14 
REMARK    3  A    between atoms: C4_10  and  N5_11 
REMARK    4  A    between atoms: S1_14  and  N6_15 
ROOT
HETATM    1  N1  UNL     1      -4.688  13.865 -17.596  1.00  0.00    -0.072 N 
HETATM    2  N2  UNL     1      -5.982  13.877 -17.178  1.00  0.00    -0.251 N 
ATOM      3  H2  UNL     1      -6.290  14.009 -16.215  1.00  0.00     0.191 HD
HETATM    4  C3  UNL     1      -6.787  13.689 -18.231  1.00  0.00     0.222 A 
HETATM    5  N3  UNL     1      -8.217  13.631 -18.245  1.00  0.00    -0.061 NA
HETATM    6  N4  UNL     1      -5.972  13.562 -19.286  1.00  0.00    -0.161 N 
ATOM      7  H4  UNL     1      -6.287  13.407 -20.244  1.00  0.00     0.187 HD
HETATM    8  C4  UNL     1      -4.663  13.668 -18.908  1.00  0.00     0.700 A 
ENDROOT
BRANCH   1   9
HETATM    9  C2  UNL     1      -3.577  14.018 -16.720  1.00  0.00     0.179 C 
HETATM   10  C1  UNL     1      -2.830  15.085 -16.631  1.00  0.00     0.061 C 
BRANCH   9  11
HETATM   11  S1  UNL     1      -3.161  12.655 -15.654  1.00  0.00     0.274 S 
HETATM   12  O1  UNL     1      -4.228  11.600 -15.725  1.00  0.00    -0.199 OA
HETATM   13  O2  UNL     1      -1.846  12.067 -16.081  1.00  0.00    -0.199 OA
BRANCH  11  14
HETATM   14  N6  UNL     1      -3.033  13.209 -14.025  1.00  0.00    -0.323 N 
ATOM     15  H62 UNL     1      -2.250  13.752 -13.661  1.00  0.00     0.169 HD
ATOM     16  H61 UNL     1      -3.852  12.910 -13.495  1.00  0.00     0.169 HD
ENDBRANCH  11  14
ENDBRANCH   9  11
ENDBRANCH   1   9
BRANCH   8  17
HETATM   17  N5  UNL     1      -3.676  13.550 -19.705  1.00  0.00    -0.233 N 
ATOM     18  H52 UNL     1      -2.699  13.552 -19.411  1.00  0.00     0.174 HD
ATOM     19  H51 UNL     1      -3.655  13.472 -20.721  1.00  0.00     0.174 HD
ENDBRANCH   8  17
TORSDOF 4
ENDMDL
MODEL 3
REMARK VINA RESULT: -5.123159352      3.027      4.865
REMARK  4 active torsions:
REMARK  status: ('A' for Active; 'I' for Inactive)
REMARK    1  A    between atoms: C2_2  and  N1_3 
REMARK    2  A    between atoms: C2_2  and  S1_14 
REMARK    3  A    between atoms: C4_10  and  N5_11 
REMARK    4  A    between atoms: S1_14  and  N6_15 
ROOT
HETATM    1  N1  UNL     1      -3.569  12.446 -17.185  1.00  0.00    -0.072 N 
HETATM    2  N2  UNL     1      -2.233  12.261 -17.012  1.00  0.00    -0.251 N 
ATOM      3  H2  UNL     1      -1.504  12.583 -17.649  1.00  0.00     0.191 HD
HETATM    4  C3  UNL     1      -2.024  11.589 -15.873  1.00  0.00     0.222 A 
HETATM    5  N3  UNL     1      -0.774  11.183 -15.308  1.00  0.00    -0.061 NA
HETATM    6  N4  UNL     1      -3.242  11.369 -15.360  1.00  0.00    -0.161 N 
ATOM      7  H4  UNL     1      -3.420  10.874 -14.486  1.00  0.00     0.187 HD
HETATM    8  C4  UNL     1      -4.214  11.895 -16.165  1.00  0.00     0.700 A 
ENDROOT
BRANCH   1   9
HETATM    9  C2  UNL     1      -4.132  13.109 -18.312  1.00  0.00     0.179 C 
HETATM   10  C1  UNL     1      -4.069  14.393 -18.538  1.00  0.00     0.061 C 
BRANCH   9  11
HETATM   11  S1  UNL     1      -4.991  12.122 -19.518  1.00  0.00     0.274 S 
HETATM   12  O1  UNL     1      -4.211  12.080 -20.801  1.00  0.00    -0.199 OA
HETATM   13  O2  UNL     1      -5.165  10.726 -18.991  1.00  0.00    -0.199 OA
BRANCH  11  14
HETATM   14  N6  UNL     1      -6.543  12.808 -19.831  1.00  0.00    -0.323 N 
ATOM     15  H62 UNL     1      -6.733  13.492 -20.564  1.00  0.00     0.169 HD
ATOM     16  H61 UNL     1      -7.226  12.426 -19.177  1.00  0.00     0.169 HD
ENDBRANCH  11  14
ENDBRANCH   9  11
ENDBRANCH   1   9
BRANCH   8  17
HETATM   17  N5  UNL     1      -5.463  11.798 -15.935  1.00  0.00    -0.233 N 
ATOM     18  H52 UNL     1      -5.991  12.451 -15.356  1.00  0.00     0.174 HD
ATOM     19  H51 UNL     1      -6.134  11.089 -16.228  1.00  0.00     0.174 HD
ENDBRANCH   8  17
TORSDOF 4
ENDMDL
MODEL 4
REMARK VINA RESULT: -5.109014114      1.502      1.742
REMARK  4 active torsions:
REMARK  status: ('A' for Active; 'I' for Inactive)
REMARK    1  A    between atoms: C2_2  and  N1_3 
REMARK    2  A    between atoms: C2_2  and  S1_14 
REMARK    3  A    between atoms: C4_10  and  N5_11 
REMARK    4  A    between atoms: S1_14  and  N6_15 
ROOT
HETATM    1  N1  UNL     1      -4.888  13.415 -17.630  1.00  0.00    -0.072 N 
HETATM    2  N2  UNL     1      -5.895  14.168 -17.112  1.00  0.00    -0.251 N 
ATOM      3  H2  UNL     1      -6.302  14.053 -16.184  1.00  0.00     0.191 HD
HETATM    4  C3  UNL     1      -6.268  15.085 -18.013  1.00  0.00     0.222 A 
HETATM    5  N3  UNL     1      -7.288  16.080 -17.885  1.00  0.00    -0.061 NA
HETATM    6  N4  UNL     1      -5.481  14.880 -19.078  1.00  0.00    -0.161 N 
ATOM      7  H4  UNL     1      -5.521  15.425 -19.939  1.00  0.00     0.187 HD
HETATM    8  C4  UNL     1      -4.618  13.844 -18.856  1.00  0.00     0.700 A 
ENDROOT
BRANCH   1   9
HETATM    9  C2  UNL     1      -4.276  12.334 -16.934  1.00  0.00     0.179 C 
HETATM   10  C1  UNL     1      -4.594  11.075 -17.072  1.00  0.00     0.061 C 
BRANCH   9  11
HETATM   11  S1  UNL     1      -2.973  12.713 -15.783  1.00  0.00     0.274 S 
HETATM   12  O1  UNL     1      -1.657  12.223 -16.315  1.00  0.00    -0.199 OA
HETATM   13  O2  UNL     1      -2.908  14.199 -15.572  1.00  0.00    -0.199 OA
BRANCH  11  14
HETATM   14  N6  UNL     1      -3.287  11.938 -14.274  1.00  0.00    -0.323 N 
ATOM     15  H62 UNL     1      -3.747  12.386 -13.481  1.00  0.00     0.169 HD
ATOM     16  H61 UNL     1      -2.944  10.978 -14.302  1.00  0.00     0.169 HD
ENDBRANCH  11  14
ENDBRANCH   9  11
ENDBRANCH   1   9
BRANCH   8  17
HETATM   17  N5  UNL     1      -3.783  13.411 -19.715  1.00  0.00    -0.233 N 
ATOM     18  H52 UNL     1      -4.043  13.016 -20.618  1.00  0.00     0.174 HD
ATOM     19  H51 UNL     1      -2.766  13.343 -19.670  1.00  0.00     0.174 HD
ENDBRANCH   8  17
TORSDOF 4
ENDMDL
MODEL 5
REMARK VINA RESULT: -4.944765220      1.179      2.388
REMARK  4 active torsions:
REMARK  status: ('A' for Active; 'I' for Inactive)
REMARK    1  A    between atoms: C2_2  and  N1_3 
REMARK    2  A    between atoms: C2_2  and  S1_14 
REMARK    3  A    between atoms: C4_10  and  N5_11 
REMARK    4  A    between atoms: S1_14  and  N6_15 
ROOT
HETATM    1  N1  UNL     1      -4.122  13.745 -17.516  1.00  0.00    -0.072 N 
HETATM    2  N2  UNL     1      -3.628  12.917 -18.475  1.00  0.00    -0.251 N 
ATOM      3  H2  UNL     1      -2.718  12.459 -18.449  1.00  0.00     0.191 HD
HETATM    4  C3  UNL     1      -4.528  12.798 -19.460  1.00  0.00     0.222 A 
HETATM    5  N3  UNL     1      -4.419  12.026 -20.660  1.00  0.00    -0.061 NA
HETATM    6  N4  UNL     1      -5.566  13.559 -19.090  1.00  0.00    -0.161 N 
ATOM      7  H4  UNL     1      -6.419  13.677 -19.637  1.00  0.00     0.187 HD
HETATM    8  C4  UNL     1      -5.329  14.156 -17.884  1.00  0.00     0.700 A 
ENDROOT
BRANCH   1   9
HETATM    9  C2  UNL     1      -3.405  14.101 -16.339  1.00  0.00     0.179 C 
HETATM   10  C1  UNL     1      -3.055  15.314 -16.010  1.00  0.00     0.061 C 
BRANCH   9  11
HETATM   11  S1  UNL     1      -2.945  12.799 -15.216  1.00  0.00     0.274 S 
HETATM   12  O1  UNL     1      -1.787  12.023 -15.774  1.00  0.00    -0.199 OA
HETATM   13  O2  UNL     1      -2.559  13.393 -13.891  1.00  0.00    -0.199 OA
BRANCH  11  14
HETATM   14  N6  UNL     1      -4.278  11.727 -14.991  1.00  0.00    -0.323 N 
ATOM     15  H62 UNL     1      -4.237  10.864 -14.450  1.00  0.00     0.169 HD
ATOM     16  H61 UNL     1      -5.097  12.090 -15.479  1.00  0.00     0.169 HD
ENDBRANCH  11  14
ENDBRANCH   9  11
ENDBRANCH   1   9
BRANCH   8  17
HETATM   17  N5  UNL     1      -6.134  14.962 -17.314  1.00  0.00    -0.233 N 
ATOM     18  H52 UNL     1      -7.145  14.954 -17.451  1.00  0.00     0.174 HD
ATOM     19  H51 UNL     1      -5.951  15.740 -16.681  1.00  0.00     0.174 HD
ENDBRANCH   8  17
TORSDOF 4
ENDMDL
