MODEL 1
REMARK VINA RESULT: -7.255252181      0.000      0.000
REMARK  8 active torsions:
REMARK  status: ('A' for Active; 'I' for Inactive)
REMARK    1  A    between atoms: O1_2  and  C2_3 
REMARK    2  A    between atoms: C2_3  and  N1_4 
REMARK    3  A    between atoms: C5_8  and  N3_9 
REMARK    4  A    between atoms: N3_9  and  C6_11 
REMARK    5  A    between atoms: C6_11  and  C7_12 
REMARK    6  A    between atoms: C7_12  and  N4_13 
REMARK    7  A    between atoms: N4_13  and  C8_15 
REMARK    8  A    between atoms: C9_20  and  N7_21 
ROOT
HETATM    1  C6  UNL     1      24.152  15.912  61.183  1.00  0.00     0.141 C 
ENDROOT
BRANCH   1   2
HETATM    2  N3  UNL     1      23.747  15.934  62.574  1.00  0.00    -0.375 N 
ATOM      3  H3  UNL     1      23.235  15.157  62.992  1.00  0.00     0.161 HD
BRANCH   2   4
HETATM    4  C5  UNL     1      24.063  16.977  63.259  1.00  0.00     0.108 A 
HETATM    5  C4  UNL     1      25.392  17.261  63.456  1.00  0.00     0.094 A 
HETATM    6  C3  UNL     1      25.726  18.376  64.186  1.00  0.00     0.131 A 
HETATM    7  N1  UNL     1      24.780  19.211  64.723  1.00  0.00    -0.242 N 
HETATM    8  N2  UNL     1      27.080  18.730  64.428  1.00  0.00    -0.082 NA
HETATM    9  C10 UNL     1      23.503  18.898  64.509  1.00  0.00     0.335 A 
HETATM   10  N9  UNL     1      23.154  17.812  63.797  1.00  0.00    -0.294 N 
HETATM   11  O2  UNL     1      22.600  19.618  64.976  1.00  0.00    -0.246 OA
ATOM     12  H9  UNL     1      22.163  17.613  63.658  1.00  0.00     0.172 HD
BRANCH   7  13
HETATM   13  C2  UNL     1      25.159  20.353  65.498  1.00  0.00     0.238 C 
BRANCH  13  14
HETATM   14  O1  UNL     1      25.255  21.531  64.825  1.00  0.00    -0.351 OA
HETATM   15  C1  UNL     1      26.410  22.257  65.017  1.00  0.00     0.210 C 
ENDBRANCH  13  14
ENDBRANCH   7  13
ENDBRANCH   2   4
ENDBRANCH   1   2
BRANCH   1  16
HETATM   16  C7  UNL     1      25.291  14.942  60.953  1.00  0.00     0.157 C 
BRANCH  16  17
HETATM   17  N4  UNL     1      26.181  15.430  59.934  1.00  0.00    -0.223 N 
ATOM     18  H4  UNL     1      26.349  14.843  59.117  1.00  0.00     0.177 HD
BRANCH  17  19
HETATM   19  C8  UNL     1      26.775  16.571  59.999  1.00  0.00     0.707 A 
HETATM   20  N5  UNL     1      26.794  17.595  59.129  1.00  0.00    -0.117 N 
HETATM   21  N6  UNL     1      27.537  18.578  59.598  1.00  0.00    -0.118 N 
ATOM     22  H5  UNL     1      26.304  17.610  58.234  1.00  0.00     0.206 HD
HETATM   23  C9  UNL     1      28.025  18.200  60.813  1.00  0.00     0.705 A 
ATOM     24  H6  UNL     1      27.716  19.467  59.132  1.00  0.00     0.206 HD
HETATM   25  N8  UNL     1      27.537  16.955  61.033  1.00  0.00    -0.020 N 
ATOM     26  H8  UNL     1      27.721  16.393  61.864  1.00  0.00     0.203 HD
BRANCH  23  27
HETATM   27  N7  UNL     1      28.780  18.869  61.586  1.00  0.00    -0.233 N 
ATOM     28  H72 UNL     1      28.571  19.165  62.539  1.00  0.00     0.174 HD
ATOM     29  H71 UNL     1      29.717  19.221  61.386  1.00  0.00     0.174 HD
ENDBRANCH  23  27
ENDBRANCH  17  19
ENDBRANCH  16  17
ENDBRANCH   1  16
TORSDOF 8
ENDMDL
MODEL 2
REMARK VINA RESULT: -7.230156284      1.788      3.633
REMARK  8 active torsions:
REMARK  status: ('A' for Active; 'I' for Inactive)
REMARK    1  A    between atoms: O1_2  and  C2_3 
REMARK    2  A    between atoms: C2_3  and  N1_4 
REMARK    3  A    between atoms: C5_8  and  N3_9 
REMARK    4  A    between atoms: N3_9  and  C6_11 
REMARK    5  A    between atoms: C6_11  and  C7_12 
REMARK    6  A    between atoms: C7_12  and  N4_13 
REMARK    7  A    between atoms: N4_13  and  C8_15 
REMARK    8  A    between atoms: C9_20  and  N7_21 
ROOT
HETATM    1  C6  UNL     1      27.537  15.594  60.601  1.00  0.00     0.141 C 
ENDROOT
BRANCH   1   2
HETATM    2  N3  UNL     1      27.470  16.993  60.228  1.00  0.00    -0.375 N 
ATOM      3  H3  UNL     1      27.377  17.280  59.253  1.00  0.00     0.161 HD
BRANCH   2   4
HETATM    4  C5  UNL     1      27.533  17.857  61.180  1.00  0.00     0.108 A 
HETATM    5  C4  UNL     1      28.754  18.396  61.503  1.00  0.00     0.094 A 
HETATM    6  C3  UNL     1      28.818  19.318  62.518  1.00  0.00     0.131 A 
HETATM    7  N1  UNL     1      27.709  19.717  63.218  1.00  0.00    -0.242 N 
HETATM    8  N2  UNL     1      30.047  19.917  62.905  1.00  0.00    -0.082 NA
HETATM    9  C10 UNL     1      26.545  19.169  62.873  1.00  0.00     0.335 A 
HETATM   10  N9  UNL     1      26.459  18.264  61.881  1.00  0.00    -0.294 N 
HETATM   11  O2  UNL     1      25.503  19.490  63.476  1.00  0.00    -0.246 OA
ATOM     12  H9  UNL     1      25.546  17.872  61.652  1.00  0.00     0.172 HD
BRANCH   7  13
HETATM   13  C2  UNL     1      27.811  20.664  64.286  1.00  0.00     0.238 C 
BRANCH  13  14
HETATM   14  O1  UNL     1      27.414  21.934  64.004  1.00  0.00    -0.351 OA
HETATM   15  C1  UNL     1      26.517  22.508  64.879  1.00  0.00     0.210 C 
ENDBRANCH  13  14
ENDBRANCH   7  13
ENDBRANCH   2   4
ENDBRANCH   1   2
BRANCH   1  16
HETATM   16  C7  UNL     1      26.584  14.754  59.778  1.00  0.00     0.157 C 
BRANCH  16  17
HETATM   17  N4  UNL     1      25.382  14.474  60.517  1.00  0.00    -0.223 N 
ATOM     18  H4  UNL     1      25.082  13.502  60.600  1.00  0.00     0.177 HD
BRANCH  17  19
HETATM   19  C8  UNL     1      24.666  15.385  61.078  1.00  0.00     0.707 A 
HETATM   20  N5  UNL     1      23.924  16.367  60.538  1.00  0.00    -0.117 N 
HETATM   21  N6  UNL     1      23.351  17.080  61.486  1.00  0.00    -0.118 N 
ATOM     22  H5  UNL     1      23.819  16.535  59.537  1.00  0.00     0.206 HD
HETATM   23  C9  UNL     1      23.720  16.560  62.691  1.00  0.00     0.705 A 
ATOM     24  H6  UNL     1      22.739  17.883  61.344  1.00  0.00     0.206 HD
HETATM   25  N8  UNL     1      24.533  15.513  62.406  1.00  0.00    -0.020 N 
ATOM     26  H8  UNL     1      24.977  14.912  63.099  1.00  0.00     0.203 HD
BRANCH  23  27
HETATM   27  N7  UNL     1      23.378  16.965  63.847  1.00  0.00    -0.233 N 
ATOM     28  H72 UNL     1      22.578  17.555  64.075  1.00  0.00     0.174 HD
ATOM     29  H71 UNL     1      23.841  16.771  64.735  1.00  0.00     0.174 HD
ENDBRANCH  23  27
ENDBRANCH  17  19
ENDBRANCH  16  17
ENDBRANCH   1  16
TORSDOF 8
ENDMDL
MODEL 3
REMARK VINA RESULT: -7.008379829      2.378      4.120
REMARK  8 active torsions:
REMARK  status: ('A' for Active; 'I' for Inactive)
REMARK    1  A    between atoms: O1_2  and  C2_3 
REMARK    2  A    between atoms: C2_3  and  N1_4 
REMARK    3  A    between atoms: C5_8  and  N3_9 
REMARK    4  A    between atoms: N3_9  and  C6_11 
REMARK    5  A    between atoms: C6_11  and  C7_12 
REMARK    6  A    between atoms: C7_12  and  N4_13 
REMARK    7  A    between atoms: N4_13  and  C8_15 
REMARK    8  A    between atoms: C9_20  and  N7_21 
ROOT
HETATM    1  C6  UNL     1      27.527  14.914  60.587  1.00  0.00     0.141 C 
ENDROOT
BRANCH   1   2
HETATM    2  N3  UNL     1      28.098  15.230  61.880  1.00  0.00    -0.375 N 
ATOM      3  H3  UNL     1      28.298  14.502  62.566  1.00  0.00     0.161 HD
BRANCH   2   4
HETATM    4  C5  UNL     1      28.340  16.470  62.126  1.00  0.00     0.108 A 
HETATM    5  C4  UNL     1      29.402  16.787  62.939  1.00  0.00     0.094 A 
HETATM    6  C3  UNL     1      29.659  18.111  63.198  1.00  0.00     0.131 A 
HETATM    7  N1  UNL     1      28.896  19.123  62.675  1.00  0.00    -0.242 N 
HETATM    8  N2  UNL     1      30.739  18.511  64.029  1.00  0.00    -0.082 NA
HETATM    9  C10 UNL     1      27.877  18.771  61.893  1.00  0.00     0.335 A 
HETATM   10  N9  UNL     1      27.607  17.481  61.625  1.00  0.00    -0.294 N 
HETATM   11  O2  UNL     1      27.146  19.648  61.392  1.00  0.00    -0.246 OA
ATOM     12  H9  UNL     1      26.816  17.260  61.020  1.00  0.00     0.172 HD
BRANCH   7  13
HETATM   13  C2  UNL     1      29.176  20.492  62.981  1.00  0.00     0.238 C 
BRANCH  13  14
HETATM   14  O1  UNL     1      28.173  21.194  63.574  1.00  0.00    -0.351 OA
HETATM   15  C1  UNL     1      28.044  21.052  64.939  1.00  0.00     0.210 C 
ENDBRANCH  13  14
ENDBRANCH   7  13
ENDBRANCH   2   4
ENDBRANCH   1   2
BRANCH   1  16
HETATM   16  C7  UNL     1      26.495  13.811  60.691  1.00  0.00     0.157 C 
BRANCH  16  17
HETATM   17  N4  UNL     1      25.182  14.308  60.378  1.00  0.00    -0.223 N 
ATOM     18  H4  UNL     1      24.645  13.833  59.653  1.00  0.00     0.177 HD
BRANCH  17  19
HETATM   19  C8  UNL     1      24.650  15.323  60.966  1.00  0.00     0.707 A 
HETATM   20  N5  UNL     1      24.241  16.503  60.469  1.00  0.00    -0.117 N 
HETATM   21  N6  UNL     1      23.752  17.259  61.432  1.00  0.00    -0.118 N 
ATOM     22  H5  UNL     1      24.300  16.774  59.487  1.00  0.00     0.206 HD
HETATM   23  C9  UNL     1      23.836  16.564  62.602  1.00  0.00     0.705 A 
ATOM     24  H6  UNL     1      23.376  18.200  61.321  1.00  0.00     0.206 HD
HETATM   25  N8  UNL     1      24.395  15.372  62.281  1.00  0.00    -0.020 N 
ATOM     26  H8  UNL     1      24.593  14.622  62.943  1.00  0.00     0.203 HD
BRANCH  23  27
HETATM   27  N7  UNL     1      23.469  16.947  63.757  1.00  0.00    -0.233 N 
ATOM     28  H72 UNL     1      24.051  17.013  64.592  1.00  0.00     0.174 HD
ATOM     29  H71 UNL     1      22.539  17.251  64.044  1.00  0.00     0.174 HD
ENDBRANCH  23  27
ENDBRANCH  17  19
ENDBRANCH  16  17
ENDBRANCH   1  16
TORSDOF 8
ENDMDL
MODEL 4
REMARK VINA RESULT: -6.988687956      1.053      1.747
REMARK  8 active torsions:
REMARK  status: ('A' for Active; 'I' for Inactive)
REMARK    1  A    between atoms: O1_2  and  C2_3 
REMARK    2  A    between atoms: C2_3  and  N1_4 
REMARK    3  A    between atoms: C5_8  and  N3_9 
REMARK    4  A    between atoms: N3_9  and  C6_11 
REMARK    5  A    between atoms: C6_11  and  C7_12 
REMARK    6  A    between atoms: C7_12  and  N4_13 
REMARK    7  A    between atoms: N4_13  and  C8_15 
REMARK    8  A    between atoms: C9_20  and  N7_21 
ROOT
HETATM    1  C6  UNL     1      24.203  16.051  61.304  1.00  0.00     0.141 C 
ENDROOT
BRANCH   1   2
HETATM    2  N3  UNL     1      23.874  16.060  62.715  1.00  0.00    -0.375 N 
ATOM      3  H3  UNL     1      23.355  15.295  63.146  1.00  0.00     0.161 HD
BRANCH   2   4
HETATM    4  C5  UNL     1      24.266  17.076  63.401  1.00  0.00     0.108 A 
HETATM    5  C4  UNL     1      23.338  17.775  64.135  1.00  0.00     0.094 A 
HETATM    6  C3  UNL     1      23.759  18.857  64.867  1.00  0.00     0.131 A 
HETATM    7  N1  UNL     1      25.069  19.263  64.890  1.00  0.00    -0.242 N 
HETATM    8  N2  UNL     1      22.856  19.625  65.649  1.00  0.00    -0.082 NA
HETATM    9  C10 UNL     1      25.934  18.559  64.163  1.00  0.00     0.335 A 
HETATM   10  N9  UNL     1      25.544  17.494  63.439  1.00  0.00    -0.294 N 
HETATM   11  O2  UNL     1      27.138  18.883  64.143  1.00  0.00    -0.246 OA
ATOM     12  H9  UNL     1      26.243  16.984  62.899  1.00  0.00     0.172 HD
BRANCH   7  13
HETATM   13  C2  UNL     1      25.473  20.410  65.645  1.00  0.00     0.238 C 
BRANCH  13  14
HETATM   14  O1  UNL     1      25.412  21.607  65.002  1.00  0.00    -0.351 OA
HETATM   15  C1  UNL     1      26.584  22.327  64.927  1.00  0.00     0.210 C 
ENDBRANCH  13  14
ENDBRANCH   7  13
ENDBRANCH   2   4
ENDBRANCH   1   2
BRANCH   1  16
HETATM   16  C7  UNL     1      25.252  15.008  60.986  1.00  0.00     0.157 C 
BRANCH  16  17
HETATM   17  N4  UNL     1      26.138  15.472  59.952  1.00  0.00    -0.223 N 
ATOM     18  H4  UNL     1      26.278  14.880  59.133  1.00  0.00     0.177 HD
BRANCH  17  19
HETATM   19  C8  UNL     1      26.763  16.597  60.007  1.00  0.00     0.707 A 
HETATM   20  N5  UNL     1      26.772  17.632  59.149  1.00  0.00    -0.117 N 
HETATM   21  N6  UNL     1      27.558  18.590  59.599  1.00  0.00    -0.118 N 
ATOM     22  H5  UNL     1      26.247  17.670  58.275  1.00  0.00     0.206 HD
HETATM   23  C9  UNL     1      28.085  18.184  60.789  1.00  0.00     0.705 A 
ATOM     24  H6  UNL     1      27.740  19.481  59.137  1.00  0.00     0.206 HD
HETATM   25  N8  UNL     1      27.575  16.949  61.013  1.00  0.00    -0.020 N 
ATOM     26  H8  UNL     1      27.779  16.371  61.828  1.00  0.00     0.203 HD
BRANCH  23  27
HETATM   27  N7  UNL     1      28.888  18.824  61.538  1.00  0.00    -0.233 N 
ATOM     28  H72 UNL     1      29.901  18.713  61.584  1.00  0.00     0.174 HD
ATOM     29  H71 UNL     1      28.659  19.552  62.214  1.00  0.00     0.174 HD
ENDBRANCH  23  27
ENDBRANCH  17  19
ENDBRANCH  16  17
ENDBRANCH   1  16
TORSDOF 8
ENDMDL
MODEL 5
REMARK VINA RESULT: -6.960590608      2.141      3.902
REMARK  8 active torsions:
REMARK  status: ('A' for Active; 'I' for Inactive)
REMARK    1  A    between atoms: O1_2  and  C2_3 
REMARK    2  A    between atoms: C2_3  and  N1_4 
REMARK    3  A    between atoms: C5_8  and  N3_9 
REMARK    4  A    between atoms: N3_9  and  C6_11 
REMARK    5  A    between atoms: C6_11  and  C7_12 
REMARK    6  A    between atoms: C7_12  and  N4_13 
REMARK    7  A    between atoms: N4_13  and  C8_15 
REMARK    8  A    between atoms: C9_20  and  N7_21 
ROOT
HETATM    1  C6  UNL     1      27.081  15.058  59.845  1.00  0.00     0.141 C 
ENDROOT
BRANCH   1   2
HETATM    2  N3  UNL     1      28.178  15.432  60.714  1.00  0.00    -0.375 N 
ATOM      3  H3  UNL     1      29.127  15.096  60.549  1.00  0.00     0.161 HD
BRANCH   2   4
HETATM    4  C5  UNL     1      27.903  16.207  61.705  1.00  0.00     0.108 A 
HETATM    5  C4  UNL     1      27.253  17.392  61.456  1.00  0.00     0.094 A 
HETATM    6  C3  UNL     1      26.959  18.215  62.515  1.00  0.00     0.131 A 
HETATM    7  N1  UNL     1      27.290  17.896  63.807  1.00  0.00    -0.242 N 
HETATM    8  N2  UNL     1      26.290  19.454  62.332  1.00  0.00    -0.082 NA
HETATM    9  C10 UNL     1      27.919  16.739  64.002  1.00  0.00     0.335 A 
HETATM   10  N9  UNL     1      28.217  15.917  62.980  1.00  0.00    -0.294 N 
HETATM   11  O2  UNL     1      28.248  16.398  65.155  1.00  0.00    -0.246 OA
ATOM     12  H9  UNL     1      28.699  15.040  63.179  1.00  0.00     0.172 HD
BRANCH   7  13
HETATM   13  C2  UNL     1      26.990  18.785  64.887  1.00  0.00     0.238 C 
BRANCH  13  14
HETATM   14  O1  UNL     1      25.774  18.628  65.476  1.00  0.00    -0.351 OA
HETATM   15  C1  UNL     1      25.065  19.778  65.744  1.00  0.00     0.210 C 
ENDBRANCH  13  14
ENDBRANCH   7  13
ENDBRANCH   2   4
ENDBRANCH   1   2
BRANCH   1  16
HETATM   16  C7  UNL     1      26.249  13.948  60.449  1.00  0.00     0.157 C 
BRANCH  16  17
HETATM   17  N4  UNL     1      24.856  14.307  60.469  1.00  0.00    -0.223 N 
ATOM     18  H4  UNL     1      24.194  13.704  59.978  1.00  0.00     0.177 HD
BRANCH  17  19
HETATM   19  C8  UNL     1      24.400  15.350  61.073  1.00  0.00     0.707 A 
HETATM   20  N5  UNL     1      23.945  16.514  60.578  1.00  0.00    -0.117 N 
HETATM   21  N6  UNL     1      23.574  17.311  61.560  1.00  0.00    -0.118 N 
ATOM     22  H5  UNL     1      23.894  16.747  59.587  1.00  0.00     0.206 HD
HETATM   23  C9  UNL     1      23.785  16.661  62.739  1.00  0.00     0.705 A 
ATOM     24  H6  UNL     1      23.194  18.252  61.455  1.00  0.00     0.206 HD
HETATM   25  N8  UNL     1      24.297  15.452  62.405  1.00  0.00    -0.020 N 
ATOM     26  H8  UNL     1      24.564  14.726  63.069  1.00  0.00     0.203 HD
BRANCH  23  27
HETATM   27  N7  UNL     1      23.554  17.092  63.913  1.00  0.00    -0.233 N 
ATOM     28  H72 UNL     1      23.583  16.553  64.778  1.00  0.00     0.174 HD
ATOM     29  H71 UNL     1      23.303  18.042  64.187  1.00  0.00     0.174 HD
ENDBRANCH  23  27
ENDBRANCH  17  19
ENDBRANCH  16  17
ENDBRANCH   1  16
TORSDOF 8
ENDMDL
