MODEL 1
REMARK VINA RESULT: -7.515803058      0.000      0.000
REMARK  9 active torsions:
REMARK  status: ('A' for Active; 'I' for Inactive)
REMARK    1  A    between atoms: C2_2  and  O1_3 
REMARK    2  A    between atoms: C2_2  and  O2_7 
REMARK    3  A    between atoms: O1_3  and  N1_4 
REMARK    4  A    between atoms: O2_7  and  C3_8 
REMARK    5  A    between atoms: C3_8  and  N2_9 
REMARK    6  A    between atoms: C7_13  and  C8_14 
REMARK    7  A    between atoms: C8_14  and  C9_15 
REMARK    8  A    between atoms: C10_18  and  N4_19 
REMARK    9  A    between atoms: C11_24  and  N6_25 
ROOT
HETATM    1  C8  UNL     1      26.901  17.154  60.448  1.00  0.00     0.136 C 
ENDROOT
BRANCH   1   2
HETATM    2  C7  UNL     1      28.045  17.497  61.348  1.00  0.00     0.033 A 
HETATM    3  C6  UNL     1      28.842  16.486  61.790  1.00  0.00     0.028 A 
HETATM    4  C5  UNL     1      29.891  16.800  62.616  1.00  0.00     0.021 A 
HETATM    5  C4  UNL     1      30.078  18.129  62.951  1.00  0.00     0.118 A 
HETATM    6  N2  UNL     1      29.295  19.124  62.519  1.00  0.00    -0.257 N 
HETATM    7  N8  UNL     1      28.285  18.761  61.715  1.00  0.00    -0.297 N 
ATOM      8  H8  UNL     1      27.664  19.491  61.364  1.00  0.00     0.187 HD
BRANCH   6   9
HETATM    9  C3  UNL     1      29.474  20.511  62.878  1.00  0.00     0.253 C 
BRANCH   9  10
HETATM   10  O2  UNL     1      28.354  21.211  63.173  1.00  0.00    -0.312 OA
BRANCH  10  11
HETATM   11  C2  UNL     1      27.793  21.116  64.408  1.00  0.00     0.291 C 
HETATM   12  C1  UNL     1      26.362  20.570  64.350  1.00  0.00     0.073 C 
BRANCH  11  13
HETATM   13  O1  UNL     1      27.769  22.339  65.090  1.00  0.00    -0.255 OA
BRANCH  13  14
HETATM   14  N1  UNL     1      26.690  23.066  64.798  1.00  0.00    -0.308 N 
ATOM     15  H12 UNL     1      25.738  22.734  64.957  1.00  0.00     0.184 HD
ATOM     16  H11 UNL     1      26.927  23.976  64.404  1.00  0.00     0.184 HD
ENDBRANCH  13  14
ENDBRANCH  11  13
ENDBRANCH  10  11
ENDBRANCH   9  10
ENDBRANCH   6   9
ENDBRANCH   1   2
BRANCH   1  17
HETATM   17  C9  UNL     1      25.792  16.536  61.219  1.00  0.00     0.119 A 
HETATM   18  N3  UNL     1      25.018  17.371  61.945  1.00  0.00    -0.179 N 
HETATM   19  C10 UNL     1      24.007  16.824  62.650  1.00  0.00     0.691 A 
ATOM     20  H3  UNL     1      25.191  18.377  61.960  1.00  0.00     0.185 HD
HETATM   21  N5  UNL     1      23.785  15.516  62.628  1.00  0.00    -0.023 N 
HETATM   22  C11 UNL     1      24.570  14.699  61.896  1.00  0.00     0.691 A 
ATOM     23  H5  UNL     1      23.014  15.125  63.170  1.00  0.00     0.203 HD
HETATM   24  N7  UNL     1      25.574  15.213  61.192  1.00  0.00    -0.179 N 
ATOM     25  H7  UNL     1      26.174  14.605  60.635  1.00  0.00     0.185 HD
BRANCH  19  26
HETATM   26  N4  UNL     1      23.224  17.560  63.369  1.00  0.00    -0.234 N 
ATOM     27  H42 UNL     1      23.506  18.523  63.551  1.00  0.00     0.174 HD
ATOM     28  H41 UNL     1      22.351  17.187  63.742  1.00  0.00     0.174 HD
ENDBRANCH  19  26
BRANCH  22  29
HETATM   29  N6  UNL     1      24.309  13.449  61.914  1.00  0.00    -0.234 N 
ATOM     30  H62 UNL     1      23.363  13.085  62.024  1.00  0.00     0.174 HD
ATOM     31  H61 UNL     1      25.088  12.799  61.811  1.00  0.00     0.174 HD
ENDBRANCH  22  29
ENDBRANCH   1  17
TORSDOF 9
ENDMDL
MODEL 2
REMARK VINA RESULT: -7.505839140      0.036      1.722
REMARK  9 active torsions:
REMARK  status: ('A' for Active; 'I' for Inactive)
REMARK    1  A    between atoms: C2_2  and  O1_3 
REMARK    2  A    between atoms: C2_2  and  O2_7 
REMARK    3  A    between atoms: O1_3  and  N1_4 
REMARK    4  A    between atoms: O2_7  and  C3_8 
REMARK    5  A    between atoms: C3_8  and  N2_9 
REMARK    6  A    between atoms: C7_13  and  C8_14 
REMARK    7  A    between atoms: C8_14  and  C9_15 
REMARK    8  A    between atoms: C10_18  and  N4_19 
REMARK    9  A    between atoms: C11_24  and  N6_25 
ROOT
HETATM    1  C8  UNL     1      26.920  17.118  60.469  1.00  0.00     0.136 C 
ENDROOT
BRANCH   1   2
HETATM    2  C7  UNL     1      28.065  17.473  61.361  1.00  0.00     0.033 A 
HETATM    3  C6  UNL     1      28.875  16.470  61.799  1.00  0.00     0.028 A 
HETATM    4  C5  UNL     1      29.926  16.795  62.618  1.00  0.00     0.021 A 
HETATM    5  C4  UNL     1      30.102  18.126  62.951  1.00  0.00     0.118 A 
HETATM    6  N2  UNL     1      29.307  19.113  62.523  1.00  0.00    -0.257 N 
HETATM    7  N8  UNL     1      28.295  18.740  61.726  1.00  0.00    -0.297 N 
ATOM      8  H8  UNL     1      27.666  19.463  61.378  1.00  0.00     0.187 HD
BRANCH   6   9
HETATM    9  C3  UNL     1      29.475  20.502  62.880  1.00  0.00     0.253 C 
BRANCH   9  10
HETATM   10  O2  UNL     1      28.347  21.198  63.157  1.00  0.00    -0.312 OA
BRANCH  10  11
HETATM   11  C2  UNL     1      27.774  21.111  64.386  1.00  0.00     0.291 C 
HETATM   12  C1  UNL     1      26.338  20.578  64.315  1.00  0.00     0.073 C 
BRANCH  11  13
HETATM   13  O1  UNL     1      27.756  22.335  65.066  1.00  0.00    -0.255 OA
BRANCH  13  14
HETATM   14  N1  UNL     1      26.674  23.062  64.781  1.00  0.00    -0.308 N 
ATOM     15  H12 UNL     1      26.726  24.021  64.436  1.00  0.00     0.184 HD
ATOM     16  H11 UNL     1      25.806  22.554  64.947  1.00  0.00     0.184 HD
ENDBRANCH  13  14
ENDBRANCH  11  13
ENDBRANCH  10  11
ENDBRANCH   9  10
ENDBRANCH   6   9
ENDBRANCH   1   2
BRANCH   1  17
HETATM   17  C9  UNL     1      25.784  16.577  61.260  1.00  0.00     0.119 A 
HETATM   18  N3  UNL     1      25.584  15.243  61.200  1.00  0.00    -0.179 N 
HETATM   19  C10 UNL     1      24.557  14.738  61.913  1.00  0.00     0.691 A 
ATOM     20  H3  UNL     1      26.186  14.641  60.638  1.00  0.00     0.185 HD
HETATM   21  N5  UNL     1      23.777  15.525  62.643  1.00  0.00    -0.023 N 
HETATM   22  C11 UNL     1      23.994  16.856  62.689  1.00  0.00     0.691 A 
ATOM     23  H5  UNL     1      23.006  15.120  63.174  1.00  0.00     0.203 HD
HETATM   24  N7  UNL     1      25.000  17.379  61.995  1.00  0.00    -0.179 N 
ATOM     25  H7  UNL     1      25.173  18.384  62.022  1.00  0.00     0.185 HD
BRANCH  19  26
HETATM   26  N4  UNL     1      24.303  13.470  61.906  1.00  0.00    -0.234 N 
ATOM     27  H42 UNL     1      25.040  12.837  61.595  1.00  0.00     0.174 HD
ATOM     28  H41 UNL     1      23.394  13.116  62.202  1.00  0.00     0.174 HD
ENDBRANCH  19  26
BRANCH  22  29
HETATM   29  N6  UNL     1      23.210  17.563  63.408  1.00  0.00    -0.234 N 
ATOM     30  H62 UNL     1      22.195  17.484  63.357  1.00  0.00     0.174 HD
ATOM     31  H61 UNL     1      23.630  18.229  64.056  1.00  0.00     0.174 HD
ENDBRANCH  22  29
ENDBRANCH   1  17
TORSDOF 9
ENDMDL
MODEL 3
REMARK VINA RESULT: -7.046563580      0.909      2.021
REMARK  9 active torsions:
REMARK  status: ('A' for Active; 'I' for Inactive)
REMARK    1  A    between atoms: C2_2  and  O1_3 
REMARK    2  A    between atoms: C2_2  and  O2_7 
REMARK    3  A    between atoms: O1_3  and  N1_4 
REMARK    4  A    between atoms: O2_7  and  C3_8 
REMARK    5  A    between atoms: C3_8  and  N2_9 
REMARK    6  A    between atoms: C7_13  and  C8_14 
REMARK    7  A    between atoms: C8_14  and  C9_15 
REMARK    8  A    between atoms: C10_18  and  N4_19 
REMARK    9  A    between atoms: C11_24  and  N6_25 
ROOT
HETATM    1  C8  UNL     1      26.926  17.140  60.462  1.00  0.00     0.136 C 
ENDROOT
BRANCH   1   2
HETATM    2  C7  UNL     1      28.068  17.493  61.360  1.00  0.00     0.033 A 
HETATM    3  C6  UNL     1      28.884  16.491  61.788  1.00  0.00     0.028 A 
HETATM    4  C5  UNL     1      29.932  16.815  62.612  1.00  0.00     0.021 A 
HETATM    5  C4  UNL     1      30.098  18.144  62.960  1.00  0.00     0.118 A 
HETATM    6  N2  UNL     1      29.295  19.129  62.542  1.00  0.00    -0.257 N 
HETATM    7  N8  UNL     1      28.288  18.758  61.740  1.00  0.00    -0.297 N 
ATOM      8  H8  UNL     1      27.653  19.480  61.399  1.00  0.00     0.187 HD
BRANCH   6   9
HETATM    9  C3  UNL     1      29.453  20.515  62.915  1.00  0.00     0.253 C 
BRANCH   9  10
HETATM   10  O2  UNL     1      28.316  21.217  63.135  1.00  0.00    -0.312 OA
BRANCH  10  11
HETATM   11  C2  UNL     1      27.665  21.109  64.323  1.00  0.00     0.291 C 
HETATM   12  C1  UNL     1      28.636  20.993  65.504  1.00  0.00     0.073 C 
BRANCH  11  13
HETATM   13  O1  UNL     1      26.788  20.017  64.366  1.00  0.00    -0.255 OA
BRANCH  13  14
HETATM   14  N1  UNL     1      25.615  20.281  63.788  1.00  0.00    -0.308 N 
ATOM     15  H12 UNL     1      24.934  19.556  63.561  1.00  0.00     0.184 HD
ATOM     16  H11 UNL     1      25.486  21.275  63.603  1.00  0.00     0.184 HD
ENDBRANCH  13  14
ENDBRANCH  11  13
ENDBRANCH  10  11
ENDBRANCH   9  10
ENDBRANCH   6   9
ENDBRANCH   1   2
BRANCH   1  17
HETATM   17  C9  UNL     1      25.792  16.586  61.247  1.00  0.00     0.119 A 
HETATM   18  N3  UNL     1      25.610  15.249  61.190  1.00  0.00    -0.179 N 
HETATM   19  C10 UNL     1      24.584  14.733  61.896  1.00  0.00     0.691 A 
ATOM     20  H3  UNL     1      26.224  14.653  60.634  1.00  0.00     0.185 HD
HETATM   21  N5  UNL     1      23.788  15.511  62.618  1.00  0.00    -0.023 N 
HETATM   22  C11 UNL     1      23.987  16.845  62.662  1.00  0.00     0.691 A 
ATOM     23  H5  UNL     1      23.018  15.098  63.144  1.00  0.00     0.203 HD
HETATM   24  N7  UNL     1      24.991  17.379  61.974  1.00  0.00    -0.179 N 
ATOM     25  H7  UNL     1      25.151  18.387  61.999  1.00  0.00     0.185 HD
BRANCH  19  26
HETATM   26  N4  UNL     1      24.347  13.462  61.891  1.00  0.00    -0.234 N 
ATOM     27  H42 UNL     1      25.120  12.832  61.677  1.00  0.00     0.174 HD
ATOM     28  H41 UNL     1      23.415  13.102  62.094  1.00  0.00     0.174 HD
ENDBRANCH  19  26
BRANCH  22  29
HETATM   29  N6  UNL     1      23.189  17.544  63.373  1.00  0.00    -0.234 N 
ATOM     30  H62 UNL     1      23.391  18.506  63.644  1.00  0.00     0.174 HD
ATOM     31  H61 UNL     1      22.317  17.110  63.674  1.00  0.00     0.174 HD
ENDBRANCH  22  29
ENDBRANCH   1  17
TORSDOF 9
ENDMDL
MODEL 4
REMARK VINA RESULT: -6.831171161      1.497      1.642
REMARK  9 active torsions:
REMARK  status: ('A' for Active; 'I' for Inactive)
REMARK    1  A    between atoms: C2_2  and  O1_3 
REMARK    2  A    between atoms: C2_2  and  O2_7 
REMARK    3  A    between atoms: O1_3  and  N1_4 
REMARK    4  A    between atoms: O2_7  and  C3_8 
REMARK    5  A    between atoms: C3_8  and  N2_9 
REMARK    6  A    between atoms: C7_13  and  C8_14 
REMARK    7  A    between atoms: C8_14  and  C9_15 
REMARK    8  A    between atoms: C10_18  and  N4_19 
REMARK    9  A    between atoms: C11_24  and  N6_25 
ROOT
HETATM    1  C8  UNL     1      27.577  16.026  63.753  1.00  0.00     0.136 C 
ENDROOT
BRANCH   1   2
HETATM    2  C7  UNL     1      28.661  16.931  63.264  1.00  0.00     0.033 A 
HETATM    3  C6  UNL     1      29.795  16.366  62.765  1.00  0.00     0.028 A 
HETATM    4  C5  UNL     1      30.790  17.197  62.315  1.00  0.00     0.021 A 
HETATM    5  C4  UNL     1      30.582  18.562  62.396  1.00  0.00     0.118 A 
HETATM    6  N2  UNL     1      29.469  19.118  62.887  1.00  0.00    -0.257 N 
HETATM    7  N8  UNL     1      28.530  18.262  63.312  1.00  0.00    -0.297 N 
ATOM      8  H8  UNL     1      27.666  18.647  63.694  1.00  0.00     0.187 HD
BRANCH   6   9
HETATM    9  C3  UNL     1      29.253  20.542  62.990  1.00  0.00     0.253 C 
BRANCH   9  10
HETATM   10  O2  UNL     1      29.526  21.113  64.186  1.00  0.00    -0.312 OA
BRANCH  10  11
HETATM   11  C2  UNL     1      28.515  21.567  64.974  1.00  0.00     0.291 C 
HETATM   12  C1  UNL     1      28.062  20.515  65.994  1.00  0.00     0.073 C 
BRANCH  11  13
HETATM   13  O1  UNL     1      27.395  21.978  64.240  1.00  0.00    -0.255 OA
BRANCH  13  14
HETATM   14  N1  UNL     1      26.758  23.002  64.810  1.00  0.00    -0.308 N 
ATOM     15  H12 UNL     1      26.485  23.007  65.793  1.00  0.00     0.184 HD
ATOM     16  H11 UNL     1      26.580  23.764  64.156  1.00  0.00     0.184 HD
ENDBRANCH  13  14
ENDBRANCH  11  13
ENDBRANCH  10  11
ENDBRANCH   9  10
ENDBRANCH   6   9
ENDBRANCH   1   2
BRANCH   1  17
HETATM   17  C9  UNL     1      26.536  15.840  62.709  1.00  0.00     0.119 A 
HETATM   18  N3  UNL     1      25.436  16.617  62.804  1.00  0.00    -0.179 N 
HETATM   19  C10 UNL     1      24.483  16.459  61.864  1.00  0.00     0.691 A 
ATOM     20  H3  UNL     1      25.330  17.297  63.557  1.00  0.00     0.185 HD
HETATM   21  N5  UNL     1      24.624  15.574  60.885  1.00  0.00    -0.023 N 
HETATM   22  C11 UNL     1      25.732  14.807  60.808  1.00  0.00     0.691 A 
ATOM     23  H5  UNL     1      23.890  15.472  60.185  1.00  0.00     0.203 HD
HETATM   24  N7  UNL     1      26.687  14.943  61.723  1.00  0.00    -0.179 N 
ATOM     25  H7  UNL     1      27.528  14.368  61.675  1.00  0.00     0.185 HD
BRANCH  19  26
HETATM   26  N4  UNL     1      23.401  17.167  61.888  1.00  0.00    -0.234 N 
ATOM     27  H42 UNL     1      22.674  16.955  61.206  1.00  0.00     0.174 HD
ATOM     28  H41 UNL     1      23.281  17.916  62.571  1.00  0.00     0.174 HD
ENDBRANCH  19  26
BRANCH  22  29
HETATM   29  N6  UNL     1      25.813  13.973  59.845  1.00  0.00    -0.234 N 
ATOM     30  H62 UNL     1      25.186  13.174  59.755  1.00  0.00     0.174 HD
ATOM     31  H61 UNL     1      26.538  14.124  59.144  1.00  0.00     0.174 HD
ENDBRANCH  22  29
ENDBRANCH   1  17
TORSDOF 9
ENDMDL
MODEL 5
REMARK VINA RESULT: -6.815912639      1.495      2.331
REMARK  9 active torsions:
REMARK  status: ('A' for Active; 'I' for Inactive)
REMARK    1  A    between atoms: C2_2  and  O1_3 
REMARK    2  A    between atoms: C2_2  and  O2_7 
REMARK    3  A    between atoms: O1_3  and  N1_4 
REMARK    4  A    between atoms: O2_7  and  C3_8 
REMARK    5  A    between atoms: C3_8  and  N2_9 
REMARK    6  A    between atoms: C7_13  and  C8_14 
REMARK    7  A    between atoms: C8_14  and  C9_15 
REMARK    8  A    between atoms: C10_18  and  N4_19 
REMARK    9  A    between atoms: C11_24  and  N6_25 
ROOT
HETATM    1  C8  UNL     1      27.597  15.982  63.733  1.00  0.00     0.136 C 
ENDROOT
BRANCH   1   2
HETATM    2  C7  UNL     1      28.673  16.901  63.251  1.00  0.00     0.033 A 
HETATM    3  C6  UNL     1      29.821  16.352  62.768  1.00  0.00     0.028 A 
HETATM    4  C5  UNL     1      30.808  17.196  62.326  1.00  0.00     0.021 A 
HETATM    5  C4  UNL     1      30.579  18.558  62.398  1.00  0.00     0.118 A 
HETATM    6  N2  UNL     1      29.452  19.099  62.874  1.00  0.00    -0.257 N 
HETATM    7  N8  UNL     1      28.521  18.231  63.292  1.00  0.00    -0.297 N 
ATOM      8  H8  UNL     1      27.647  18.604  63.663  1.00  0.00     0.187 HD
BRANCH   6   9
HETATM    9  C3  UNL     1      29.213  20.520  62.967  1.00  0.00     0.253 C 
BRANCH   9  10
HETATM   10  O2  UNL     1      29.504  21.108  64.151  1.00  0.00    -0.312 OA
BRANCH  10  11
HETATM   11  C2  UNL     1      28.506  21.571  64.949  1.00  0.00     0.291 C 
HETATM   12  C1  UNL     1      28.052  20.522  65.971  1.00  0.00     0.073 C 
BRANCH  11  13
HETATM   13  O1  UNL     1      27.383  21.995  64.226  1.00  0.00    -0.255 OA
BRANCH  13  14
HETATM   14  N1  UNL     1      26.738  22.997  64.826  1.00  0.00    -0.308 N 
ATOM     15  H12 UNL     1      26.936  23.979  64.633  1.00  0.00     0.184 HD
ATOM     16  H11 UNL     1      26.036  22.668  65.489  1.00  0.00     0.184 HD
ENDBRANCH  13  14
ENDBRANCH  11  13
ENDBRANCH  10  11
ENDBRANCH   9  10
ENDBRANCH   6   9
ENDBRANCH   1   2
BRANCH   1  17
HETATM   17  C9  UNL     1      26.514  15.866  62.723  1.00  0.00     0.119 A 
HETATM   18  N3  UNL     1      26.691  14.952  61.744  1.00  0.00    -0.179 N 
HETATM   19  C10 UNL     1      25.716  14.836  60.821  1.00  0.00     0.691 A 
ATOM     20  H3  UNL     1      27.529  14.372  61.706  1.00  0.00     0.185 HD
HETATM   21  N5  UNL     1      24.626  15.592  60.875  1.00  0.00    -0.023 N 
HETATM   22  C11 UNL     1      24.469  16.499  61.861  1.00  0.00     0.691 A 
ATOM     23  H5  UNL     1      23.902  15.486  60.165  1.00  0.00     0.203 HD
HETATM   24  N7  UNL     1      25.416  16.634  62.784  1.00  0.00    -0.179 N 
ATOM     25  H7  UNL     1      25.308  17.317  63.533  1.00  0.00     0.185 HD
BRANCH  19  26
HETATM   26  N4  UNL     1      25.814  13.982  59.854  1.00  0.00    -0.234 N 
ATOM     27  H42 UNL     1      26.739  13.813  59.458  1.00  0.00     0.174 HD
ATOM     28  H41 UNL     1      24.991  13.495  59.500  1.00  0.00     0.174 HD
ENDBRANCH  19  26
BRANCH  22  29
HETATM   29  N6  UNL     1      23.400  17.199  61.861  1.00  0.00    -0.234 N 
ATOM     30  H62 UNL     1      22.509  16.842  62.205  1.00  0.00     0.174 HD
ATOM     31  H61 UNL     1      23.455  18.151  61.502  1.00  0.00     0.174 HD
ENDBRANCH  22  29
ENDBRANCH   1  17
TORSDOF 9
ENDMDL
