MODEL 1
REMARK VINA RESULT: -7.039465508      0.000      0.000
REMARK  7 active torsions:
REMARK  status: ('A' for Active; 'I' for Inactive)
REMARK    1  A    between atoms: C3_4  and  O1_5 
REMARK    2  A    between atoms: O1_5  and  C4_6 
REMARK    3  A    between atoms: C4_6  and  C5_7 
REMARK    4  A    between atoms: C5_7  and  O2_8 
REMARK    5  A    between atoms: O2_8  and  C6_9 
REMARK    6  A    between atoms: C6_9  and  N2_10 
REMARK    7  A    between atoms: C9_22  and  N7_23 
ROOT
HETATM    1  C4  UNL     1      28.771  16.160  63.074  1.00  0.00     0.194 C 
ENDROOT
BRANCH   1   2
HETATM    2  O1  UNL     1      28.476  14.939  62.490  1.00  0.00    -0.380 OA
BRANCH   2   3
HETATM    3  C3  UNL     1      27.177  14.851  62.019  1.00  0.00     0.177 C 
HETATM    4  C2  UNL     1      26.232  15.789  62.696  1.00  0.00     0.158 C 
HETATM    5  N1  UNL     1      25.356  16.208  61.622  1.00  0.00    -0.371 N 
HETATM    6  C1  UNL     1      23.947  16.567  61.755  1.00  0.00     0.151 C 
HETATM    7  C10 UNL     1      26.104  16.210  60.425  1.00  0.00     0.106 C 
HETATM    8  C9  UNL     1      27.206  15.217  60.549  1.00  0.00     0.280 C 
HETATM    9  N8  UNL     1      25.825  16.979  59.415  1.00  0.00    -0.387 N 
ATOM     10  H82 UNL     1      25.070  17.659  59.330  1.00  0.00     0.157 HD
ATOM     11  H81 UNL     1      26.366  16.980  58.549  1.00  0.00     0.157 HD
BRANCH   8  12
HETATM   12  N7  UNL     1      26.898  14.019  59.781  1.00  0.00    -0.066 N 
ATOM     13  H73 UNL     1      26.511  13.271  60.356  1.00  0.00     0.275 HD
ATOM     14  H72 UNL     1      26.098  14.143  59.160  1.00  0.00     0.275 HD
ATOM     15  H71 UNL     1      27.743  13.738  59.285  1.00  0.00     0.275 HD
ENDBRANCH   8  12
ENDBRANCH   2   3
ENDBRANCH   1   2
BRANCH   1  16
HETATM   16  C5  UNL     1      29.904  16.775  62.282  1.00  0.00     0.196 C 
BRANCH  16  17
HETATM   17  O2  UNL     1      29.386  17.850  61.568  1.00  0.00    -0.368 OA
BRANCH  17  18
HETATM   18  C6  UNL     1      29.647  19.027  62.268  1.00  0.00     0.319 C 
BRANCH  18  19
HETATM   19  N2  UNL     1      28.436  19.725  62.610  1.00  0.00    -0.202 N 
HETATM   20  N3  UNL     1      27.268  19.505  61.876  1.00  0.00     0.001 NA
HETATM   21  N4  UNL     1      26.139  19.432  62.682  1.00  0.00    -0.116 N 
HETATM   22  C7  UNL     1      26.022  20.331  63.774  1.00  0.00     0.693 C 
ATOM     23  H4  UNL     1      25.408  18.746  62.493  1.00  0.00     0.203 HD
HETATM   24  N5  UNL     1      24.843  20.546  64.246  1.00  0.00    -0.233 N 
HETATM   25  N6  UNL     1      27.194  20.962  64.311  1.00  0.00    -0.139 N 
ATOM     26  H52 UNL     1      24.011  20.097  63.865  1.00  0.00     0.174 HD
ATOM     27  H51 UNL     1      24.759  21.192  65.032  1.00  0.00     0.174 HD
HETATM   28  C8  UNL     1      28.435  20.635  63.694  1.00  0.00     0.355 C 
ATOM     29  H6  UNL     1      27.141  21.613  65.095  1.00  0.00     0.189 HD
HETATM   30  O3  UNL     1      29.491  21.170  64.136  1.00  0.00    -0.245 OA
ENDBRANCH  18  19
ENDBRANCH  17  18
ENDBRANCH  16  17
ENDBRANCH   1  16
TORSDOF 7
ENDMDL
MODEL 2
REMARK VINA RESULT: -7.014809630      0.970      1.343
REMARK  7 active torsions:
REMARK  status: ('A' for Active; 'I' for Inactive)
REMARK    1  A    between atoms: C3_4  and  O1_5 
REMARK    2  A    between atoms: O1_5  and  C4_6 
REMARK    3  A    between atoms: C4_6  and  C5_7 
REMARK    4  A    between atoms: C5_7  and  O2_8 
REMARK    5  A    between atoms: O2_8  and  C6_9 
REMARK    6  A    between atoms: C6_9  and  N2_10 
REMARK    7  A    between atoms: C9_22  and  N7_23 
ROOT
HETATM    1  C4  UNL     1      28.386  16.253  62.282  1.00  0.00     0.194 C 
ENDROOT
BRANCH   1   2
HETATM    2  O1  UNL     1      28.301  15.550  61.092  1.00  0.00    -0.380 OA
BRANCH   2   3
HETATM    3  C3  UNL     1      27.004  15.232  60.728  1.00  0.00     0.177 C 
HETATM    4  C2  UNL     1      26.283  14.410  61.747  1.00  0.00     0.158 C 
HETATM    5  N1  UNL     1      24.932  14.930  61.694  1.00  0.00    -0.371 N 
HETATM    6  C1  UNL     1      23.711  14.169  61.943  1.00  0.00     0.151 C 
HETATM    7  C10 UNL     1      25.004  16.299  61.361  1.00  0.00     0.106 C 
HETATM    8  C9  UNL     1      26.247  16.535  60.576  1.00  0.00     0.280 C 
HETATM    9  N8  UNL     1      24.099  17.164  61.712  1.00  0.00    -0.387 N 
ATOM     10  H82 UNL     1      23.248  17.002  62.250  1.00  0.00     0.157 HD
ATOM     11  H81 UNL     1      24.152  18.154  61.471  1.00  0.00     0.157 HD
BRANCH   8  12
HETATM   12  N7  UNL     1      25.931  16.710  59.166  1.00  0.00    -0.066 N 
ATOM     13  H73 UNL     1      26.743  16.585  58.562  1.00  0.00     0.275 HD
ATOM     14  H72 UNL     1      25.364  15.949  58.791  1.00  0.00     0.275 HD
ATOM     15  H71 UNL     1      25.492  17.623  59.052  1.00  0.00     0.275 HD
ENDBRANCH   8  12
ENDBRANCH   2   3
ENDBRANCH   1   2
BRANCH   1  16
HETATM   16  C5  UNL     1      29.700  17.002  62.270  1.00  0.00     0.196 C 
BRANCH  16  17
HETATM   17  O2  UNL     1      29.499  18.196  61.584  1.00  0.00    -0.368 OA
BRANCH  17  18
HETATM   18  C6  UNL     1      29.705  19.262  62.461  1.00  0.00     0.319 C 
BRANCH  18  19
HETATM   19  N2  UNL     1      28.468  19.903  62.819  1.00  0.00    -0.202 N 
HETATM   20  N3  UNL     1      27.313  19.669  62.071  1.00  0.00     0.001 NA
HETATM   21  N4  UNL     1      26.183  19.528  62.867  1.00  0.00    -0.116 N 
HETATM   22  C7  UNL     1      26.028  20.381  63.990  1.00  0.00     0.693 C 
ATOM     23  H4  UNL     1      25.478  18.823  62.649  1.00  0.00     0.203 HD
HETATM   24  N5  UNL     1      24.841  20.538  64.462  1.00  0.00    -0.233 N 
HETATM   25  N6  UNL     1      27.175  21.034  64.557  1.00  0.00    -0.139 N 
ATOM     26  H52 UNL     1      24.026  20.074  64.060  1.00  0.00     0.174 HD
ATOM     27  H51 UNL     1      24.730  21.151  65.270  1.00  0.00     0.174 HD
HETATM   28  C8  UNL     1      28.429  20.773  63.936  1.00  0.00     0.355 C 
ATOM     29  H6  UNL     1      27.095  21.653  65.363  1.00  0.00     0.189 HD
HETATM   30  O3  UNL     1      29.464  21.328  64.403  1.00  0.00    -0.245 OA
ENDBRANCH  18  19
ENDBRANCH  17  18
ENDBRANCH  16  17
ENDBRANCH   1  16
TORSDOF 7
ENDMDL
MODEL 3
REMARK VINA RESULT: -6.822296922      2.161      4.950
REMARK  7 active torsions:
REMARK  status: ('A' for Active; 'I' for Inactive)
REMARK    1  A    between atoms: C3_4  and  O1_5 
REMARK    2  A    between atoms: O1_5  and  C4_6 
REMARK    3  A    between atoms: C4_6  and  C5_7 
REMARK    4  A    between atoms: C5_7  and  O2_8 
REMARK    5  A    between atoms: O2_8  and  C6_9 
REMARK    6  A    between atoms: C6_9  and  N2_10 
REMARK    7  A    between atoms: C9_22  and  N7_23 
ROOT
HETATM    1  C4  UNL     1      28.306  15.201  62.348  1.00  0.00     0.194 C 
ENDROOT
BRANCH   1   2
HETATM    2  O1  UNL     1      28.790  16.414  61.885  1.00  0.00    -0.380 OA
BRANCH   2   3
HETATM    3  C3  UNL     1      28.130  17.511  62.412  1.00  0.00     0.177 C 
HETATM    4  C2  UNL     1      28.424  17.744  63.859  1.00  0.00     0.158 C 
HETATM    5  N1  UNL     1      28.469  19.189  63.958  1.00  0.00    -0.371 N 
HETATM    6  C1  UNL     1      28.086  19.980  65.123  1.00  0.00     0.151 C 
HETATM    7  C10 UNL     1      28.948  19.695  62.730  1.00  0.00     0.106 C 
HETATM    8  C9  UNL     1      28.604  18.731  61.649  1.00  0.00     0.280 C 
HETATM    9  N8  UNL     1      29.579  20.827  62.627  1.00  0.00    -0.387 N 
ATOM     10  H82 UNL     1      29.814  21.488  63.368  1.00  0.00     0.157 HD
ATOM     11  H81 UNL     1      29.924  21.193  61.740  1.00  0.00     0.157 HD
BRANCH   8  12
HETATM   12  N7  UNL     1      27.488  19.229  60.860  1.00  0.00    -0.066 N 
ATOM     13  H73 UNL     1      27.405  20.245  60.892  1.00  0.00     0.275 HD
ATOM     14  H72 UNL     1      27.642  19.136  59.856  1.00  0.00     0.275 HD
ATOM     15  H71 UNL     1      26.643  18.754  61.175  1.00  0.00     0.275 HD
ENDBRANCH   8  12
ENDBRANCH   2   3
ENDBRANCH   1   2
BRANCH   1  16
HETATM   16  C5  UNL     1      28.083  14.316  61.143  1.00  0.00     0.196 C 
BRANCH  16  17
HETATM   17  O2  UNL     1      26.877  13.648  61.327  1.00  0.00    -0.368 OA
BRANCH  17  18
HETATM   18  C6  UNL     1      25.969  14.077  60.358  1.00  0.00     0.319 C 
BRANCH  18  19
HETATM   19  N2  UNL     1      25.021  15.017  60.895  1.00  0.00    -0.202 N 
HETATM   20  N3  UNL     1      23.916  14.564  61.620  1.00  0.00     0.001 NA
HETATM   21  N4  UNL     1      23.650  15.354  62.732  1.00  0.00    -0.116 N 
HETATM   22  C7  UNL     1      23.775  16.762  62.613  1.00  0.00     0.693 C 
ATOM     23  H4  UNL     1      23.369  14.929  63.616  1.00  0.00     0.203 HD
HETATM   24  N5  UNL     1      23.149  17.491  63.471  1.00  0.00    -0.233 N 
HETATM   25  N6  UNL     1      24.578  17.324  61.564  1.00  0.00    -0.139 N 
ATOM     26  H52 UNL     1      22.579  17.091  64.216  1.00  0.00     0.174 HD
ATOM     27  H51 UNL     1      23.240  18.504  63.387  1.00  0.00     0.174 HD
HETATM   28  C8  UNL     1      25.215  16.403  60.685  1.00  0.00     0.355 C 
ATOM     29  H6  UNL     1      24.686  18.333  61.454  1.00  0.00     0.189 HD
HETATM   30  O3  UNL     1      25.930  16.857  59.747  1.00  0.00    -0.245 OA
ENDBRANCH  18  19
ENDBRANCH  17  18
ENDBRANCH  16  17
ENDBRANCH   1  16
TORSDOF 7
ENDMDL
MODEL 4
REMARK VINA RESULT: -6.749038194      2.482      3.784
REMARK  7 active torsions:
REMARK  status: ('A' for Active; 'I' for Inactive)
REMARK    1  A    between atoms: C3_4  and  O1_5 
REMARK    2  A    between atoms: O1_5  and  C4_6 
REMARK    3  A    between atoms: C4_6  and  C5_7 
REMARK    4  A    between atoms: C5_7  and  O2_8 
REMARK    5  A    between atoms: O2_8  and  C6_9 
REMARK    6  A    between atoms: C6_9  and  N2_10 
REMARK    7  A    between atoms: C9_22  and  N7_23 
ROOT
HETATM    1  C4  UNL     1      25.421  18.195  64.312  1.00  0.00     0.194 C 
ENDROOT
BRANCH   1   2
HETATM    2  O1  UNL     1      24.487  17.855  63.347  1.00  0.00    -0.380 OA
BRANCH   2   3
HETATM    3  C3  UNL     1      25.001  17.063  62.335  1.00  0.00     0.177 C 
HETATM    4  C2  UNL     1      25.956  16.021  62.819  1.00  0.00     0.158 C 
HETATM    5  N1  UNL     1      25.661  14.883  61.972  1.00  0.00    -0.371 N 
HETATM    6  C1  UNL     1      26.616  13.868  61.537  1.00  0.00     0.151 C 
HETATM    7  C10 UNL     1      24.289  14.929  61.644  1.00  0.00     0.106 C 
HETATM    8  C9  UNL     1      23.834  16.345  61.688  1.00  0.00     0.280 C 
HETATM    9  N8  UNL     1      23.593  13.869  61.357  1.00  0.00    -0.387 N 
ATOM     10  H82 UNL     1      23.905  12.898  61.326  1.00  0.00     0.157 HD
ATOM     11  H81 UNL     1      22.601  13.902  61.119  1.00  0.00     0.157 HD
BRANCH   8  12
HETATM   12  N7  UNL     1      23.674  16.870  60.340  1.00  0.00    -0.066 N 
ATOM     13  H73 UNL     1      24.443  17.478  60.061  1.00  0.00     0.275 HD
ATOM     14  H72 UNL     1      23.796  16.156  59.621  1.00  0.00     0.275 HD
ATOM     15  H71 UNL     1      22.766  17.331  60.288  1.00  0.00     0.275 HD
ENDBRANCH   8  12
ENDBRANCH   2   3
ENDBRANCH   1   2
BRANCH   1  16
HETATM   16  C5  UNL     1      25.277  19.677  64.576  1.00  0.00     0.196 C 
BRANCH  16  17
HETATM   17  O2  UNL     1      25.751  20.353  63.456  1.00  0.00    -0.368 OA
BRANCH  17  18
HETATM   18  C6  UNL     1      27.128  20.153  63.356  1.00  0.00     0.319 C 
BRANCH  18  19
HETATM   19  N2  UNL     1      27.863  21.098  64.154  1.00  0.00    -0.202 N 
HETATM   20  N3  UNL     1      27.317  22.351  64.440  1.00  0.00     0.001 NA
HETATM   21  N4  UNL     1      27.551  22.747  65.751  1.00  0.00    -0.116 N 
HETATM   22  C7  UNL     1      28.821  22.481  66.327  1.00  0.00     0.693 C 
ATOM     23  H4  UNL     1      26.825  23.220  66.289  1.00  0.00     0.203 HD
HETATM   24  N5  UNL     1      29.174  23.187  67.344  1.00  0.00    -0.233 N 
HETATM   25  N6  UNL     1      29.658  21.454  65.773  1.00  0.00    -0.139 N 
ATOM     26  H52 UNL     1      28.579  23.916  67.738  1.00  0.00     0.174 HD
ATOM     27  H51 UNL     1      30.086  22.995  67.759  1.00  0.00     0.174 HD
HETATM   28  C8  UNL     1      29.144  20.750  64.648  1.00  0.00     0.355 C 
ATOM     29  H6  UNL     1      30.575  21.241  66.165  1.00  0.00     0.189 HD
HETATM   30  O3  UNL     1      29.849  19.839  64.129  1.00  0.00    -0.245 OA
ENDBRANCH  18  19
ENDBRANCH  17  18
ENDBRANCH  16  17
ENDBRANCH   1  16
TORSDOF 7
ENDMDL
MODEL 5
REMARK VINA RESULT: -6.735029680      1.765      2.395
REMARK  7 active torsions:
REMARK  status: ('A' for Active; 'I' for Inactive)
REMARK    1  A    between atoms: C3_4  and  O1_5 
REMARK    2  A    between atoms: O1_5  and  C4_6 
REMARK    3  A    between atoms: C4_6  and  C5_7 
REMARK    4  A    between atoms: C5_7  and  O2_8 
REMARK    5  A    between atoms: O2_8  and  C6_9 
REMARK    6  A    between atoms: C6_9  and  N2_10 
REMARK    7  A    between atoms: C9_22  and  N7_23 
ROOT
HETATM    1  C4  UNL     1      28.505  15.761  62.418  1.00  0.00     0.194 C 
ENDROOT
BRANCH   1   2
HETATM    2  O1  UNL     1      28.324  15.593  61.055  1.00  0.00    -0.380 OA
BRANCH   2   3
HETATM    3  C3  UNL     1      27.024  15.272  60.705  1.00  0.00     0.177 C 
HETATM    4  C2  UNL     1      26.310  14.465  61.740  1.00  0.00     0.158 C 
HETATM    5  N1  UNL     1      24.959  14.985  61.689  1.00  0.00    -0.371 N 
HETATM    6  C1  UNL     1      23.738  14.230  61.956  1.00  0.00     0.151 C 
HETATM    7  C10 UNL     1      25.030  16.350  61.336  1.00  0.00     0.106 C 
HETATM    8  C9  UNL     1      26.267  16.574  60.540  1.00  0.00     0.280 C 
HETATM    9  N8  UNL     1      24.128  17.220  61.682  1.00  0.00    -0.387 N 
ATOM     10  H82 UNL     1      23.280  17.067  62.228  1.00  0.00     0.157 HD
ATOM     11  H81 UNL     1      24.180  18.207  61.427  1.00  0.00     0.157 HD
BRANCH   8  12
HETATM   12  N7  UNL     1      25.943  16.730  59.130  1.00  0.00    -0.066 N 
ATOM     13  H73 UNL     1      26.309  17.595  58.734  1.00  0.00     0.275 HD
ATOM     14  H72 UNL     1      26.453  16.079  58.533  1.00  0.00     0.275 HD
ATOM     15  H71 UNL     1      24.931  16.648  59.029  1.00  0.00     0.275 HD
ENDBRANCH   8  12
ENDBRANCH   2   3
ENDBRANCH   1   2
BRANCH   1  16
HETATM   16  C5  UNL     1      29.452  16.925  62.607  1.00  0.00     0.196 C 
BRANCH  16  17
HETATM   17  O2  UNL     1      28.689  18.087  62.658  1.00  0.00    -0.368 OA
BRANCH  17  18
HETATM   18  C6  UNL     1      27.666  17.917  63.591  1.00  0.00     0.319 C 
BRANCH  18  19
HETATM   19  N2  UNL     1      27.315  19.158  64.228  1.00  0.00    -0.202 N 
HETATM   20  N3  UNL     1      28.296  19.927  64.858  1.00  0.00     0.001 NA
HETATM   21  N4  UNL     1      28.139  21.287  64.622  1.00  0.00    -0.116 N 
HETATM   22  C7  UNL     1      26.829  21.834  64.626  1.00  0.00     0.693 C 
ATOM     23  H4  UNL     1      28.950  21.882  64.449  1.00  0.00     0.203 HD
HETATM   24  N5  UNL     1      26.712  23.101  64.821  1.00  0.00    -0.233 N 
HETATM   25  N6  UNL     1      25.695  20.978  64.417  1.00  0.00    -0.139 N 
ATOM     26  H52 UNL     1      27.518  23.709  64.970  1.00  0.00     0.174 HD
ATOM     27  H51 UNL     1      25.770  23.494  64.824  1.00  0.00     0.174 HD
HETATM   28  C8  UNL     1      25.968  19.595  64.213  1.00  0.00     0.355 C 
ATOM     29  H6  UNL     1      24.742  21.341  64.415  1.00  0.00     0.189 HD
HETATM   30  O3  UNL     1      24.998  18.808  64.026  1.00  0.00    -0.245 OA
ENDBRANCH  18  19
ENDBRANCH  17  18
ENDBRANCH  16  17
ENDBRANCH   1  16
TORSDOF 7
ENDMDL
