MODEL 1
REMARK VINA RESULT: -6.954734496      0.000      0.000
REMARK  6 active torsions:
REMARK  status: ('A' for Active; 'I' for Inactive)
REMARK    1  A    between atoms: N3_4  and  C2_6 
REMARK    2  A    between atoms: C2_6  and  C3_7 
REMARK    3  A    between atoms: C3_7  and  C4_8 
REMARK    4  A    between atoms: C4_8  and  N4_9 
REMARK    5  A    between atoms: C8_17  and  S1_18 
REMARK    6  A    between atoms: S1_18  and  N7_19 
ROOT
HETATM    1  N4  UNL     1      26.920  16.509  63.163  1.00  0.00    -0.376 N 
ATOM      2  H4  UNL     1      26.235  15.812  63.456  1.00  0.00     0.161 HD
HETATM    3  C5  UNL     1      26.709  17.693  63.554  1.00  0.00     0.106 A 
HETATM    4  C6  UNL     1      27.490  18.788  63.285  1.00  0.00     0.093 A 
HETATM    5  C7  UNL     1      27.163  20.041  63.764  1.00  0.00     0.121 A 
HETATM    6  N5  UNL     1      27.973  21.162  63.483  1.00  0.00    -0.083 NA
HETATM    7  N6  UNL     1      26.041  20.161  64.515  1.00  0.00    -0.320 N 
ATOM      8  H6  UNL     1      25.783  21.078  64.879  1.00  0.00     0.169 HD
HETATM    9  C8  UNL     1      25.261  19.101  64.791  1.00  0.00     0.226 A 
HETATM   10  N8  UNL     1      25.604  17.913  64.313  1.00  0.00    -0.318 N 
ATOM     11  H8  UNL     1      25.003  17.117  64.528  1.00  0.00     0.169 HD
ENDROOT
BRANCH   1  12
HETATM   12  C4  UNL     1      27.997  16.030  62.365  1.00  0.00     0.123 C 
BRANCH  12  13
HETATM   13  C3  UNL     1      27.570  14.719  61.720  1.00  0.00     0.039 C 
BRANCH  13  14
HETATM   14  C2  UNL     1      26.303  14.993  60.956  1.00  0.00     0.123 C 
BRANCH  14  15
HETATM   15  N3  UNL     1      25.263  14.031  61.251  1.00  0.00    -0.367 N 
HETATM   16  C1  UNL     1      24.224  14.422  61.884  1.00  0.00     0.196 C 
HETATM   17  N1  UNL     1      24.082  15.765  62.295  1.00  0.00    -0.067 NA
HETATM   18  N2  UNL     1      23.204  13.490  62.177  1.00  0.00    -0.067 NA
ATOM     19  H3  UNL     1      25.358  13.058  60.960  1.00  0.00     0.161 HD
ENDBRANCH  14  15
ENDBRANCH  13  14
ENDBRANCH  12  13
ENDBRANCH   1  12
BRANCH   9  20
HETATM   20  S1  UNL     1      23.808  19.326  65.777  1.00  0.00     0.289 S 
HETATM   21  O1  UNL     1      22.605  19.500  64.870  1.00  0.00    -0.198 OA
HETATM   22  O2  UNL     1      23.997  20.626  66.506  1.00  0.00    -0.198 OA
BRANCH  20  23
HETATM   23  N7  UNL     1      23.614  18.007  66.851  1.00  0.00    -0.322 N 
ATOM     24  H72 UNL     1      22.797  17.397  66.865  1.00  0.00     0.169 HD
ATOM     25  H71 UNL     1      24.426  17.930  67.463  1.00  0.00     0.169 HD
ENDBRANCH  20  23
ENDBRANCH   9  20
TORSDOF 6
ENDMDL
MODEL 2
REMARK VINA RESULT: -6.603351875      1.896      2.546
REMARK  6 active torsions:
REMARK  status: ('A' for Active; 'I' for Inactive)
REMARK    1  A    between atoms: N3_4  and  C2_6 
REMARK    2  A    between atoms: C2_6  and  C3_7 
REMARK    3  A    between atoms: C3_7  and  C4_8 
REMARK    4  A    between atoms: C4_8  and  N4_9 
REMARK    5  A    between atoms: C8_17  and  S1_18 
REMARK    6  A    between atoms: S1_18  and  N7_19 
ROOT
HETATM    1  N4  UNL     1      26.366  18.308  61.633  1.00  0.00    -0.376 N 
ATOM      2  H4  UNL     1      25.520  17.750  61.514  1.00  0.00     0.161 HD
HETATM    3  C5  UNL     1      26.421  19.019  62.678  1.00  0.00     0.106 A 
HETATM    4  C6  UNL     1      27.453  19.844  63.044  1.00  0.00     0.093 A 
HETATM    5  C7  UNL     1      27.406  20.579  64.213  1.00  0.00     0.121 A 
HETATM    6  N5  UNL     1      28.473  21.425  64.583  1.00  0.00    -0.083 NA
HETATM    7  N6  UNL     1      26.305  20.462  64.994  1.00  0.00    -0.320 N 
ATOM      8  H6  UNL     1      26.251  20.995  65.861  1.00  0.00     0.169 HD
HETATM    9  C8  UNL     1      25.281  19.658  64.653  1.00  0.00     0.226 A 
HETATM   10  N8  UNL     1      25.359  18.968  63.523  1.00  0.00    -0.318 N 
ATOM     11  H8  UNL     1      24.576  18.363  63.275  1.00  0.00     0.169 HD
ENDROOT
BRANCH   1  12
HETATM   12  C4  UNL     1      27.341  18.191  60.603  1.00  0.00     0.123 C 
BRANCH  12  13
HETATM   13  C3  UNL     1      27.012  16.963  59.766  1.00  0.00     0.039 C 
BRANCH  13  14
HETATM   14  C2  UNL     1      27.130  15.766  60.671  1.00  0.00     0.123 C 
BRANCH  14  15
HETATM   15  N3  UNL     1      28.397  15.723  61.367  1.00  0.00    -0.367 N 
HETATM   16  C1  UNL     1      28.398  15.609  62.639  1.00  0.00     0.196 C 
HETATM   17  N1  UNL     1      27.190  15.525  63.365  1.00  0.00    -0.067 NA
HETATM   18  N2  UNL     1      29.630  15.566  63.327  1.00  0.00    -0.067 NA
ATOM     19  H3  UNL     1      29.275  15.785  60.851  1.00  0.00     0.161 HD
ENDBRANCH  14  15
ENDBRANCH  13  14
ENDBRANCH  12  13
ENDBRANCH   1  12
BRANCH   9  20
HETATM   20  S1  UNL     1      23.871  19.550  65.717  1.00  0.00     0.289 S 
HETATM   21  O1  UNL     1      22.610  19.777  64.907  1.00  0.00    -0.198 OA
HETATM   22  O2  UNL     1      23.986  20.699  66.678  1.00  0.00    -0.198 OA
BRANCH  20  23
HETATM   23  N7  UNL     1      23.852  18.038  66.520  1.00  0.00    -0.322 N 
ATOM     24  H72 UNL     1      24.483  17.267  66.302  1.00  0.00     0.169 HD
ATOM     25  H71 UNL     1      23.126  18.029  67.236  1.00  0.00     0.169 HD
ENDBRANCH  20  23
ENDBRANCH   9  20
TORSDOF 6
ENDMDL
MODEL 3
REMARK VINA RESULT: -6.553872112      2.864      4.108
REMARK  6 active torsions:
REMARK  status: ('A' for Active; 'I' for Inactive)
REMARK    1  A    between atoms: N3_4  and  C2_6 
REMARK    2  A    between atoms: C2_6  and  C3_7 
REMARK    3  A    between atoms: C3_7  and  C4_8 
REMARK    4  A    between atoms: C4_8  and  N4_9 
REMARK    5  A    between atoms: C8_17  and  S1_18 
REMARK    6  A    between atoms: S1_18  and  N7_19 
ROOT
HETATM    1  N4  UNL     1      24.945  17.503  62.868  1.00  0.00    -0.376 N 
ATOM      2  H4  UNL     1      25.730  17.604  62.225  1.00  0.00     0.161 HD
HETATM    3  C5  UNL     1      24.874  18.359  63.797  1.00  0.00     0.106 A 
HETATM    4  C6  UNL     1      23.911  18.421  64.771  1.00  0.00     0.093 A 
HETATM    5  C7  UNL     1      23.931  19.404  65.742  1.00  0.00     0.121 A 
HETATM    6  N5  UNL     1      22.936  19.461  66.741  1.00  0.00    -0.083 NA
HETATM    7  N6  UNL     1      24.935  20.313  65.704  1.00  0.00    -0.320 N 
ATOM      8  H6  UNL     1      24.968  21.047  66.411  1.00  0.00     0.169 HD
HETATM    9  C8  UNL     1      25.890  20.271  64.757  1.00  0.00     0.226 A 
HETATM   10  N8  UNL     1      25.840  19.313  63.842  1.00  0.00    -0.318 N 
ATOM     11  H8  UNL     1      26.570  19.290  63.130  1.00  0.00     0.169 HD
ENDROOT
BRANCH   1  12
HETATM   12  C4  UNL     1      24.063  16.416  62.612  1.00  0.00     0.123 C 
BRANCH  12  13
HETATM   13  C3  UNL     1      24.032  16.167  61.110  1.00  0.00     0.039 C 
BRANCH  13  14
HETATM   14  C2  UNL     1      25.430  15.793  60.695  1.00  0.00     0.123 C 
BRANCH  14  15
HETATM   15  N3  UNL     1      25.953  16.670  59.670  1.00  0.00    -0.367 N 
HETATM   16  C1  UNL     1      27.006  17.349  59.920  1.00  0.00     0.196 C 
HETATM   17  N1  UNL     1      27.655  17.256  61.170  1.00  0.00    -0.067 NA
HETATM   18  N2  UNL     1      27.524  18.207  58.926  1.00  0.00    -0.067 NA
ATOM     19  H3  UNL     1      25.489  16.744  58.765  1.00  0.00     0.161 HD
ENDBRANCH  14  15
ENDBRANCH  13  14
ENDBRANCH  12  13
ENDBRANCH   1  12
BRANCH   9  20
HETATM   20  S1  UNL     1      27.174  21.488  64.765  1.00  0.00     0.289 S 
HETATM   21  O1  UNL     1      28.024  21.332  63.520  1.00  0.00    -0.198 OA
HETATM   22  O2  UNL     1      28.053  21.159  65.938  1.00  0.00    -0.198 OA
BRANCH  20  23
HETATM   23  N7  UNL     1      26.499  23.057  64.886  1.00  0.00    -0.322 N 
ATOM     24  H72 UNL     1      26.915  23.892  64.472  1.00  0.00     0.169 HD
ATOM     25  H71 UNL     1      25.635  23.028  65.426  1.00  0.00     0.169 HD
ENDBRANCH  20  23
ENDBRANCH   9  20
TORSDOF 6
ENDMDL
MODEL 4
REMARK VINA RESULT: -6.553126259      1.689      4.469
REMARK  6 active torsions:
REMARK  status: ('A' for Active; 'I' for Inactive)
REMARK    1  A    between atoms: N3_4  and  C2_6 
REMARK    2  A    between atoms: C2_6  and  C3_7 
REMARK    3  A    between atoms: C3_7  and  C4_8 
REMARK    4  A    between atoms: C4_8  and  N4_9 
REMARK    5  A    between atoms: C8_17  and  S1_18 
REMARK    6  A    between atoms: S1_18  and  N7_19 
ROOT
HETATM    1  N4  UNL     1      27.880  16.816  63.423  1.00  0.00    -0.376 N 
ATOM      2  H4  UNL     1      28.292  17.249  64.250  1.00  0.00     0.161 HD
HETATM    3  C5  UNL     1      26.637  16.990  63.265  1.00  0.00     0.106 A 
HETATM    4  C6  UNL     1      25.875  16.503  62.234  1.00  0.00     0.093 A 
HETATM    5  C7  UNL     1      24.519  16.755  62.161  1.00  0.00     0.121 A 
HETATM    6  N5  UNL     1      23.742  16.252  61.096  1.00  0.00    -0.083 NA
HETATM    7  N6  UNL     1      23.957  17.502  63.142  1.00  0.00    -0.320 N 
ATOM      8  H6  UNL     1      22.958  17.700  63.106  1.00  0.00     0.169 HD
HETATM    9  C8  UNL     1      24.687  17.989  64.163  1.00  0.00     0.226 A 
HETATM   10  N8  UNL     1      25.986  17.727  64.202  1.00  0.00    -0.318 N 
ATOM     11  H8  UNL     1      26.528  18.100  64.981  1.00  0.00     0.169 HD
ENDROOT
BRANCH   1  12
HETATM   12  C4  UNL     1      28.774  16.089  62.588  1.00  0.00     0.123 C 
BRANCH  12  13
HETATM   13  C3  UNL     1      30.044  16.910  62.415  1.00  0.00     0.039 C 
BRANCH  13  14
HETATM   14  C2  UNL     1      29.629  18.271  61.924  1.00  0.00     0.123 C 
BRANCH  14  15
HETATM   15  N3  UNL     1      30.029  19.328  62.826  1.00  0.00    -0.367 N 
HETATM   16  C1  UNL     1      29.153  20.175  63.210  1.00  0.00     0.196 C 
HETATM   17  N1  UNL     1      27.815  20.093  62.767  1.00  0.00    -0.067 NA
HETATM   18  N2  UNL     1      29.535  21.210  64.091  1.00  0.00    -0.067 NA
ATOM     19  H3  UNL     1      30.994  19.396  63.151  1.00  0.00     0.161 HD
ENDBRANCH  14  15
ENDBRANCH  13  14
ENDBRANCH  12  13
ENDBRANCH   1  12
BRANCH   9  20
HETATM   20  S1  UNL     1      23.892  18.957  65.413  1.00  0.00     0.289 S 
HETATM   21  O1  UNL     1      22.577  19.491  64.878  1.00  0.00    -0.198 OA
HETATM   22  O2  UNL     1      24.781  20.145  65.648  1.00  0.00    -0.198 OA
BRANCH  20  23
HETATM   23  N7  UNL     1      23.673  18.025  66.832  1.00  0.00    -0.322 N 
ATOM     24  H72 UNL     1      22.767  17.697  67.167  1.00  0.00     0.169 HD
ATOM     25  H71 UNL     1      24.572  17.851  67.281  1.00  0.00     0.169 HD
ENDBRANCH  20  23
ENDBRANCH   9  20
TORSDOF 6
ENDMDL
MODEL 5
REMARK VINA RESULT: -6.496286933      3.182      5.688
REMARK  6 active torsions:
REMARK  status: ('A' for Active; 'I' for Inactive)
REMARK    1  A    between atoms: N3_4  and  C2_6 
REMARK    2  A    between atoms: C2_6  and  C3_7 
REMARK    3  A    between atoms: C3_7  and  C4_8 
REMARK    4  A    between atoms: C4_8  and  N4_9 
REMARK    5  A    between atoms: C8_17  and  S1_18 
REMARK    6  A    between atoms: S1_18  and  N7_19 
ROOT
HETATM    1  N4  UNL     1      28.431  17.842  62.320  1.00  0.00    -0.376 N 
ATOM      2  H4  UNL     1      28.276  17.514  63.274  1.00  0.00     0.161 HD
HETATM    3  C5  UNL     1      27.649  17.379  61.440  1.00  0.00     0.106 A 
HETATM    4  C6  UNL     1      27.669  17.676  60.101  1.00  0.00     0.093 A 
HETATM    5  C7  UNL     1      26.763  17.109  59.226  1.00  0.00     0.121 A 
HETATM    6  N5  UNL     1      26.789  17.419  57.849  1.00  0.00    -0.083 NA
HETATM    7  N6  UNL     1      25.847  16.247  59.729  1.00  0.00    -0.320 N 
ATOM      8  H6  UNL     1      25.169  15.818  59.100  1.00  0.00     0.169 HD
HETATM    9  C8  UNL     1      25.810  15.942  61.039  1.00  0.00     0.226 A 
HETATM   10  N8  UNL     1      26.695  16.504  61.851  1.00  0.00    -0.318 N 
ATOM     11  H8  UNL     1      26.658  16.264  62.841  1.00  0.00     0.169 HD
ENDROOT
BRANCH   1  12
HETATM   12  C4  UNL     1      29.501  18.763  62.142  1.00  0.00     0.123 C 
BRANCH  12  13
HETATM   13  C3  UNL     1      29.176  20.032  62.918  1.00  0.00     0.039 C 
BRANCH  13  14
HETATM   14  C2  UNL     1      28.184  19.657  63.986  1.00  0.00     0.123 C 
BRANCH  14  15
HETATM   15  N3  UNL     1      27.170  20.670  64.176  1.00  0.00    -0.367 N 
HETATM   16  C1  UNL     1      25.960  20.396  63.868  1.00  0.00     0.196 C 
HETATM   17  N1  UNL     1      25.608  19.132  63.349  1.00  0.00    -0.067 NA
HETATM   18  N2  UNL     1      24.963  21.379  64.051  1.00  0.00    -0.067 NA
ATOM     19  H3  UNL     1      27.416  21.587  64.549  1.00  0.00     0.161 HD
ENDBRANCH  14  15
ENDBRANCH  13  14
ENDBRANCH  12  13
ENDBRANCH   1  12
BRANCH   9  20
HETATM   20  S1  UNL     1      24.588  14.808  61.632  1.00  0.00     0.289 S 
HETATM   21  O1  UNL     1      23.853  15.426  62.805  1.00  0.00    -0.198 OA
HETATM   22  O2  UNL     1      25.343  13.623  62.165  1.00  0.00    -0.198 OA
BRANCH  20  23
HETATM   23  N7  UNL     1      23.520  14.375  60.366  1.00  0.00    -0.322 N 
ATOM     24  H72 UNL     1      23.575  13.499  59.845  1.00  0.00     0.169 HD
ATOM     25  H71 UNL     1      22.834  15.114  60.216  1.00  0.00     0.169 HD
ENDBRANCH  20  23
ENDBRANCH   9  20
TORSDOF 6
ENDMDL
