MODEL 1
REMARK VINA RESULT: -6.547531562      0.000      0.000
REMARK  9 active torsions:
REMARK  status: ('A' for Active; 'I' for Inactive)
REMARK    1  A    between atoms: N1_1  and  C1_5 
REMARK    2  A    between atoms: C1_5  and  C2_6 
REMARK    3  A    between atoms: C2_6  and  C3_7 
REMARK    4  A    between atoms: C3_7  and  C4_8 
REMARK    5  A    between atoms: C4_8  and  N2_9 
REMARK    6  A    between atoms: C4_8  and  C5_13 
REMARK    7  A    between atoms: C5_13  and  N3_14 
REMARK    8  A    between atoms: C5_13  and  N4_18 
REMARK    9  A    between atoms: C5_13  and  N5_22 
ROOT
HETATM    1  C5  UNL     1      25.183  17.564  63.476  1.00  0.00     0.388 C 
ENDROOT
BRANCH   1   2
HETATM    2  C4  UNL     1      25.858  17.914  64.790  1.00  0.00     0.269 C 
BRANCH   2   3
HETATM    3  C3  UNL     1      26.507  19.281  64.561  1.00  0.00     0.041 C 
BRANCH   3   4
HETATM    4  C2  UNL     1      25.945  20.329  65.486  1.00  0.00     0.029 C 
BRANCH   4   5
HETATM    5  C1  UNL     1      25.786  21.590  64.640  1.00  0.00     0.229 C 
BRANCH   5   6
HETATM    6  N1  UNL     1      26.303  22.761  65.306  1.00  0.00    -0.079 N 
ATOM      7  H13 UNL     1      25.584  23.477  65.405  1.00  0.00     0.274 HD
ATOM      8  H12 UNL     1      26.485  22.575  66.292  1.00  0.00     0.274 HD
ATOM      9  H11 UNL     1      27.132  23.134  64.841  1.00  0.00     0.274 HD
ENDBRANCH   5   6
ENDBRANCH   4   5
ENDBRANCH   3   4
ENDBRANCH   2   3
BRANCH   2  10
HETATM   10  N2  UNL     1      24.941  18.052  65.879  1.00  0.00    -0.069 N 
ATOM     11  H23 UNL     1      24.617  17.156  66.244  1.00  0.00     0.275 HD
ATOM     12  H22 UNL     1      25.384  18.391  66.732  1.00  0.00     0.275 HD
ATOM     13  H21 UNL     1      24.178  18.651  65.562  1.00  0.00     0.275 HD
ENDBRANCH   2  10
ENDBRANCH   1   2
BRANCH   1  14
HETATM   14  N3  UNL     1      23.747  17.566  63.762  1.00  0.00    -0.024 N 
ATOM     15  H33 UNL     1      23.167  17.364  62.948  1.00  0.00     0.279 HD
ATOM     16  H32 UNL     1      23.441  16.774  64.328  1.00  0.00     0.279 HD
ATOM     17  H31 UNL     1      23.555  18.473  64.188  1.00  0.00     0.279 HD
ENDBRANCH   1  14
BRANCH   1  18
HETATM   18  N4  UNL     1      25.388  18.619  62.494  1.00  0.00    -0.024 N 
ATOM     19  H43 UNL     1      24.557  19.202  62.387  1.00  0.00     0.279 HD
ATOM     20  H42 UNL     1      26.033  19.332  62.834  1.00  0.00     0.279 HD
ATOM     21  H41 UNL     1      25.692  18.228  61.602  1.00  0.00     0.279 HD
ENDBRANCH   1  18
BRANCH   1  22
HETATM   22  N5  UNL     1      25.598  16.343  62.900  1.00  0.00    -0.320 N 
HETATM   23  C6  UNL     1      26.801  15.763  63.304  1.00  0.00     0.164 C 
HETATM   24  C7  UNL     1      27.935  15.839  62.348  1.00  0.00     0.256 C 
HETATM   25  O1  UNL     1      28.989  15.238  62.714  1.00  0.00    -0.267 OA
HETATM   26  N6  UNL     1      27.916  16.511  61.103  1.00  0.00    -0.355 N 
HETATM   27  C8  UNL     1      26.847  16.377  60.130  1.00  0.00     0.142 C 
ATOM     28  H6  UNL     1      28.698  17.124  60.876  1.00  0.00     0.162 HD
HETATM   29  C9  UNL     1      26.649  14.976  59.682  1.00  0.00     0.142 C 
HETATM   30  N7  UNL     1      25.602  14.231  60.313  1.00  0.00    -0.358 N 
HETATM   31  C10 UNL     1      25.103  14.345  61.624  1.00  0.00     0.235 C 
ATOM     32  H7  UNL     1      25.157  13.520  59.733  1.00  0.00     0.162 HD
HETATM   33  O2  UNL     1      25.074  13.275  62.338  1.00  0.00    -0.272 OA
HETATM   34  C11 UNL     1      24.601  15.550  62.294  1.00  0.00     0.229 C 
ENDBRANCH   1  22
TORSDOF 9
ENDMDL
MODEL 2
REMARK VINA RESULT: -6.507337415      1.247      1.358
REMARK  9 active torsions:
REMARK  status: ('A' for Active; 'I' for Inactive)
REMARK    1  A    between atoms: N1_1  and  C1_5 
REMARK    2  A    between atoms: C1_5  and  C2_6 
REMARK    3  A    between atoms: C2_6  and  C3_7 
REMARK    4  A    between atoms: C3_7  and  C4_8 
REMARK    5  A    between atoms: C4_8  and  N2_9 
REMARK    6  A    between atoms: C4_8  and  C5_13 
REMARK    7  A    between atoms: C5_13  and  N3_14 
REMARK    8  A    between atoms: C5_13  and  N4_18 
REMARK    9  A    between atoms: C5_13  and  N5_22 
ROOT
HETATM    1  C5  UNL     1      25.083  17.492  63.384  1.00  0.00     0.388 C 
ENDROOT
BRANCH   1   2
HETATM    2  C4  UNL     1      25.706  17.883  64.712  1.00  0.00     0.269 C 
BRANCH   2   3
HETATM    3  C3  UNL     1      26.253  19.297  64.502  1.00  0.00     0.041 C 
BRANCH   3   4
HETATM    4  C2  UNL     1      27.739  19.364  64.745  1.00  0.00     0.029 C 
BRANCH   4   5
HETATM    5  C1  UNL     1      28.289  20.334  63.703  1.00  0.00     0.229 C 
BRANCH   5   6
HETATM    6  N1  UNL     1      28.659  19.667  62.479  1.00  0.00    -0.079 N 
ATOM      7  H13 UNL     1      28.010  19.894  61.725  1.00  0.00     0.274 HD
ATOM      8  H12 UNL     1      29.512  20.064  62.085  1.00  0.00     0.274 HD
ATOM      9  H11 UNL     1      28.744  18.658  62.600  1.00  0.00     0.274 HD
ENDBRANCH   5   6
ENDBRANCH   4   5
ENDBRANCH   3   4
ENDBRANCH   2   3
BRANCH   2  10
HETATM   10  N2  UNL     1      24.762  17.944  65.785  1.00  0.00    -0.069 N 
ATOM     11  H23 UNL     1      23.991  17.285  65.674  1.00  0.00     0.275 HD
ATOM     12  H22 UNL     1      25.130  17.572  66.660  1.00  0.00     0.275 HD
ATOM     13  H21 UNL     1      24.450  18.912  65.863  1.00  0.00     0.275 HD
ENDBRANCH   2  10
ENDBRANCH   1   2
BRANCH   1  14
HETATM   14  N3  UNL     1      23.641  17.451  63.626  1.00  0.00    -0.024 N 
ATOM     15  H33 UNL     1      23.233  16.522  63.524  1.00  0.00     0.279 HD
ATOM     16  H32 UNL     1      23.385  17.588  64.605  1.00  0.00     0.279 HD
ATOM     17  H31 UNL     1      23.239  18.147  62.997  1.00  0.00     0.279 HD
ENDBRANCH   1  14
BRANCH   1  18
HETATM   18  N4  UNL     1      25.284  18.537  62.392  1.00  0.00    -0.024 N 
ATOM     19  H43 UNL     1      26.243  18.886  62.399  1.00  0.00     0.279 HD
ATOM     20  H42 UNL     1      25.263  18.166  61.442  1.00  0.00     0.279 HD
ATOM     21  H41 UNL     1      24.608  19.291  62.518  1.00  0.00     0.279 HD
ENDBRANCH   1  18
BRANCH   1  22
HETATM   22  N5  UNL     1      25.555  16.276  62.841  1.00  0.00    -0.320 N 
HETATM   23  C6  UNL     1      26.771  15.750  63.279  1.00  0.00     0.164 C 
HETATM   24  C7  UNL     1      27.919  15.850  62.343  1.00  0.00     0.256 C 
HETATM   25  O1  UNL     1      28.988  15.296  62.741  1.00  0.00    -0.267 OA
HETATM   26  N6  UNL     1      27.900  16.496  61.084  1.00  0.00    -0.355 N 
HETATM   27  C8  UNL     1      26.856  16.303  60.094  1.00  0.00     0.142 C 
ATOM     28  H6  UNL     1      28.663  17.134  60.860  1.00  0.00     0.162 HD
HETATM   29  C9  UNL     1      26.719  14.887  59.671  1.00  0.00     0.142 C 
HETATM   30  N7  UNL     1      25.688  14.116  60.298  1.00  0.00    -0.358 N 
HETATM   31  C10 UNL     1      25.160  14.236  61.596  1.00  0.00     0.235 C 
ATOM     32  H7  UNL     1      25.281  13.378  59.724  1.00  0.00     0.162 HD
HETATM   33  O2  UNL     1      25.156  13.180  62.331  1.00  0.00    -0.272 OA
HETATM   34  C11 UNL     1      24.600  15.435  62.232  1.00  0.00     0.229 C 
ENDBRANCH   1  22
TORSDOF 9
ENDMDL
MODEL 3
REMARK VINA RESULT: -6.312664938      2.948      5.715
REMARK  9 active torsions:
REMARK  status: ('A' for Active; 'I' for Inactive)
REMARK    1  A    between atoms: N1_1  and  C1_5 
REMARK    2  A    between atoms: C1_5  and  C2_6 
REMARK    3  A    between atoms: C2_6  and  C3_7 
REMARK    4  A    between atoms: C3_7  and  C4_8 
REMARK    5  A    between atoms: C4_8  and  N2_9 
REMARK    6  A    between atoms: C4_8  and  C5_13 
REMARK    7  A    between atoms: C5_13  and  N3_14 
REMARK    8  A    between atoms: C5_13  and  N4_18 
REMARK    9  A    between atoms: C5_13  and  N5_22 
ROOT
HETATM    1  C5  UNL     1      26.792  17.791  62.262  1.00  0.00     0.388 C 
ENDROOT
BRANCH   1   2
HETATM    2  C4  UNL     1      27.325  17.427  60.889  1.00  0.00     0.269 C 
BRANCH   2   3
HETATM    3  C3  UNL     1      26.311  16.437  60.309  1.00  0.00     0.041 C 
BRANCH   3   4
HETATM    4  C2  UNL     1      26.983  15.203  59.764  1.00  0.00     0.029 C 
BRANCH   4   5
HETATM    5  C1  UNL     1      26.195  14.020  60.319  1.00  0.00     0.229 C 
BRANCH   5   6
HETATM    6  N1  UNL     1      24.786  14.310  60.437  1.00  0.00    -0.079 N 
ATOM      7  H13 UNL     1      24.363  14.459  59.522  1.00  0.00     0.274 HD
ATOM      8  H12 UNL     1      24.263  13.483  60.726  1.00  0.00     0.274 HD
ATOM      9  H11 UNL     1      24.606  15.097  61.060  1.00  0.00     0.274 HD
ENDBRANCH   5   6
ENDBRANCH   4   5
ENDBRANCH   3   4
ENDBRANCH   2   3
BRANCH   2  10
HETATM   10  N2  UNL     1      27.395  18.541  59.994  1.00  0.00    -0.069 N 
ATOM     11  H23 UNL     1      27.981  19.298  60.346  1.00  0.00     0.275 HD
ATOM     12  H22 UNL     1      27.929  18.340  59.149  1.00  0.00     0.275 HD
ATOM     13  H21 UNL     1      26.438  18.837  59.800  1.00  0.00     0.275 HD
ENDBRANCH   2  10
ENDBRANCH   1   2
BRANCH   1  14
HETATM   14  N3  UNL     1      25.920  18.947  62.049  1.00  0.00    -0.024 N 
ATOM     15  H33 UNL     1      26.327  19.662  61.446  1.00  0.00     0.279 HD
ATOM     16  H32 UNL     1      25.107  18.746  61.466  1.00  0.00     0.279 HD
ATOM     17  H31 UNL     1      25.682  19.284  62.982  1.00  0.00     0.279 HD
ENDBRANCH   1  14
BRANCH   1  18
HETATM   18  N4  UNL     1      25.928  16.738  62.776  1.00  0.00    -0.024 N 
ATOM     19  H43 UNL     1      26.311  16.314  63.621  1.00  0.00     0.279 HD
ATOM     20  H42 UNL     1      25.066  17.116  63.170  1.00  0.00     0.279 HD
ATOM     21  H41 UNL     1      25.739  16.041  62.055  1.00  0.00     0.279 HD
ENDBRANCH   1  18
BRANCH   1  22
HETATM   22  N5  UNL     1      27.783  18.057  63.234  1.00  0.00    -0.320 N 
HETATM   23  C6  UNL     1      28.103  19.379  63.547  1.00  0.00     0.164 C 
HETATM   24  C7  UNL     1      29.401  19.891  63.039  1.00  0.00     0.256 C 
HETATM   25  O1  UNL     1      29.696  21.068  63.405  1.00  0.00    -0.267 OA
HETATM   26  N6  UNL     1      30.297  19.178  62.208  1.00  0.00    -0.355 N 
HETATM   27  C8  UNL     1      30.709  17.807  62.453  1.00  0.00     0.142 C 
ATOM     28  H6  UNL     1      30.675  19.654  61.389  1.00  0.00     0.162 HD
HETATM   29  C9  UNL     1      31.369  17.632  63.771  1.00  0.00     0.142 C 
HETATM   30  N7  UNL     1      30.560  17.140  64.845  1.00  0.00    -0.358 N 
HETATM   31  C10 UNL     1      29.182  17.319  65.067  1.00  0.00     0.235 C 
ATOM     32  H7  UNL     1      31.050  16.584  65.545  1.00  0.00     0.162 HD
HETATM   33  O2  UNL     1      28.826  17.796  66.208  1.00  0.00    -0.272 OA
HETATM   34  C11 UNL     1      28.077  17.024  64.147  1.00  0.00     0.229 C 
ENDBRANCH   1  22
TORSDOF 9
ENDMDL
MODEL 4
REMARK VINA RESULT: -6.272545423      2.881      5.759
REMARK  9 active torsions:
REMARK  status: ('A' for Active; 'I' for Inactive)
REMARK    1  A    between atoms: N1_1  and  C1_5 
REMARK    2  A    between atoms: C1_5  and  C2_6 
REMARK    3  A    between atoms: C2_6  and  C3_7 
REMARK    4  A    between atoms: C3_7  and  C4_8 
REMARK    5  A    between atoms: C4_8  and  N2_9 
REMARK    6  A    between atoms: C4_8  and  C5_13 
REMARK    7  A    between atoms: C5_13  and  N3_14 
REMARK    8  A    between atoms: C5_13  and  N4_18 
REMARK    9  A    between atoms: C5_13  and  N5_22 
ROOT
HETATM    1  C5  UNL     1      26.819  17.464  61.474  1.00  0.00     0.388 C 
ENDROOT
BRANCH   1   2
HETATM    2  C4  UNL     1      27.039  15.977  61.677  1.00  0.00     0.269 C 
BRANCH   2   3
HETATM    3  C3  UNL     1      25.866  15.506  62.540  1.00  0.00     0.041 C 
BRANCH   3   4
HETATM    4  C2  UNL     1      25.405  14.125  62.152  1.00  0.00     0.029 C 
BRANCH   4   5
HETATM    5  C1  UNL     1      23.894  14.227  61.964  1.00  0.00     0.229 C 
BRANCH   5   6
HETATM    6  N1  UNL     1      23.525  14.370  60.577  1.00  0.00    -0.079 N 
ATOM      7  H13 UNL     1      24.322  14.204  59.964  1.00  0.00     0.274 HD
ATOM      8  H12 UNL     1      22.924  13.603  60.274  1.00  0.00     0.274 HD
ATOM      9  H11 UNL     1      23.093  15.274  60.385  1.00  0.00     0.274 HD
ENDBRANCH   5   6
ENDBRANCH   4   5
ENDBRANCH   3   4
ENDBRANCH   2   3
BRANCH   2  10
HETATM   10  N2  UNL     1      27.003  15.227  60.459  1.00  0.00    -0.069 N 
ATOM     11  H23 UNL     1      26.838  15.809  59.638  1.00  0.00     0.275 HD
ATOM     12  H22 UNL     1      27.917  14.867  60.186  1.00  0.00     0.275 HD
ATOM     13  H21 UNL     1      26.304  14.493  60.573  1.00  0.00     0.275 HD
ENDBRANCH   2  10
ENDBRANCH   1   2
BRANCH   1  14
HETATM   14  N3  UNL     1      26.848  17.669  60.026  1.00  0.00    -0.024 N 
ATOM     15  H33 UNL     1      27.712  18.095  59.689  1.00  0.00     0.279 HD
ATOM     16  H32 UNL     1      26.923  16.804  59.490  1.00  0.00     0.279 HD
ATOM     17  H31 UNL     1      26.012  18.214  59.811  1.00  0.00     0.279 HD
ENDBRANCH   1  14
BRANCH   1  18
HETATM   18  N4  UNL     1      25.480  17.850  61.897  1.00  0.00    -0.024 N 
ATOM     19  H43 UNL     1      24.936  17.045  62.209  1.00  0.00     0.279 HD
ATOM     20  H42 UNL     1      25.497  18.373  62.772  1.00  0.00     0.279 HD
ATOM     21  H41 UNL     1      25.002  18.365  61.158  1.00  0.00     0.279 HD
ENDBRANCH   1  18
BRANCH   1  22
HETATM   22  N5  UNL     1      27.745  18.300  62.138  1.00  0.00    -0.320 N 
HETATM   23  C6  UNL     1      29.061  18.372  61.678  1.00  0.00     0.164 C 
HETATM   24  C7  UNL     1      30.094  17.688  62.496  1.00  0.00     0.256 C 
HETATM   25  O1  UNL     1      31.286  17.837  62.092  1.00  0.00    -0.267 OA
HETATM   26  N6  UNL     1      29.846  16.912  63.653  1.00  0.00    -0.355 N 
HETATM   27  C8  UNL     1      28.985  17.339  64.741  1.00  0.00     0.142 C 
ATOM     28  H6  UNL     1      30.297  16.001  63.727  1.00  0.00     0.162 HD
HETATM   29  C9  UNL     1      29.430  18.612  65.362  1.00  0.00     0.142 C 
HETATM   30  N7  UNL     1      28.777  19.811  64.930  1.00  0.00    -0.358 N 
HETATM   31  C10 UNL     1      28.218  20.110  63.674  1.00  0.00     0.235 C 
ATOM     32  H7  UNL     1      28.709  20.550  65.630  1.00  0.00     0.162 HD
HETATM   33  O2  UNL     1      28.619  21.185  63.092  1.00  0.00    -0.272 OA
HETATM   34  C11 UNL     1      27.216  19.339  62.929  1.00  0.00     0.229 C 
ENDBRANCH   1  22
TORSDOF 9
ENDMDL
MODEL 5
REMARK VINA RESULT: -6.259639745      2.756      5.322
REMARK  9 active torsions:
REMARK  status: ('A' for Active; 'I' for Inactive)
REMARK    1  A    between atoms: N1_1  and  C1_5 
REMARK    2  A    between atoms: C1_5  and  C2_6 
REMARK    3  A    between atoms: C2_6  and  C3_7 
REMARK    4  A    between atoms: C3_7  and  C4_8 
REMARK    5  A    between atoms: C4_8  and  N2_9 
REMARK    6  A    between atoms: C4_8  and  C5_13 
REMARK    7  A    between atoms: C5_13  and  N3_14 
REMARK    8  A    between atoms: C5_13  and  N4_18 
REMARK    9  A    between atoms: C5_13  and  N5_22 
ROOT
HETATM    1  C5  UNL     1      26.665  17.942  61.764  1.00  0.00     0.388 C 
ENDROOT
BRANCH   1   2
HETATM    2  C4  UNL     1      26.107  16.623  61.264  1.00  0.00     0.269 C 
BRANCH   2   3
HETATM    3  C3  UNL     1      24.632  16.625  61.672  1.00  0.00     0.041 C 
BRANCH   3   4
HETATM    4  C2  UNL     1      23.914  15.393  61.185  1.00  0.00     0.029 C 
BRANCH   4   5
HETATM    5  C1  UNL     1      24.385  14.253  62.083  1.00  0.00     0.229 C 
BRANCH   5   6
HETATM    6  N1  UNL     1      23.334  13.768  62.945  1.00  0.00    -0.079 N 
ATOM      7  H13 UNL     1      23.717  13.294  63.763  1.00  0.00     0.274 HD
ATOM      8  H12 UNL     1      22.856  14.539  63.414  1.00  0.00     0.274 HD
ATOM      9  H11 UNL     1      22.673  13.171  62.449  1.00  0.00     0.274 HD
ENDBRANCH   5   6
ENDBRANCH   4   5
ENDBRANCH   3   4
ENDBRANCH   2   3
BRANCH   2  10
HETATM   10  N2  UNL     1      26.156  16.490  59.840  1.00  0.00    -0.069 N 
ATOM     11  H23 UNL     1      26.457  15.564  59.537  1.00  0.00     0.275 HD
ATOM     12  H22 UNL     1      25.232  16.478  59.409  1.00  0.00     0.275 HD
ATOM     13  H21 UNL     1      26.752  17.237  59.484  1.00  0.00     0.275 HD
ENDBRANCH   2  10
ENDBRANCH   1   2
BRANCH   1  14
HETATM   14  N3  UNL     1      27.219  18.605  60.583  1.00  0.00    -0.024 N 
ATOM     15  H33 UNL     1      27.636  17.963  59.909  1.00  0.00     0.279 HD
ATOM     16  H32 UNL     1      26.510  18.991  59.959  1.00  0.00     0.279 HD
ATOM     17  H31 UNL     1      27.871  19.302  60.943  1.00  0.00     0.279 HD
ENDBRANCH   1  14
BRANCH   1  18
HETATM   18  N4  UNL     1      25.595  18.810  62.235  1.00  0.00    -0.024 N 
ATOM     19  H43 UNL     1      24.959  19.069  61.480  1.00  0.00     0.279 HD
ATOM     20  H42 UNL     1      24.934  18.308  62.827  1.00  0.00     0.279 HD
ATOM     21  H41 UNL     1      25.976  19.631  62.706  1.00  0.00     0.279 HD
ENDBRANCH   1  18
BRANCH   1  22
HETATM   22  N5  UNL     1      27.624  17.830  62.796  1.00  0.00    -0.320 N 
HETATM   23  C6  UNL     1      27.775  18.871  63.713  1.00  0.00     0.164 C 
HETATM   24  C7  UNL     1      28.990  19.713  63.575  1.00  0.00     0.256 C 
HETATM   25  O1  UNL     1      29.135  20.600  64.468  1.00  0.00    -0.267 OA
HETATM   26  N6  UNL     1      29.961  19.593  62.553  1.00  0.00    -0.355 N 
HETATM   27  C8  UNL     1      30.549  18.331  62.142  1.00  0.00     0.142 C 
ATOM     28  H6  UNL     1      30.265  20.442  62.077  1.00  0.00     0.162 HD
HETATM   29  C9  UNL     1      31.240  17.630  63.252  1.00  0.00     0.142 C 
HETATM   30  N7  UNL     1      30.514  16.594  63.923  1.00  0.00    -0.358 N 
HETATM   31  C10 UNL     1      29.127  16.481  64.132  1.00  0.00     0.235 C 
ATOM     32  H7  UNL     1      31.079  15.835  64.301  1.00  0.00     0.162 HD
HETATM   33  O2  UNL     1      28.725  16.312  65.342  1.00  0.00    -0.272 OA
HETATM   34  C11 UNL     1      28.059  16.530  63.126  1.00  0.00     0.229 C 
ENDBRANCH   1  22
TORSDOF 9
ENDMDL
