MODEL 1
REMARK VINA RESULT: -5.685057694      0.000      0.000
REMARK  12 active torsions:
REMARK  status: ('A' for Active; 'I' for Inactive)
REMARK    1  A    between atoms: C4_4  and  C5_5 
REMARK    2  A    between atoms: C5_5  and  N1_6 
REMARK    3  A    between atoms: C6_10  and  N2_11 
REMARK    4  A    between atoms: C7_15  and  O1_16 
REMARK    5  A    between atoms: C8_18  and  O2_19 
REMARK    6  A    between atoms: N3_22  and  C10_23 
REMARK    7  A    between atoms: N3_22  and  C12_29 
REMARK    8  A    between atoms: C10_23  and  C11_24 
REMARK    9  A    between atoms: C11_24  and  N4_25 
REMARK   10  A    between atoms: C12_29  and  C13_30 
REMARK   11  A    between atoms: C13_30  and  C14_31 
REMARK   12  A    between atoms: C14_31  and  N5_32 
ROOT
HETATM    1  C1  UNL     1      26.125  21.099  65.350  1.00  0.00     0.027 C 
HETATM    2  C2  UNL     1      26.059  20.152  64.603  1.00  0.00    -0.026 C 
HETATM    3  C3  UNL     1      25.963  19.041  63.733  1.00  0.00    -0.011 C 
HETATM    4  C4  UNL     1      25.864  18.084  62.969  1.00  0.00    -0.021 C 
ENDROOT
BRANCH   4   5
HETATM    5  C5  UNL     1      25.733  16.965  62.022  1.00  0.00     0.381 C 
HETATM    6  C6  UNL     1      24.965  15.839  62.679  1.00  0.00     0.292 C 
HETATM    7  C7  UNL     1      24.646  14.848  61.562  1.00  0.00     0.184 C 
HETATM    8  C8  UNL     1      25.940  14.383  60.912  1.00  0.00     0.175 C 
HETATM    9  C9  UNL     1      27.129  15.098  61.511  1.00  0.00     0.276 C 
HETATM   10  N3  UNL     1      27.000  16.551  61.457  1.00  0.00    -0.015 N 
BRANCH   5  11
HETATM   11  N1  UNL     1      24.802  17.436  60.976  1.00  0.00    -0.031 N 
ATOM     12  H13 UNL     1      25.243  18.029  60.272  1.00  0.00     0.278 HD
ATOM     13  H12 UNL     1      24.495  16.700  60.339  1.00  0.00     0.278 HD
ATOM     14  H11 UNL     1      24.037  17.891  61.474  1.00  0.00     0.278 HD
ENDBRANCH   5  11
BRANCH   6  15
HETATM   15  N2  UNL     1      23.726  16.408  63.164  1.00  0.00    -0.067 N 
ATOM     16  H23 UNL     1      23.846  17.324  63.597  1.00  0.00     0.275 HD
ATOM     17  H22 UNL     1      23.098  16.702  62.416  1.00  0.00     0.275 HD
ATOM     18  H21 UNL     1      23.311  15.718  63.790  1.00  0.00     0.275 HD
ENDBRANCH   6  15
BRANCH   7  19
HETATM   19  O1  UNL     1      23.839  13.807  61.977  1.00  0.00    -0.391 OA
ATOM     20  H1  UNL     1      23.992  13.003  61.495  1.00  0.00     0.210 HD
ENDBRANCH   7  19
BRANCH   8  21
HETATM   21  O2  UNL     1      26.085  13.031  61.221  1.00  0.00    -0.391 OA
ATOM     22  H2  UNL     1      26.468  12.614  60.458  1.00  0.00     0.210 HD
ENDBRANCH   8  21
BRANCH  10  23
HETATM   23  C10 UNL     1      28.153  17.215  61.940  1.00  0.00     0.269 C 
BRANCH  23  24
HETATM   24  C11 UNL     1      29.213  16.426  62.629  1.00  0.00     0.257 C 
BRANCH  24  25
HETATM   25  N4  UNL     1      30.571  16.811  62.325  1.00  0.00    -0.078 N 
ATOM     26  H43 UNL     1      30.580  17.478  61.554  1.00  0.00     0.274 HD
ATOM     27  H42 UNL     1      30.944  17.395  63.073  1.00  0.00     0.274 HD
ATOM     28  H41 UNL     1      31.212  16.042  62.129  1.00  0.00     0.274 HD
ENDBRANCH  24  25
ENDBRANCH  23  24
ENDBRANCH  10  23
BRANCH  10  29
HETATM   29  C12 UNL     1      26.876  16.852  60.040  1.00  0.00     0.243 C 
BRANCH  29  30
HETATM   30  C13 UNL     1      27.592  18.018  59.498  1.00  0.00     0.055 C 
BRANCH  30  31
HETATM   31  C14 UNL     1      27.220  18.046  57.992  1.00  0.00     0.231 C 
BRANCH  31  32
HETATM   32  N5  UNL     1      26.459  16.876  57.677  1.00  0.00    -0.079 N 
ATOM     33  H53 UNL     1      26.846  16.034  58.104  1.00  0.00     0.274 HD
ATOM     34  H52 UNL     1      25.551  16.867  58.142  1.00  0.00     0.274 HD
ATOM     35  H51 UNL     1      26.376  16.795  56.664  1.00  0.00     0.274 HD
ENDBRANCH  31  32
ENDBRANCH  30  31
ENDBRANCH  29  30
ENDBRANCH  10  29
ENDBRANCH   4   5
TORSDOF 12
ENDMDL
MODEL 2
REMARK VINA RESULT: -5.528511325      3.047      5.310
REMARK  12 active torsions:
REMARK  status: ('A' for Active; 'I' for Inactive)
REMARK    1  A    between atoms: C4_4  and  C5_5 
REMARK    2  A    between atoms: C5_5  and  N1_6 
REMARK    3  A    between atoms: C6_10  and  N2_11 
REMARK    4  A    between atoms: C7_15  and  O1_16 
REMARK    5  A    between atoms: C8_18  and  O2_19 
REMARK    6  A    between atoms: N3_22  and  C10_23 
REMARK    7  A    between atoms: N3_22  and  C12_29 
REMARK    8  A    between atoms: C10_23  and  C11_24 
REMARK    9  A    between atoms: C11_24  and  N4_25 
REMARK   10  A    between atoms: C12_29  and  C13_30 
REMARK   11  A    between atoms: C13_30  and  C14_31 
REMARK   12  A    between atoms: C14_31  and  N5_32 
ROOT
HETATM    1  C1  UNL     1      23.365  13.672  61.878  1.00  0.00     0.027 C 
HETATM    2  C2  UNL     1      24.153  14.523  62.213  1.00  0.00    -0.026 C 
HETATM    3  C3  UNL     1      25.065  15.525  62.618  1.00  0.00    -0.011 C 
HETATM    4  C4  UNL     1      25.855  16.390  62.989  1.00  0.00    -0.021 C 
ENDROOT
BRANCH   4   5
HETATM    5  C5  UNL     1      26.817  17.399  63.463  1.00  0.00     0.381 C 
HETATM    6  C6  UNL     1      26.072  18.657  63.855  1.00  0.00     0.292 C 
HETATM    7  C7  UNL     1      27.095  19.534  64.574  1.00  0.00     0.184 C 
HETATM    8  C8  UNL     1      28.272  19.805  63.649  1.00  0.00     0.175 C 
HETATM    9  C9  UNL     1      28.109  19.062  62.343  1.00  0.00     0.276 C 
HETATM   10  N3  UNL     1      27.898  17.630  62.529  1.00  0.00    -0.015 N 
BRANCH   5  11
HETATM   11  N1  UNL     1      27.319  16.892  64.757  1.00  0.00    -0.031 N 
ATOM     12  H13 UNL     1      27.124  15.903  64.913  1.00  0.00     0.278 HD
ATOM     13  H12 UNL     1      28.335  16.825  64.804  1.00  0.00     0.278 HD
ATOM     14  H11 UNL     1      26.917  17.506  65.466  1.00  0.00     0.278 HD
ENDBRANCH   5  11
BRANCH   6  15
HETATM   15  N2  UNL     1      25.053  18.259  64.801  1.00  0.00    -0.067 N 
ATOM     16  H23 UNL     1      24.843  17.261  64.771  1.00  0.00     0.275 HD
ATOM     17  H22 UNL     1      25.368  18.295  65.771  1.00  0.00     0.275 HD
ATOM     18  H21 UNL     1      24.239  18.847  64.620  1.00  0.00     0.275 HD
ENDBRANCH   6  15
BRANCH   7  19
HETATM   19  O1  UNL     1      26.541  20.684  65.104  1.00  0.00    -0.391 OA
ATOM     20  H1  UNL     1      26.883  21.477  64.707  1.00  0.00     0.210 HD
ENDBRANCH   7  19
BRANCH   8  21
HETATM   21  O2  UNL     1      28.243  21.165  63.346  1.00  0.00    -0.391 OA
ATOM     22  H2  UNL     1      27.392  21.490  63.617  1.00  0.00     0.210 HD
ENDBRANCH   8  21
BRANCH  10  23
HETATM   23  C10 UNL     1      27.833  16.928  61.302  1.00  0.00     0.269 C 
BRANCH  23  24
HETATM   24  C11 UNL     1      27.343  17.635  60.084  1.00  0.00     0.257 C 
BRANCH  24  25
HETATM   25  N4  UNL     1      26.285  16.968  59.363  1.00  0.00    -0.078 N 
ATOM     26  H43 UNL     1      26.388  17.132  58.361  1.00  0.00     0.274 HD
ATOM     27  H42 UNL     1      26.422  15.958  59.395  1.00  0.00     0.274 HD
ATOM     28  H41 UNL     1      25.337  17.202  59.659  1.00  0.00     0.274 HD
ENDBRANCH  24  25
ENDBRANCH  23  24
ENDBRANCH  10  23
BRANCH  10  29
HETATM   29  C12 UNL     1      29.086  17.178  63.236  1.00  0.00     0.243 C 
BRANCH  29  30
HETATM   30  C13 UNL     1      30.081  16.377  62.508  1.00  0.00     0.055 C 
BRANCH  30  31
HETATM   31  C14 UNL     1      31.363  17.251  62.499  1.00  0.00     0.231 C 
BRANCH  31  32
HETATM   32  N5  UNL     1      31.726  17.561  63.847  1.00  0.00    -0.079 N 
ATOM     33  H53 UNL     1      31.541  16.788  64.487  1.00  0.00     0.274 HD
ATOM     34  H52 UNL     1      32.737  17.613  63.975  1.00  0.00     0.274 HD
ATOM     35  H51 UNL     1      31.254  18.419  64.130  1.00  0.00     0.274 HD
ENDBRANCH  31  32
ENDBRANCH  30  31
ENDBRANCH  29  30
ENDBRANCH  10  29
ENDBRANCH   4   5
TORSDOF 12
ENDMDL
MODEL 3
REMARK VINA RESULT: -5.520214580      2.636      4.999
REMARK  12 active torsions:
REMARK  status: ('A' for Active; 'I' for Inactive)
REMARK    1  A    between atoms: C4_4  and  C5_5 
REMARK    2  A    between atoms: C5_5  and  N1_6 
REMARK    3  A    between atoms: C6_10  and  N2_11 
REMARK    4  A    between atoms: C7_15  and  O1_16 
REMARK    5  A    between atoms: C8_18  and  O2_19 
REMARK    6  A    between atoms: N3_22  and  C10_23 
REMARK    7  A    between atoms: N3_22  and  C12_29 
REMARK    8  A    between atoms: C10_23  and  C11_24 
REMARK    9  A    between atoms: C11_24  and  N4_25 
REMARK   10  A    between atoms: C12_29  and  C13_30 
REMARK   11  A    between atoms: C13_30  and  C14_31 
REMARK   12  A    between atoms: C14_31  and  N5_32 
ROOT
HETATM    1  C1  UNL     1      28.086  18.666  56.490  1.00  0.00     0.027 C 
HETATM    2  C2  UNL     1      27.822  18.477  57.653  1.00  0.00    -0.026 C 
HETATM    3  C3  UNL     1      27.506  18.239  59.011  1.00  0.00    -0.011 C 
HETATM    4  C4  UNL     1      27.239  18.014  60.189  1.00  0.00    -0.021 C 
ENDROOT
BRANCH   4   5
HETATM    5  C5  UNL     1      26.957  17.724  61.605  1.00  0.00     0.381 C 
HETATM    6  C6  UNL     1      28.152  18.120  62.445  1.00  0.00     0.292 C 
HETATM    7  C7  UNL     1      27.681  18.040  63.895  1.00  0.00     0.184 C 
HETATM    8  C8  UNL     1      27.187  16.632  64.192  1.00  0.00     0.175 C 
HETATM    9  C9  UNL     1      27.237  15.774  62.950  1.00  0.00     0.276 C 
HETATM   10  N3  UNL     1      26.517  16.363  61.825  1.00  0.00    -0.015 N 
BRANCH   5  11
HETATM   11  N1  UNL     1      25.925  18.700  62.012  1.00  0.00    -0.031 N 
ATOM     12  H13 UNL     1      25.874  19.519  61.406  1.00  0.00     0.278 HD
ATOM     13  H12 UNL     1      24.971  18.375  61.858  1.00  0.00     0.278 HD
ATOM     14  H11 UNL     1      26.129  18.923  62.986  1.00  0.00     0.278 HD
ENDBRANCH   5  11
BRANCH   6  15
HETATM   15  N2  UNL     1      28.445  19.501  62.126  1.00  0.00    -0.067 N 
ATOM     16  H23 UNL     1      27.650  19.999  61.727  1.00  0.00     0.275 HD
ATOM     17  H22 UNL     1      28.564  20.088  62.952  1.00  0.00     0.275 HD
ATOM     18  H21 UNL     1      29.263  19.493  61.517  1.00  0.00     0.275 HD
ENDBRANCH   6  15
BRANCH   7  19
HETATM   19  O1  UNL     1      28.629  18.487  64.796  1.00  0.00    -0.391 OA
ATOM     20  H1  UNL     1      29.058  17.781  65.264  1.00  0.00     0.210 HD
ENDBRANCH   7  19
BRANCH   8  21
HETATM   21  O2  UNL     1      28.082  16.074  65.104  1.00  0.00    -0.391 OA
ATOM     22  H2  UNL     1      28.235  16.729  65.775  1.00  0.00     0.210 HD
ENDBRANCH   8  21
BRANCH  10  23
HETATM   23  C10 UNL     1      26.494  15.516  60.692  1.00  0.00     0.269 C 
BRANCH  23  24
HETATM   24  C11 UNL     1      27.236  14.224  60.734  1.00  0.00     0.257 C 
BRANCH  24  25
HETATM   25  N4  UNL     1      26.418  13.042  60.869  1.00  0.00    -0.078 N 
ATOM     26  H43 UNL     1      26.060  12.971  61.821  1.00  0.00     0.274 HD
ATOM     27  H42 UNL     1      25.544  13.161  60.356  1.00  0.00     0.274 HD
ATOM     28  H41 UNL     1      26.865  12.165  60.598  1.00  0.00     0.274 HD
ENDBRANCH  24  25
ENDBRANCH  23  24
ENDBRANCH  10  23
BRANCH  10  29
HETATM   29  C12 UNL     1      25.150  16.502  62.304  1.00  0.00     0.243 C 
BRANCH  29  30
HETATM   30  C13 UNL     1      24.078  15.782  61.600  1.00  0.00     0.055 C 
BRANCH  30  31
HETATM   31  C14 UNL     1      23.768  14.556  62.499  1.00  0.00     0.231 C 
BRANCH  31  32
HETATM   32  N5  UNL     1      23.037  13.591  61.737  1.00  0.00    -0.079 N 
ATOM     33  H53 UNL     1      23.288  13.605  60.749  1.00  0.00     0.274 HD
ATOM     34  H52 UNL     1      23.326  12.634  61.944  1.00  0.00     0.274 HD
ATOM     35  H51 UNL     1      22.039  13.736  61.886  1.00  0.00     0.274 HD
ENDBRANCH  31  32
ENDBRANCH  30  31
ENDBRANCH  29  30
ENDBRANCH  10  29
ENDBRANCH   4   5
TORSDOF 12
ENDMDL
MODEL 4
REMARK VINA RESULT: -5.462508444      3.348      5.716
REMARK  12 active torsions:
REMARK  status: ('A' for Active; 'I' for Inactive)
REMARK    1  A    between atoms: C4_4  and  C5_5 
REMARK    2  A    between atoms: C5_5  and  N1_6 
REMARK    3  A    between atoms: C6_10  and  N2_11 
REMARK    4  A    between atoms: C7_15  and  O1_16 
REMARK    5  A    between atoms: C8_18  and  O2_19 
REMARK    6  A    between atoms: N3_22  and  C10_23 
REMARK    7  A    between atoms: N3_22  and  C12_29 
REMARK    8  A    between atoms: C10_23  and  C11_24 
REMARK    9  A    between atoms: C11_24  and  N4_25 
REMARK   10  A    between atoms: C12_29  and  C13_30 
REMARK   11  A    between atoms: C13_30  and  C14_31 
REMARK   12  A    between atoms: C14_31  and  N5_32 
ROOT
HETATM    1  C1  UNL     1      26.301  13.310  61.588  1.00  0.00     0.027 C 
HETATM    2  C2  UNL     1      26.220  14.359  62.179  1.00  0.00    -0.026 C 
HETATM    3  C3  UNL     1      26.142  15.594  62.865  1.00  0.00    -0.011 C 
HETATM    4  C4  UNL     1      26.079  16.676  63.444  1.00  0.00    -0.021 C 
ENDROOT
BRANCH   4   5
HETATM    5  C5  UNL     1      25.984  17.989  64.103  1.00  0.00     0.381 C 
HETATM    6  C6  UNL     1      24.565  18.502  63.997  1.00  0.00     0.292 C 
HETATM    7  C7  UNL     1      24.494  19.716  64.921  1.00  0.00     0.184 C 
HETATM    8  C8  UNL     1      25.531  20.743  64.490  1.00  0.00     0.175 C 
HETATM    9  C9  UNL     1      26.360  20.218  63.341  1.00  0.00     0.276 C 
HETATM   10  N3  UNL     1      26.979  18.929  63.633  1.00  0.00    -0.015 N 
BRANCH   5  11
HETATM   11  N1  UNL     1      26.133  17.720  65.548  1.00  0.00    -0.031 N 
ATOM     12  H13 UNL     1      25.295  17.332  65.982  1.00  0.00     0.278 HD
ATOM     13  H12 UNL     1      26.751  16.937  65.757  1.00  0.00     0.278 HD
ATOM     14  H11 UNL     1      26.437  18.602  65.961  1.00  0.00     0.278 HD
ENDBRANCH   5  11
BRANCH   6  15
HETATM   15  N2  UNL     1      23.706  17.465  64.525  1.00  0.00    -0.067 N 
ATOM     16  H23 UNL     1      23.989  17.141  65.450  1.00  0.00     0.275 HD
ATOM     17  H22 UNL     1      22.779  17.802  64.784  1.00  0.00     0.275 HD
ATOM     18  H21 UNL     1      23.683  16.720  63.828  1.00  0.00     0.275 HD
ENDBRANCH   6  15
BRANCH   7  19
HETATM   19  O1  UNL     1      23.220  20.239  65.029  1.00  0.00    -0.391 OA
ATOM     20  H1  UNL     1      23.212  21.135  65.345  1.00  0.00     0.210 HD
ENDBRANCH   7  19
BRANCH   8  21
HETATM   21  O2  UNL     1      24.830  21.848  64.010  1.00  0.00    -0.391 OA
ATOM     22  H2  UNL     1      25.006  21.903  63.078  1.00  0.00     0.210 HD
ENDBRANCH   8  21
BRANCH  10  23
HETATM   23  C10 UNL     1      27.823  18.484  62.588  1.00  0.00     0.269 C 
BRANCH  23  24
HETATM   24  C11 UNL     1      27.552  18.932  61.192  1.00  0.00     0.257 C 
BRANCH  24  25
HETATM   25  N4  UNL     1      27.261  17.879  60.248  1.00  0.00    -0.078 N 
ATOM     26  H43 UNL     1      27.115  18.274  59.319  1.00  0.00     0.274 HD
ATOM     27  H42 UNL     1      28.098  17.322  60.077  1.00  0.00     0.274 HD
ATOM     28  H41 UNL     1      26.480  17.271  60.495  1.00  0.00     0.274 HD
ENDBRANCH  24  25
ENDBRANCH  23  24
ENDBRANCH  10  23
BRANCH  10  29
HETATM   29  C12 UNL     1      27.812  19.183  64.798  1.00  0.00     0.243 C 
BRANCH  29  30
HETATM   30  C13 UNL     1      29.215  19.575  64.593  1.00  0.00     0.055 C 
BRANCH  30  31
HETATM   31  C14 UNL     1      29.490  20.644  65.684  1.00  0.00     0.231 C 
BRANCH  31  32
HETATM   32  N5  UNL     1      28.924  21.891  65.268  1.00  0.00    -0.079 N 
ATOM     33  H53 UNL     1      29.125  22.102  64.291  1.00  0.00     0.274 HD
ATOM     34  H52 UNL     1      27.907  21.852  65.201  1.00  0.00     0.274 HD
ATOM     35  H51 UNL     1      29.243  22.627  65.898  1.00  0.00     0.274 HD
ENDBRANCH  31  32
ENDBRANCH  30  31
ENDBRANCH  29  30
ENDBRANCH  10  29
ENDBRANCH   4   5
TORSDOF 12
ENDMDL
MODEL 5
REMARK VINA RESULT: -5.365500482      2.174      2.599
REMARK  12 active torsions:
REMARK  status: ('A' for Active; 'I' for Inactive)
REMARK    1  A    between atoms: C4_4  and  C5_5 
REMARK    2  A    between atoms: C5_5  and  N1_6 
REMARK    3  A    between atoms: C6_10  and  N2_11 
REMARK    4  A    between atoms: C7_15  and  O1_16 
REMARK    5  A    between atoms: C8_18  and  O2_19 
REMARK    6  A    between atoms: N3_22  and  C10_23 
REMARK    7  A    between atoms: N3_22  and  C12_29 
REMARK    8  A    between atoms: C10_23  and  C11_24 
REMARK    9  A    between atoms: C11_24  and  N4_25 
REMARK   10  A    between atoms: C12_29  and  C13_30 
REMARK   11  A    between atoms: C13_30  and  C14_31 
REMARK   12  A    between atoms: C14_31  and  N5_32 
ROOT
HETATM    1  C1  UNL     1      30.280  20.439  66.292  1.00  0.00     0.027 C 
HETATM    2  C2  UNL     1      29.414  19.889  65.656  1.00  0.00    -0.026 C 
HETATM    3  C3  UNL     1      28.387  19.259  64.915  1.00  0.00    -0.011 C 
HETATM    4  C4  UNL     1      27.491  18.729  64.262  1.00  0.00    -0.021 C 
ENDROOT
BRANCH   4   5
HETATM    5  C5  UNL     1      26.430  18.117  63.446  1.00  0.00     0.381 C 
HETATM    6  C6  UNL     1      25.231  17.822  64.322  1.00  0.00     0.292 C 
HETATM    7  C7  UNL     1      24.102  17.448  63.365  1.00  0.00     0.184 C 
HETATM    8  C8  UNL     1      24.528  16.256  62.519  1.00  0.00     0.175 C 
HETATM    9  C9  UNL     1      25.954  15.863  62.826  1.00  0.00     0.276 C 
HETATM   10  N3  UNL     1      26.889  16.974  62.686  1.00  0.00    -0.015 N 
BRANCH   5  11
HETATM   11  N1  UNL     1      25.938  19.194  62.562  1.00  0.00    -0.031 N 
ATOM     12  H13 UNL     1      26.638  19.906  62.356  1.00  0.00     0.278 HD
ATOM     13  H12 UNL     1      25.783  18.894  61.599  1.00  0.00     0.278 HD
ATOM     14  H11 UNL     1      25.102  19.561  63.015  1.00  0.00     0.278 HD
ENDBRANCH   5  11
BRANCH   6  15
HETATM   15  N2  UNL     1      24.887  19.060  64.986  1.00  0.00    -0.067 N 
ATOM     16  H23 UNL     1      25.412  19.215  65.847  1.00  0.00     0.275 HD
ATOM     17  H22 UNL     1      25.210  19.889  64.487  1.00  0.00     0.275 HD
ATOM     18  H21 UNL     1      23.877  19.045  65.129  1.00  0.00     0.275 HD
ENDBRANCH   6  15
BRANCH   7  19
HETATM   19  O1  UNL     1      22.892  17.259  64.004  1.00  0.00    -0.391 OA
ATOM     20  H1  UNL     1      22.171  17.126  63.401  1.00  0.00     0.210 HD
ENDBRANCH   7  19
BRANCH   8  21
HETATM   21  O2  UNL     1      23.722  15.184  62.899  1.00  0.00    -0.391 OA
ATOM     22  H2  UNL     1      24.092  14.406  62.497  1.00  0.00     0.210 HD
ENDBRANCH   8  21
BRANCH  10  23
HETATM   23  C10 UNL     1      28.233  16.580  62.890  1.00  0.00     0.269 C 
BRANCH  23  24
HETATM   24  C11 UNL     1      29.299  17.152  62.019  1.00  0.00     0.257 C 
BRANCH  24  25
HETATM   25  N4  UNL     1      30.585  17.335  62.650  1.00  0.00    -0.078 N 
ATOM     26  H43 UNL     1      31.045  18.163  62.272  1.00  0.00     0.274 HD
ATOM     27  H42 UNL     1      30.460  17.624  63.620  1.00  0.00     0.274 HD
ATOM     28  H41 UNL     1      31.215  16.534  62.603  1.00  0.00     0.274 HD
ENDBRANCH  24  25
ENDBRANCH  23  24
ENDBRANCH  10  23
BRANCH  10  29
HETATM   29  C12 UNL     1      26.754  17.389  61.299  1.00  0.00     0.243 C 
BRANCH  29  30
HETATM   30  C13 UNL     1      26.739  16.357  60.250  1.00  0.00     0.055 C 
BRANCH  30  31
HETATM   31  C14 UNL     1      26.847  17.146  58.918  1.00  0.00     0.231 C 
BRANCH  31  32
HETATM   32  N5  UNL     1      27.480  18.403  59.169  1.00  0.00    -0.079 N 
ATOM     33  H53 UNL     1      26.856  19.067  59.628  1.00  0.00     0.274 HD
ATOM     34  H52 UNL     1      28.187  18.342  59.902  1.00  0.00     0.274 HD
ATOM     35  H51 UNL     1      27.857  18.766  58.295  1.00  0.00     0.274 HD
ENDBRANCH  31  32
ENDBRANCH  30  31
ENDBRANCH  29  30
ENDBRANCH  10  29
ENDBRANCH   4   5
TORSDOF 12
ENDMDL
