MODEL 1
REMARK VINA RESULT: -6.771313379      0.000      0.000
REMARK  6 active torsions:
REMARK  status: ('A' for Active; 'I' for Inactive)
REMARK    1  A    between atoms: N3_4  and  C2_6 
REMARK    2  A    between atoms: C2_6  and  C3_7 
REMARK    3  A    between atoms: C3_7  and  C4_8 
REMARK    4  A    between atoms: C4_8  and  C5_9 
REMARK    5  A    between atoms: N7_23  and  C12_24 
REMARK    6  A    between atoms: C12_24  and  O2_25 
ROOT
HETATM    1  C5  UNL     1      27.357  17.003  61.842  1.00  0.00     0.175 C 
HETATM    2  C6  UNL     1      26.690  18.346  62.015  1.00  0.00     0.240 C 
HETATM    3  O1  UNL     1      27.282  19.423  61.735  1.00  0.00    -0.271 OA
HETATM    4  N4  UNL     1      25.361  18.469  62.502  1.00  0.00    -0.355 N 
ATOM      5  H4  UNL     1      24.778  19.217  62.127  1.00  0.00     0.162 HD
HETATM    6  C7  UNL     1      24.786  17.590  63.503  1.00  0.00     0.166 C 
HETATM    7  C8  UNL     1      23.678  16.725  62.935  1.00  0.00     0.075 C 
HETATM    8  N5  UNL     1      24.073  15.375  63.016  1.00  0.00    -0.399 N 
ATOM      9  H5  UNL     1      24.596  15.023  63.818  1.00  0.00     0.158 HD
HETATM   10  C9  UNL     1      23.714  14.522  61.939  1.00  0.00     0.138 C 
HETATM   11  C10 UNL     1      24.200  14.885  60.597  1.00  0.00     0.135 C 
HETATM   12  N6  UNL     1      25.482  14.392  60.228  1.00  0.00    -0.405 N 
ATOM     13  H6  UNL     1      25.605  13.739  59.453  1.00  0.00     0.154 HD
HETATM   14  C11 UNL     1      26.589  14.860  60.998  1.00  0.00     0.238 C 
HETATM   15  N7  UNL     1      26.795  16.250  60.794  1.00  0.00    -0.364 N 
ENDROOT
BRANCH   1  16
HETATM   16  C4  UNL     1      28.818  17.249  61.805  1.00  0.00     0.036 C 
BRANCH  16  17
HETATM   17  C3  UNL     1      29.591  16.834  62.999  1.00  0.00     0.022 C 
BRANCH  17  18
HETATM   18  C2  UNL     1      30.629  17.935  63.268  1.00  0.00     0.122 C 
BRANCH  18  19
HETATM   19  N3  UNL     1      29.991  19.236  63.185  1.00  0.00    -0.367 N 
HETATM   20  C1  UNL     1      29.832  20.008  64.200  1.00  0.00     0.196 C 
HETATM   21  N1  UNL     1      30.285  19.618  65.494  1.00  0.00    -0.067 NA
HETATM   22  N2  UNL     1      29.197  21.252  64.005  1.00  0.00    -0.067 NA
ATOM     23  H3  UNL     1      29.653  19.553  62.277  1.00  0.00     0.161 HD
ENDBRANCH  18  19
ENDBRANCH  17  18
ENDBRANCH  16  17
ENDBRANCH   1  16
BRANCH  15  24
HETATM   24  C12 UNL     1      27.072  16.678  59.474  1.00  0.00     0.287 C 
BRANCH  24  25
HETATM   25  O2  UNL     1      25.857  17.106  58.889  1.00  0.00    -0.382 OA
ATOM     26  H2  UNL     1      26.043  17.860  58.342  1.00  0.00     0.211 HD
ENDBRANCH  24  25
ENDBRANCH  15  24
TORSDOF 6
ENDMDL
MODEL 2
REMARK VINA RESULT: -6.719928153      1.681      2.153
REMARK  6 active torsions:
REMARK  status: ('A' for Active; 'I' for Inactive)
REMARK    1  A    between atoms: N3_4  and  C2_6 
REMARK    2  A    between atoms: C2_6  and  C3_7 
REMARK    3  A    between atoms: C3_7  and  C4_8 
REMARK    4  A    between atoms: C4_8  and  C5_9 
REMARK    5  A    between atoms: N7_23  and  C12_24 
REMARK    6  A    between atoms: C12_24  and  O2_25 
ROOT
HETATM    1  C5  UNL     1      27.376  17.008  61.855  1.00  0.00     0.175 C 
HETATM    2  C6  UNL     1      26.716  18.356  62.019  1.00  0.00     0.240 C 
HETATM    3  O1  UNL     1      27.315  19.428  61.737  1.00  0.00    -0.271 OA
HETATM    4  N4  UNL     1      25.385  18.488  62.499  1.00  0.00    -0.355 N 
ATOM      5  H4  UNL     1      24.808  19.238  62.117  1.00  0.00     0.162 HD
HETATM    6  C7  UNL     1      24.800  17.617  63.501  1.00  0.00     0.166 C 
HETATM    7  C8  UNL     1      23.690  16.755  62.931  1.00  0.00     0.075 C 
HETATM    8  N5  UNL     1      24.077  15.403  63.020  1.00  0.00    -0.399 N 
ATOM      9  H5  UNL     1      24.594  15.052  63.826  1.00  0.00     0.158 HD
HETATM   10  C9  UNL     1      23.719  14.549  61.945  1.00  0.00     0.138 C 
HETATM   11  C10 UNL     1      24.214  14.903  60.603  1.00  0.00     0.135 C 
HETATM   12  N6  UNL     1      25.495  14.401  60.243  1.00  0.00    -0.405 N 
ATOM     13  H6  UNL     1      25.617  13.744  59.472  1.00  0.00     0.154 HD
HETATM   14  C11 UNL     1      26.600  14.866  61.017  1.00  0.00     0.238 C 
HETATM   15  N7  UNL     1      26.815  16.254  60.808  1.00  0.00    -0.364 N 
ENDROOT
BRANCH   1  16
HETATM   16  C4  UNL     1      28.838  17.246  61.824  1.00  0.00     0.036 C 
BRANCH  16  17
HETATM   17  C3  UNL     1      29.647  16.537  62.844  1.00  0.00     0.022 C 
BRANCH  17  18
HETATM   18  C2  UNL     1      30.823  17.458  63.205  1.00  0.00     0.122 C 
BRANCH  18  19
HETATM   19  N3  UNL     1      31.955  17.161  62.347  1.00  0.00    -0.367 N 
HETATM   20  C1  UNL     1      33.166  17.101  62.775  1.00  0.00     0.196 C 
HETATM   21  N1  UNL     1      33.469  17.329  64.149  1.00  0.00    -0.067 NA
HETATM   22  N2  UNL     1      34.190  16.805  61.852  1.00  0.00    -0.067 NA
ATOM     23  H3  UNL     1      31.782  16.990  61.357  1.00  0.00     0.161 HD
ENDBRANCH  18  19
ENDBRANCH  17  18
ENDBRANCH  16  17
ENDBRANCH   1  16
BRANCH  15  24
HETATM   24  C12 UNL     1      27.101  16.674  59.487  1.00  0.00     0.287 C 
BRANCH  24  25
HETATM   25  O2  UNL     1      25.889  17.094  58.890  1.00  0.00    -0.382 OA
ATOM     26  H2  UNL     1      25.969  18.018  58.681  1.00  0.00     0.211 HD
ENDBRANCH  24  25
ENDBRANCH  15  24
TORSDOF 6
ENDMDL
MODEL 3
REMARK VINA RESULT: -6.611715688      2.576      5.589
REMARK  6 active torsions:
REMARK  status: ('A' for Active; 'I' for Inactive)
REMARK    1  A    between atoms: N3_4  and  C2_6 
REMARK    2  A    between atoms: C2_6  and  C3_7 
REMARK    3  A    between atoms: C3_7  and  C4_8 
REMARK    4  A    between atoms: C4_8  and  C5_9 
REMARK    5  A    between atoms: N7_23  and  C12_24 
REMARK    6  A    between atoms: C12_24  and  O2_25 
ROOT
HETATM    1  C5  UNL     1      27.200  19.293  64.418  1.00  0.00     0.175 C 
HETATM    2  C6  UNL     1      26.322  19.714  63.265  1.00  0.00     0.240 C 
HETATM    3  O1  UNL     1      25.576  20.727  63.333  1.00  0.00    -0.271 OA
HETATM    4  N4  UNL     1      26.290  18.992  62.041  1.00  0.00    -0.355 N 
ATOM      5  H4  UNL     1      26.167  19.518  61.175  1.00  0.00     0.162 HD
HETATM    6  C7  UNL     1      26.424  17.551  61.953  1.00  0.00     0.166 C 
HETATM    7  C8  UNL     1      27.715  17.137  61.273  1.00  0.00     0.075 C 
HETATM    8  N5  UNL     1      28.508  16.433  62.199  1.00  0.00    -0.399 N 
ATOM      9  H5  UNL     1      28.092  15.791  62.874  1.00  0.00     0.158 HD
HETATM   10  C9  UNL     1      29.910  16.650  62.159  1.00  0.00     0.138 C 
HETATM   11  C10 UNL     1      30.388  18.030  62.359  1.00  0.00     0.135 C 
HETATM   12  N6  UNL     1      30.619  18.436  63.703  1.00  0.00    -0.405 N 
ATOM     13  H6  UNL     1      31.550  18.690  64.035  1.00  0.00     0.154 HD
HETATM   14  C11 UNL     1      29.480  18.469  64.561  1.00  0.00     0.238 C 
HETATM   15  N7  UNL     1      28.570  19.481  64.154  1.00  0.00    -0.364 N 
ENDROOT
BRANCH   1  16
HETATM   16  C4  UNL     1      26.642  19.925  65.637  1.00  0.00     0.036 C 
BRANCH  16  17
HETATM   17  C3  UNL     1      26.380  19.029  66.788  1.00  0.00     0.022 C 
BRANCH  17  18
HETATM   18  C2  UNL     1      24.855  18.883  66.906  1.00  0.00     0.122 C 
BRANCH  18  19
HETATM   19  N3  UNL     1      24.352  18.110  65.786  1.00  0.00    -0.367 N 
HETATM   20  C1  UNL     1      23.454  18.546  64.976  1.00  0.00     0.196 C 
HETATM   21  N1  UNL     1      22.891  19.845  65.140  1.00  0.00    -0.067 NA
HETATM   22  N2  UNL     1      23.038  17.709  63.920  1.00  0.00    -0.067 NA
ATOM     23  H3  UNL     1      24.730  17.175  65.633  1.00  0.00     0.161 HD
ENDBRANCH  18  19
ENDBRANCH  17  18
ENDBRANCH  16  17
ENDBRANCH   1  16
BRANCH  15  24
HETATM   24  C12 UNL     1      29.045  20.813  64.139  1.00  0.00     0.287 C 
BRANCH  24  25
HETATM   25  O2  UNL     1      29.231  21.196  62.789  1.00  0.00    -0.382 OA
ATOM     26  H2  UNL     1      29.423  22.127  62.772  1.00  0.00     0.211 HD
ENDBRANCH  24  25
ENDBRANCH  15  24
TORSDOF 6
ENDMDL
MODEL 4
REMARK VINA RESULT: -6.577586090      1.782      3.171
REMARK  6 active torsions:
REMARK  status: ('A' for Active; 'I' for Inactive)
REMARK    1  A    between atoms: N3_4  and  C2_6 
REMARK    2  A    between atoms: C2_6  and  C3_7 
REMARK    3  A    between atoms: C3_7  and  C4_8 
REMARK    4  A    between atoms: C4_8  and  C5_9 
REMARK    5  A    between atoms: N7_23  and  C12_24 
REMARK    6  A    between atoms: C12_24  and  O2_25 
ROOT
HETATM    1  C5  UNL     1      25.884  17.349  63.621  1.00  0.00     0.175 C 
HETATM    2  C6  UNL     1      24.379  17.334  63.508  1.00  0.00     0.240 C 
HETATM    3  O1  UNL     1      23.658  18.154  64.136  1.00  0.00    -0.271 OA
HETATM    4  N4  UNL     1      23.695  16.395  62.689  1.00  0.00    -0.355 N 
ATOM      5  H4  UNL     1      22.845  16.700  62.215  1.00  0.00     0.162 HD
HETATM    6  C7  UNL     1      24.138  15.029  62.489  1.00  0.00     0.166 C 
HETATM    7  C8  UNL     1      24.594  14.779  61.064  1.00  0.00     0.075 C 
HETATM    8  N5  UNL     1      25.966  14.461  61.077  1.00  0.00    -0.399 N 
ATOM      9  H5  UNL     1      26.370  13.889  61.819  1.00  0.00     0.158 HD
HETATM   10  C9  UNL     1      26.765  14.965  60.019  1.00  0.00     0.138 C 
HETATM   11  C10 UNL     1      26.810  16.427  59.840  1.00  0.00     0.135 C 
HETATM   12  N6  UNL     1      27.798  17.130  60.582  1.00  0.00    -0.405 N 
ATOM     13  H6  UNL     1      28.552  17.641  60.124  1.00  0.00     0.154 HD
HETATM   14  C11 UNL     1      27.677  17.084  62.004  1.00  0.00     0.238 C 
HETATM   15  N7  UNL     1      26.512  17.774  62.434  1.00  0.00    -0.364 N 
ENDROOT
BRANCH   1  16
HETATM   16  C4  UNL     1      26.216  18.073  64.870  1.00  0.00     0.036 C 
BRANCH  16  17
HETATM   17  C3  UNL     1      27.495  17.711  65.527  1.00  0.00     0.022 C 
BRANCH  17  18
HETATM   18  C2  UNL     1      28.433  18.919  65.382  1.00  0.00     0.122 C 
BRANCH  18  19
HETATM   19  N3  UNL     1      27.648  20.129  65.225  1.00  0.00    -0.367 N 
HETATM   20  C1  UNL     1      28.100  21.195  64.666  1.00  0.00     0.196 C 
HETATM   21  N1  UNL     1      29.430  21.245  64.157  1.00  0.00    -0.067 NA
HETATM   22  N2  UNL     1      27.248  22.314  64.567  1.00  0.00    -0.067 NA
ATOM     23  H3  UNL     1      26.690  20.134  65.575  1.00  0.00     0.161 HD
ENDBRANCH  18  19
ENDBRANCH  17  18
ENDBRANCH  16  17
ENDBRANCH   1  16
BRANCH  15  24
HETATM   24  C12 UNL     1      26.415  19.147  62.111  1.00  0.00     0.287 C 
BRANCH  24  25
HETATM   25  O2  UNL     1      27.727  19.655  61.958  1.00  0.00    -0.382 OA
ATOM     26  H2  UNL     1      27.832  20.384  62.559  1.00  0.00     0.211 HD
ENDBRANCH  24  25
ENDBRANCH  15  24
TORSDOF 6
ENDMDL
MODEL 5
REMARK VINA RESULT: -6.552470113      2.165      5.340
REMARK  6 active torsions:
REMARK  status: ('A' for Active; 'I' for Inactive)
REMARK    1  A    between atoms: N3_4  and  C2_6 
REMARK    2  A    between atoms: C2_6  and  C3_7 
REMARK    3  A    between atoms: C3_7  and  C4_8 
REMARK    4  A    between atoms: C4_8  and  C5_9 
REMARK    5  A    between atoms: N7_23  and  C12_24 
REMARK    6  A    between atoms: C12_24  and  O2_25 
ROOT
HETATM    1  C5  UNL     1      28.067  16.369  62.422  1.00  0.00     0.175 C 
HETATM    2  C6  UNL     1      29.352  16.497  63.204  1.00  0.00     0.240 C 
HETATM    3  O1  UNL     1      30.467  16.188  62.706  1.00  0.00    -0.271 OA
HETATM    4  N4  UNL     1      29.373  16.971  64.544  1.00  0.00    -0.355 N 
ATOM      5  H4  UNL     1      30.170  17.535  64.842  1.00  0.00     0.162 HD
HETATM    6  C7  UNL     1      28.326  16.701  65.510  1.00  0.00     0.166 C 
HETATM    7  C8  UNL     1      27.563  17.956  65.891  1.00  0.00     0.075 C 
HETATM    8  N5  UNL     1      26.224  17.813  65.477  1.00  0.00    -0.399 N 
ATOM      9  H5  UNL     1      25.741  16.917  65.543  1.00  0.00     0.158 HD
HETATM   10  C9  UNL     1      25.571  18.965  64.965  1.00  0.00     0.138 C 
HETATM   11  C10 UNL     1      26.170  19.616  63.787  1.00  0.00     0.135 C 
HETATM   12  N6  UNL     1      25.763  19.130  62.514  1.00  0.00    -0.405 N 
ATOM     13  H6  UNL     1      25.259  19.719  61.850  1.00  0.00     0.154 HD
HETATM   14  C11 UNL     1      26.099  17.776  62.214  1.00  0.00     0.238 C 
HETATM   15  N7  UNL     1      27.505  17.618  62.095  1.00  0.00    -0.364 N 
ENDROOT
BRANCH   1  16
HETATM   16  C4  UNL     1      28.330  15.423  61.312  1.00  0.00     0.036 C 
BRANCH  16  17
HETATM   17  C3  UNL     1      27.711  14.082  61.423  1.00  0.00     0.022 C 
BRANCH  17  18
HETATM   18  C2  UNL     1      26.334  14.164  60.745  1.00  0.00     0.122 C 
BRANCH  18  19
HETATM   19  N3  UNL     1      25.321  13.629  61.635  1.00  0.00    -0.367 N 
HETATM   20  C1  UNL     1      24.167  14.173  61.795  1.00  0.00     0.196 C 
HETATM   21  N1  UNL     1      23.813  15.359  61.088  1.00  0.00    -0.067 NA
HETATM   22  N2  UNL     1      23.257  13.568  62.687  1.00  0.00    -0.067 NA
ATOM     23  H3  UNL     1      25.534  12.781  62.159  1.00  0.00     0.161 HD
ENDBRANCH  18  19
ENDBRANCH  17  18
ENDBRANCH  16  17
ENDBRANCH   1  16
BRANCH  15  24
HETATM   24  C12 UNL     1      28.162  18.378  61.100  1.00  0.00     0.287 C 
BRANCH  24  25
HETATM   25  O2  UNL     1      27.274  18.530  60.008  1.00  0.00    -0.382 OA
ATOM     26  H2  UNL     1      27.790  18.728  59.235  1.00  0.00     0.211 HD
ENDBRANCH  24  25
ENDBRANCH  15  24
TORSDOF 6
ENDMDL
