MODEL 1
REMARK VINA RESULT: -7.350731981      0.000      0.000
REMARK  5 active torsions:
REMARK  status: ('A' for Active; 'I' for Inactive)
REMARK       I    between atoms: C1_4  and  N3_6 
REMARK       I    between atoms: N3_6  and  C2_8 
REMARK       I    between atoms: C2_8  and  N7_22 
REMARK       I    between atoms: N4_9  and  C3_11 
REMARK    1  A    between atoms: C3_11  and  C4_13 
REMARK    2  A    between atoms: C4_13  and  N5_14 
REMARK    3  A    between atoms: N7_22  and  N8_24 
REMARK    4  A    between atoms: C9_26  and  C10_27 
REMARK    5  A    between atoms: C10_27  and  N9_28 
ROOT
HETATM    1  N1  UNL     1      23.910  17.863  66.730  1.00  0.00    -0.373 N 
ATOM      2  H11 UNL     1      23.834  16.850  66.632  1.00  0.00     0.158 HD
ATOM      3  H12 UNL     1      24.155  18.210  67.657  1.00  0.00     0.158 HD
HETATM    4  C1  UNL     1      23.718  18.707  65.783  1.00  0.00     0.200 C 
HETATM    5  N2  UNL     1      23.823  20.114  65.919  1.00  0.00    -0.063 NA
HETATM    6  N3  UNL     1      23.369  18.214  64.464  1.00  0.00    -0.162 N 
ATOM      7  H3  UNL     1      22.417  17.901  64.275  1.00  0.00     0.187 HD
HETATM    8  C2  UNL     1      24.340  18.165  63.443  1.00  0.00     0.702 C 
HETATM    9  N4  UNL     1      25.469  18.709  63.647  1.00  0.00    -0.153 N 
ATOM     10  H4  UNL     1      25.591  19.151  64.558  1.00  0.00     0.187 HD
HETATM   11  C3  UNL     1      26.571  18.781  62.779  1.00  0.00     0.275 C 
HETATM   12  O1  UNL     1      26.626  19.798  62.037  1.00  0.00    -0.266 OA
HETATM   13  N7  UNL     1      24.086  17.546  62.210  1.00  0.00    -0.132 N 
ATOM     14  H7  UNL     1      24.144  18.136  61.380  1.00  0.00     0.205 HD
ENDROOT
BRANCH  13  15
HETATM   15  N8  UNL     1      23.765  16.222  62.006  1.00  0.00    -0.300 N 
HETATM   16  C9  UNL     1      24.228  15.186  62.534  1.00  0.00     0.107 C 
ATOM     17  H8  UNL     1      23.033  16.060  61.315  1.00  0.00     0.186 HD
BRANCH  16  18
HETATM   18  C10 UNL     1      23.672  13.848  62.105  1.00  0.00     0.275 C 
BRANCH  18  19
HETATM   19  N9  UNL     1      24.770  12.903  62.164  1.00  0.00    -0.075 N 
ATOM     20  H93 UNL     1      25.631  13.308  62.532  1.00  0.00     0.274 HD
ATOM     21  H92 UNL     1      24.647  12.187  62.881  1.00  0.00     0.274 HD
ATOM     22  H91 UNL     1      24.875  12.518  61.226  1.00  0.00     0.274 HD
ENDBRANCH  18  19
ENDBRANCH  16  18
ENDBRANCH  13  15
BRANCH  11  23
HETATM   23  C4  UNL     1      27.634  17.759  62.697  1.00  0.00     0.165 C 
BRANCH  23  24
HETATM   24  N5  UNL     1      27.612  17.072  61.476  1.00  0.00    -0.362 N 
HETATM   25  C5  UNL     1      27.346  17.736  60.280  1.00  0.00     0.091 C 
HETATM   26  C6  UNL     1      26.939  16.836  59.133  1.00  0.00     0.277 C 
HETATM   27  N6  UNL     1      26.255  15.698  59.680  1.00  0.00    -0.069 N 
HETATM   28  C7  UNL     1      27.187  14.887  60.441  1.00  0.00     0.252 C 
ATOM     29  H62 UNL     1      25.440  15.968  60.232  1.00  0.00     0.277 HD
ATOM     30  H61 UNL     1      25.772  15.157  58.962  1.00  0.00     0.277 HD
HETATM   31  C8  UNL     1      27.954  15.699  61.449  1.00  0.00     0.155 C 
ENDBRANCH  23  24
ENDBRANCH  11  23
TORSDOF 5
ENDMDL
MODEL 2
REMARK VINA RESULT: -7.085504363      1.072      1.507
REMARK  5 active torsions:
REMARK  status: ('A' for Active; 'I' for Inactive)
REMARK       I    between atoms: C1_4  and  N3_6 
REMARK       I    between atoms: N3_6  and  C2_8 
REMARK       I    between atoms: C2_8  and  N7_22 
REMARK       I    between atoms: N4_9  and  C3_11 
REMARK    1  A    between atoms: C3_11  and  C4_13 
REMARK    2  A    between atoms: C4_13  and  N5_14 
REMARK    3  A    between atoms: N7_22  and  N8_24 
REMARK    4  A    between atoms: C9_26  and  C10_27 
REMARK    5  A    between atoms: C10_27  and  N9_28 
ROOT
HETATM    1  N1  UNL     1      24.216  17.864  67.459  1.00  0.00    -0.373 N 
ATOM      2  H11 UNL     1      24.311  16.851  67.386  1.00  0.00     0.158 HD
ATOM      3  H12 UNL     1      24.493  18.281  68.349  1.00  0.00     0.158 HD
HETATM    4  C1  UNL     1      23.777  18.628  66.527  1.00  0.00     0.200 C 
HETATM    5  N2  UNL     1      23.645  20.036  66.628  1.00  0.00    -0.063 NA
HETATM    6  N3  UNL     1      23.383  18.036  65.263  1.00  0.00    -0.162 N 
ATOM      7  H3  UNL     1      22.487  17.555  65.185  1.00  0.00     0.187 HD
HETATM    8  C2  UNL     1      24.233  18.122  64.141  1.00  0.00     0.702 C 
HETATM    9  N4  UNL     1      25.262  18.862  64.210  1.00  0.00    -0.153 N 
ATOM     10  H4  UNL     1      25.400  19.350  65.095  1.00  0.00     0.187 HD
HETATM   11  C3  UNL     1      26.236  19.095  63.224  1.00  0.00     0.275 C 
HETATM   12  O1  UNL     1      26.030  20.080  62.465  1.00  0.00    -0.266 OA
HETATM   13  N7  UNL     1      23.962  17.425  62.953  1.00  0.00    -0.132 N 
ATOM     14  H7  UNL     1      23.826  17.987  62.113  1.00  0.00     0.205 HD
ENDROOT
BRANCH  13  15
HETATM   15  N8  UNL     1      23.863  16.059  62.807  1.00  0.00    -0.300 N 
HETATM   16  C9  UNL     1      23.926  15.347  61.780  1.00  0.00     0.107 C 
ATOM     17  H8  UNL     1      23.714  15.546  63.676  1.00  0.00     0.186 HD
BRANCH  16  18
HETATM   18  C10 UNL     1      23.780  13.851  61.930  1.00  0.00     0.275 C 
BRANCH  18  19
HETATM   19  N9  UNL     1      22.989  13.627  63.124  1.00  0.00    -0.075 N 
ATOM     20  H93 UNL     1      22.016  13.918  63.023  1.00  0.00     0.274 HD
ATOM     21  H92 UNL     1      22.808  12.640  63.309  1.00  0.00     0.274 HD
ATOM     22  H91 UNL     1      23.472  14.098  63.889  1.00  0.00     0.274 HD
ENDBRANCH  18  19
ENDBRANCH  16  18
ENDBRANCH  13  15
BRANCH  11  23
HETATM   23  C4  UNL     1      27.449  18.272  63.040  1.00  0.00     0.165 C 
BRANCH  23  24
HETATM   24  N5  UNL     1      27.190  17.109  62.303  1.00  0.00    -0.362 N 
HETATM   25  C5  UNL     1      27.305  15.848  62.884  1.00  0.00     0.091 C 
HETATM   26  C6  UNL     1      27.415  14.704  61.898  1.00  0.00     0.277 C 
HETATM   27  N6  UNL     1      28.073  15.195  60.719  1.00  0.00    -0.069 N 
HETATM   28  C7  UNL     1      27.216  16.151  60.044  1.00  0.00     0.252 C 
ATOM     29  H62 UNL     1      28.994  15.583  60.926  1.00  0.00     0.277 HD
ATOM     30  H61 UNL     1      28.368  14.439  60.101  1.00  0.00     0.277 HD
HETATM   31  C8  UNL     1      26.719  17.224  60.973  1.00  0.00     0.155 C 
ENDBRANCH  23  24
ENDBRANCH  11  23
TORSDOF 5
ENDMDL
MODEL 3
REMARK VINA RESULT: -7.080697773      1.914      4.438
REMARK  5 active torsions:
REMARK  status: ('A' for Active; 'I' for Inactive)
REMARK       I    between atoms: C1_4  and  N3_6 
REMARK       I    between atoms: N3_6  and  C2_8 
REMARK       I    between atoms: C2_8  and  N7_22 
REMARK       I    between atoms: N4_9  and  C3_11 
REMARK    1  A    between atoms: C3_11  and  C4_13 
REMARK    2  A    between atoms: C4_13  and  N5_14 
REMARK    3  A    between atoms: N7_22  and  N8_24 
REMARK    4  A    between atoms: C9_26  and  C10_27 
REMARK    5  A    between atoms: C10_27  and  N9_28 
ROOT
HETATM    1  N1  UNL     1      29.781  16.412  63.478  1.00  0.00    -0.373 N 
ATOM      2  H11 UNL     1      28.986  16.081  64.026  1.00  0.00     0.158 HD
ATOM      3  H12 UNL     1      30.600  15.804  63.457  1.00  0.00     0.158 HD
HETATM    4  C1  UNL     1      29.815  17.520  62.832  1.00  0.00     0.200 C 
HETATM    5  N2  UNL     1      30.919  17.980  62.071  1.00  0.00    -0.063 NA
HETATM    6  N3  UNL     1      28.651  18.385  62.862  1.00  0.00    -0.162 N 
ATOM      7  H3  UNL     1      28.466  18.959  63.684  1.00  0.00     0.187 HD
HETATM    8  C2  UNL     1      27.774  18.436  61.758  1.00  0.00     0.702 C 
HETATM    9  N4  UNL     1      28.107  17.844  60.686  1.00  0.00    -0.153 N 
ATOM     10  H4  UNL     1      29.007  17.364  60.704  1.00  0.00     0.187 HD
HETATM   11  C3  UNL     1      27.396  17.766  59.476  1.00  0.00     0.275 C 
HETATM   12  O1  UNL     1      27.648  18.663  58.627  1.00  0.00    -0.266 OA
HETATM   13  N7  UNL     1      26.557  19.131  61.813  1.00  0.00    -0.132 N 
ATOM     14  H7  UNL     1      26.436  19.897  61.151  1.00  0.00     0.205 HD
ENDROOT
BRANCH  13  15
HETATM   15  N8  UNL     1      25.507  18.884  62.671  1.00  0.00    -0.300 N 
HETATM   16  C9  UNL     1      25.485  18.296  63.775  1.00  0.00     0.107 C 
ATOM     17  H8  UNL     1      24.604  19.237  62.354  1.00  0.00     0.186 HD
BRANCH  16  18
HETATM   18  C10 UNL     1      24.165  18.175  64.500  1.00  0.00     0.275 C 
BRANCH  18  19
HETATM   19  N9  UNL     1      23.272  17.445  63.622  1.00  0.00    -0.075 N 
ATOM     20  H93 UNL     1      22.361  17.255  64.040  1.00  0.00     0.274 HD
ATOM     21  H92 UNL     1      22.937  18.001  62.834  1.00  0.00     0.274 HD
ATOM     22  H91 UNL     1      23.767  16.601  63.336  1.00  0.00     0.274 HD
ENDBRANCH  18  19
ENDBRANCH  16  18
ENDBRANCH  13  15
BRANCH  11  23
HETATM   23  C4  UNL     1      26.403  16.720  59.160  1.00  0.00     0.165 C 
BRANCH  23  24
HETATM   24  N5  UNL     1      26.320  15.749  60.167  1.00  0.00    -0.362 N 
HETATM   25  C5  UNL     1      25.241  15.716  61.048  1.00  0.00     0.091 C 
HETATM   26  C6  UNL     1      25.480  14.917  62.312  1.00  0.00     0.277 C 
HETATM   27  N6  UNL     1      26.877  14.998  62.633  1.00  0.00    -0.069 N 
HETATM   28  C7  UNL     1      27.650  14.293  61.628  1.00  0.00     0.252 C 
ATOM     29  H62 UNL     1      27.189  15.962  62.752  1.00  0.00     0.277 HD
ATOM     30  H61 UNL     1      27.075  14.662  63.576  1.00  0.00     0.277 HD
HETATM   31  C8  UNL     1      27.304  14.734  60.232  1.00  0.00     0.155 C 
ENDBRANCH  23  24
ENDBRANCH  11  23
TORSDOF 5
ENDMDL
MODEL 4
REMARK VINA RESULT: -7.000921731      2.975      5.981
REMARK  5 active torsions:
REMARK  status: ('A' for Active; 'I' for Inactive)
REMARK       I    between atoms: C1_4  and  N3_6 
REMARK       I    between atoms: N3_6  and  C2_8 
REMARK       I    between atoms: C2_8  and  N7_22 
REMARK       I    between atoms: N4_9  and  C3_11 
REMARK    1  A    between atoms: C3_11  and  C4_13 
REMARK    2  A    between atoms: C4_13  and  N5_14 
REMARK    3  A    between atoms: N7_22  and  N8_24 
REMARK    4  A    between atoms: C9_26  and  C10_27 
REMARK    5  A    between atoms: C10_27  and  N9_28 
ROOT
HETATM    1  N1  UNL     1      31.278  17.030  64.444  1.00  0.00    -0.373 N 
ATOM      2  H11 UNL     1      30.963  17.517  65.283  1.00  0.00     0.158 HD
ATOM      3  H12 UNL     1      31.668  16.097  64.582  1.00  0.00     0.158 HD
HETATM    4  C1  UNL     1      31.217  17.506  63.254  1.00  0.00     0.200 C 
HETATM    5  N2  UNL     1      31.654  16.829  62.088  1.00  0.00    -0.063 NA
HETATM    6  N3  UNL     1      30.662  18.831  63.057  1.00  0.00    -0.162 N 
ATOM      7  H3  UNL     1      31.224  19.654  63.275  1.00  0.00     0.187 HD
HETATM    8  C2  UNL     1      29.350  18.987  62.564  1.00  0.00     0.702 C 
HETATM    9  N4  UNL     1      28.729  17.962  62.145  1.00  0.00    -0.153 N 
ATOM     10  H4  UNL     1      29.240  17.081  62.197  1.00  0.00     0.187 HD
HETATM   11  C3  UNL     1      27.430  17.886  61.616  1.00  0.00     0.275 C 
HETATM   12  O1  UNL     1      27.332  18.005  60.366  1.00  0.00    -0.266 OA
HETATM   13  N7  UNL     1      28.723  20.242  62.515  1.00  0.00    -0.132 N 
ATOM     14  H7  UNL     1      28.441  20.577  61.594  1.00  0.00     0.205 HD
ENDROOT
BRANCH  13  15
HETATM   15  N8  UNL     1      28.449  21.065  63.585  1.00  0.00    -0.300 N 
HETATM   16  C9  UNL     1      27.737  20.871  64.595  1.00  0.00     0.107 C 
ATOM     17  H8  UNL     1      28.900  21.980  63.547  1.00  0.00     0.186 HD
BRANCH  16  18
HETATM   18  C10 UNL     1      27.623  21.976  65.620  1.00  0.00     0.275 C 
BRANCH  18  19
HETATM   19  N9  UNL     1      26.950  23.082  64.966  1.00  0.00    -0.075 N 
ATOM     20  H93 UNL     1      27.552  23.597  64.323  1.00  0.00     0.274 HD
ATOM     21  H92 UNL     1      26.256  22.783  64.281  1.00  0.00     0.274 HD
ATOM     22  H91 UNL     1      26.559  23.665  65.706  1.00  0.00     0.274 HD
ENDBRANCH  18  19
ENDBRANCH  16  18
ENDBRANCH  13  15
BRANCH  11  23
HETATM   23  C4  UNL     1      26.212  17.679  62.427  1.00  0.00     0.165 C 
BRANCH  23  24
HETATM   24  N5  UNL     1      25.662  16.405  62.238  1.00  0.00    -0.362 N 
HETATM   25  C5  UNL     1      26.437  15.256  62.388  1.00  0.00     0.091 C 
HETATM   26  C6  UNL     1      25.852  14.011  61.756  1.00  0.00     0.277 C 
HETATM   27  N6  UNL     1      25.083  14.412  60.611  1.00  0.00    -0.069 N 
HETATM   28  C7  UNL     1      23.917  15.159  61.043  1.00  0.00     0.252 C 
ATOM     29  H62 UNL     1      25.644  14.931  59.934  1.00  0.00     0.277 HD
ATOM     30  H61 UNL     1      24.834  13.619  60.019  1.00  0.00     0.277 HD
HETATM   31  C8  UNL     1      24.277  16.281  61.978  1.00  0.00     0.155 C 
ENDBRANCH  23  24
ENDBRANCH  11  23
TORSDOF 5
ENDMDL
MODEL 5
REMARK VINA RESULT: -7.000636012      2.253      3.891
REMARK  5 active torsions:
REMARK  status: ('A' for Active; 'I' for Inactive)
REMARK       I    between atoms: C1_4  and  N3_6 
REMARK       I    between atoms: N3_6  and  C2_8 
REMARK       I    between atoms: C2_8  and  N7_22 
REMARK       I    between atoms: N4_9  and  C3_11 
REMARK    1  A    between atoms: C3_11  and  C4_13 
REMARK    2  A    between atoms: C4_13  and  N5_14 
REMARK    3  A    between atoms: N7_22  and  N8_24 
REMARK    4  A    between atoms: C9_26  and  C10_27 
REMARK    5  A    between atoms: C10_27  and  N9_28 
ROOT
HETATM    1  N1  UNL     1      26.589  21.670  65.014  1.00  0.00    -0.373 N 
ATOM      2  H11 UNL     1      27.027  21.329  65.870  1.00  0.00     0.158 HD
ATOM      3  H12 UNL     1      27.140  22.320  64.453  1.00  0.00     0.158 HD
HETATM    4  C1  UNL     1      25.416  21.342  64.611  1.00  0.00     0.200 C 
HETATM    5  N2  UNL     1      24.807  21.816  63.421  1.00  0.00    -0.063 NA
HETATM    6  N3  UNL     1      24.633  20.418  65.408  1.00  0.00    -0.162 N 
ATOM      7  H3  UNL     1      24.166  20.747  66.254  1.00  0.00     0.187 HD
HETATM    8  C2  UNL     1      24.513  19.067  65.020  1.00  0.00     0.702 C 
HETATM    9  N4  UNL     1      24.960  18.717  63.885  1.00  0.00    -0.153 N 
ATOM     10  H4  UNL     1      25.383  19.458  63.325  1.00  0.00     0.187 HD
HETATM   11  C3  UNL     1      24.947  17.440  63.299  1.00  0.00     0.275 C 
HETATM   12  O1  UNL     1      23.947  17.170  62.581  1.00  0.00    -0.266 OA
HETATM   13  N7  UNL     1      23.904  18.112  65.847  1.00  0.00    -0.132 N 
ATOM     14  H7  UNL     1      23.078  17.643  65.475  1.00  0.00     0.205 HD
ENDROOT
BRANCH  13  15
HETATM   15  N8  UNL     1      24.309  17.741  67.110  1.00  0.00    -0.300 N 
HETATM   16  C9  UNL     1      23.699  17.781  68.202  1.00  0.00     0.107 C 
ATOM     17  H8  UNL     1      25.261  17.375  67.165  1.00  0.00     0.186 HD
BRANCH  16  18
HETATM   18  C10 UNL     1      24.410  17.299  69.444  1.00  0.00     0.275 C 
BRANCH  18  19
HETATM   19  N9  UNL     1      24.247  15.859  69.485  1.00  0.00    -0.075 N 
ATOM     20  H93 UNL     1      23.447  15.560  70.044  1.00  0.00     0.274 HD
ATOM     21  H92 UNL     1      23.938  15.463  68.597  1.00  0.00     0.274 HD
ATOM     22  H91 UNL     1      25.132  15.473  69.812  1.00  0.00     0.274 HD
ENDBRANCH  18  19
ENDBRANCH  16  18
ENDBRANCH  13  15
BRANCH  11  23
HETATM   23  C4  UNL     1      26.011  16.430  63.478  1.00  0.00     0.165 C 
BRANCH  23  24
HETATM   24  N5  UNL     1      26.489  15.946  62.254  1.00  0.00    -0.362 N 
HETATM   25  C5  UNL     1      26.965  16.813  61.272  1.00  0.00     0.091 C 
HETATM   26  C6  UNL     1      27.045  16.215  59.884  1.00  0.00     0.277 C 
HETATM   27  N6  UNL     1      26.006  15.231  59.761  1.00  0.00    -0.069 N 
HETATM   28  C7  UNL     1      26.291  14.110  60.637  1.00  0.00     0.252 C 
ATOM     29  H62 UNL     1      25.081  15.627  59.931  1.00  0.00     0.277 HD
ATOM     30  H61 UNL     1      25.866  14.938  58.795  1.00  0.00     0.277 HD
HETATM   31  C8  UNL     1      26.572  14.548  62.048  1.00  0.00     0.155 C 
ENDBRANCH  23  24
ENDBRANCH  11  23
TORSDOF 5
ENDMDL
