MODEL 1
REMARK VINA RESULT: -6.625251505      0.000      0.000
REMARK  9 active torsions:
REMARK  status: ('A' for Active; 'I' for Inactive)
REMARK    1  A    between atoms: N1_1  and  C1_4 
REMARK    2  A    between atoms: C4_11  and  C5_12 
REMARK    3  A    between atoms: C5_12  and  O1_13 
REMARK    4  A    between atoms: N4_17  and  C8_18 
REMARK    5  A    between atoms: C8_18  and  C9_19 
REMARK    6  A    between atoms: C9_19  and  C10_20 
REMARK       I    between atoms: C10_20  and  N5_22 
REMARK    7  A    between atoms: N5_22  and  C11_24 
REMARK    8  A    between atoms: C11_24  and  C12_25 
REMARK    9  A    between atoms: C12_25  and  N6_26 
ROOT
HETATM    1  C5  UNL     1      27.162  16.254  62.300  1.00  0.00     0.176 C 
HETATM    2  C6  UNL     1      28.464  15.517  62.026  1.00  0.00     0.079 C 
HETATM    3  C7  UNL     1      29.412  16.696  62.183  1.00  0.00     0.114 C 
HETATM    4  N4  UNL     1      28.777  17.537  63.128  1.00  0.00    -0.231 NA
HETATM    5  N7  UNL     1      27.534  17.031  63.442  1.00  0.00    -0.121 NA
ENDROOT
BRANCH   1   6
HETATM    6  C4  UNL     1      25.971  15.470  62.340  1.00  0.00     0.053 A 
HETATM    7  C1  UNL     1      24.686  15.963  62.568  1.00  0.00     0.111 A 
HETATM    8  N2  UNL     1      23.614  15.162  62.590  1.00  0.00    -0.338 N 
HETATM    9  C2  UNL     1      23.732  13.852  62.395  1.00  0.00     0.181 A 
ATOM     10  H2  UNL     1      22.691  15.563  62.760  1.00  0.00     0.168 HD
HETATM   11  N3  UNL     1      24.925  13.325  62.174  1.00  0.00    -0.361 N 
HETATM   12  C3  UNL     1      26.018  14.098  62.144  1.00  0.00     0.104 A 
ATOM     13  H3  UNL     1      25.013  12.320  62.025  1.00  0.00     0.166 HD
BRANCH   7  14
HETATM   14  N1  UNL     1      24.533  17.202  62.757  1.00  0.00    -0.385 N 
ATOM     15  H12 UNL     1      24.034  17.515  63.590  1.00  0.00     0.157 HD
ATOM     16  H11 UNL     1      24.911  17.861  62.076  1.00  0.00     0.157 HD
ENDBRANCH   7  14
ENDBRANCH   1   6
BRANCH   1  17
HETATM   17  O1  UNL     1      27.074  17.197  61.244  1.00  0.00    -0.368 OA
ATOM     18  H1  UNL     1      27.591  17.965  61.460  1.00  0.00     0.212 HD
ENDBRANCH   1  17
BRANCH   4  19
HETATM   19  C8  UNL     1      29.560  18.025  64.207  1.00  0.00     0.119 C 
BRANCH  19  20
HETATM   20  C9  UNL     1      29.886  19.497  64.075  1.00  0.00     0.118 C 
BRANCH  20  21
HETATM   21  C10 UNL     1      28.673  20.315  63.879  1.00  0.00     0.218 C 
HETATM   22  O2  UNL     1      28.705  21.263  63.071  1.00  0.00    -0.274 OA
HETATM   23  N5  UNL     1      27.504  20.027  64.593  1.00  0.00    -0.359 N 
ATOM     24  H5  UNL     1      27.512  19.246  65.248  1.00  0.00     0.162 HD
BRANCH  23  25
HETATM   25  C11 UNL     1      26.298  20.783  64.442  1.00  0.00     0.150 C 
BRANCH  25  26
HETATM   26  C12 UNL     1      26.170  21.882  65.445  1.00  0.00     0.249 C 
BRANCH  26  27
HETATM   27  N6  UNL     1      26.785  23.082  64.859  1.00  0.00    -0.078 N 
ATOM     28  H63 UNL     1      27.701  22.900  64.447  1.00  0.00     0.274 HD
ATOM     29  H62 UNL     1      26.318  23.394  64.007  1.00  0.00     0.274 HD
ATOM     30  H61 UNL     1      26.810  23.797  65.587  1.00  0.00     0.274 HD
ENDBRANCH  26  27
ENDBRANCH  25  26
ENDBRANCH  23  25
ENDBRANCH  20  21
ENDBRANCH  19  20
ENDBRANCH   4  19
TORSDOF 9
ENDMDL
MODEL 2
REMARK VINA RESULT: -6.508613957      1.245      1.827
REMARK  9 active torsions:
REMARK  status: ('A' for Active; 'I' for Inactive)
REMARK    1  A    between atoms: N1_1  and  C1_4 
REMARK    2  A    between atoms: C4_11  and  C5_12 
REMARK    3  A    between atoms: C5_12  and  O1_13 
REMARK    4  A    between atoms: N4_17  and  C8_18 
REMARK    5  A    between atoms: C8_18  and  C9_19 
REMARK    6  A    between atoms: C9_19  and  C10_20 
REMARK       I    between atoms: C10_20  and  N5_22 
REMARK    7  A    between atoms: N5_22  and  C11_24 
REMARK    8  A    between atoms: C11_24  and  C12_25 
REMARK    9  A    between atoms: C12_25  and  N6_26 
ROOT
HETATM    1  C5  UNL     1      26.395  16.884  61.686  1.00  0.00     0.176 C 
HETATM    2  C6  UNL     1      26.897  17.070  60.262  1.00  0.00     0.079 C 
HETATM    3  C7  UNL     1      27.763  18.297  60.502  1.00  0.00     0.114 C 
HETATM    4  N4  UNL     1      28.208  18.161  61.838  1.00  0.00    -0.231 NA
HETATM    5  N7  UNL     1      27.610  17.064  62.420  1.00  0.00    -0.121 NA
ENDROOT
BRANCH   1   6
HETATM    6  C4  UNL     1      25.581  15.741  61.941  1.00  0.00     0.053 A 
HETATM    7  C1  UNL     1      25.990  14.413  61.816  1.00  0.00     0.111 A 
HETATM    8  N2  UNL     1      25.165  13.391  62.074  1.00  0.00    -0.338 N 
HETATM    9  C2  UNL     1      23.910  13.602  62.462  1.00  0.00     0.181 A 
ATOM     10  H2  UNL     1      25.503  12.434  61.971  1.00  0.00     0.168 HD
HETATM   11  N3  UNL     1      23.464  14.840  62.598  1.00  0.00    -0.361 N 
HETATM   12  C3  UNL     1      24.264  15.886  62.349  1.00  0.00     0.104 A 
ATOM     13  H3  UNL     1      22.502  15.000  62.895  1.00  0.00     0.166 HD
BRANCH   7  14
HETATM   14  N1  UNL     1      27.174  14.171  61.450  1.00  0.00    -0.385 N 
ATOM     15  H12 UNL     1      27.585  13.266  61.679  1.00  0.00     0.157 HD
ATOM     16  H11 UNL     1      27.691  14.884  60.934  1.00  0.00     0.157 HD
ENDBRANCH   7  14
ENDBRANCH   1   6
BRANCH   1  17
HETATM   17  O1  UNL     1      25.649  18.064  61.942  1.00  0.00    -0.368 OA
ATOM     18  H1  UNL     1      25.877  18.728  61.302  1.00  0.00     0.212 HD
ENDBRANCH   1  17
BRANCH   4  19
HETATM   19  C8  UNL     1      29.591  18.345  62.095  1.00  0.00     0.119 C 
BRANCH  19  20
HETATM   20  C9  UNL     1      29.852  19.300  63.240  1.00  0.00     0.118 C 
BRANCH  20  21
HETATM   21  C10 UNL     1      28.742  20.256  63.424  1.00  0.00     0.218 C 
HETATM   22  O2  UNL     1      28.856  21.412  62.975  1.00  0.00    -0.274 OA
HETATM   23  N5  UNL     1      27.578  19.865  64.096  1.00  0.00    -0.359 N 
ATOM     24  H5  UNL     1      27.518  18.912  64.455  1.00  0.00     0.162 HD
BRANCH  23  25
HETATM   25  C11 UNL     1      26.470  20.746  64.302  1.00  0.00     0.150 C 
BRANCH  25  26
HETATM   26  C12 UNL     1      26.667  21.670  65.460  1.00  0.00     0.249 C 
BRANCH  26  27
HETATM   27  N6  UNL     1      26.897  23.014  64.911  1.00  0.00    -0.078 N 
ATOM     28  H63 UNL     1      27.761  23.083  64.373  1.00  0.00     0.274 HD
ATOM     29  H62 UNL     1      26.253  23.253  64.157  1.00  0.00     0.274 HD
ATOM     30  H61 UNL     1      26.859  23.670  65.692  1.00  0.00     0.274 HD
ENDBRANCH  26  27
ENDBRANCH  25  26
ENDBRANCH  23  25
ENDBRANCH  20  21
ENDBRANCH  19  20
ENDBRANCH   4  19
TORSDOF 9
ENDMDL
MODEL 3
REMARK VINA RESULT: -6.431641195      1.412      1.823
REMARK  9 active torsions:
REMARK  status: ('A' for Active; 'I' for Inactive)
REMARK    1  A    between atoms: N1_1  and  C1_4 
REMARK    2  A    between atoms: C4_11  and  C5_12 
REMARK    3  A    between atoms: C5_12  and  O1_13 
REMARK    4  A    between atoms: N4_17  and  C8_18 
REMARK    5  A    between atoms: C8_18  and  C9_19 
REMARK    6  A    between atoms: C9_19  and  C10_20 
REMARK       I    between atoms: C10_20  and  N5_22 
REMARK    7  A    between atoms: N5_22  and  C11_24 
REMARK    8  A    between atoms: C11_24  and  C12_25 
REMARK    9  A    between atoms: C12_25  and  N6_26 
ROOT
HETATM    1  C5  UNL     1      27.477  15.906  62.398  1.00  0.00     0.176 C 
HETATM    2  C6  UNL     1      27.540  16.338  63.855  1.00  0.00     0.079 C 
HETATM    3  C7  UNL     1      28.987  16.806  63.875  1.00  0.00     0.114 C 
HETATM    4  N4  UNL     1      29.229  17.265  62.558  1.00  0.00    -0.231 NA
HETATM    5  N7  UNL     1      28.130  17.011  61.766  1.00  0.00    -0.121 NA
ENDROOT
BRANCH   1   6
HETATM    6  C4  UNL     1      26.214  15.461  61.909  1.00  0.00     0.053 A 
HETATM    7  C1  UNL     1      25.997  14.830  60.683  1.00  0.00     0.111 A 
HETATM    8  N2  UNL     1      24.778  14.441  60.293  1.00  0.00    -0.338 N 
HETATM    9  C2  UNL     1      23.713  14.642  61.065  1.00  0.00     0.181 A 
ATOM     10  H2  UNL     1      24.662  13.983  59.388  1.00  0.00     0.168 HD
HETATM   11  N3  UNL     1      23.855  15.235  62.238  1.00  0.00    -0.361 N 
HETATM   12  C3  UNL     1      25.061  15.636  62.660  1.00  0.00     0.104 A 
ATOM     13  H3  UNL     1      23.037  15.387  62.828  1.00  0.00     0.166 HD
BRANCH   7  14
HETATM   14  N1  UNL     1      26.983  14.622  59.922  1.00  0.00    -0.385 N 
ATOM     15  H12 UNL     1      26.882  14.805  58.924  1.00  0.00     0.157 HD
ATOM     16  H11 UNL     1      27.857  14.277  60.322  1.00  0.00     0.157 HD
ENDBRANCH   7  14
ENDBRANCH   1   6
BRANCH   1  17
HETATM   17  O1  UNL     1      28.417  14.846  62.315  1.00  0.00    -0.368 OA
ATOM     18  H1  UNL     1      29.035  15.024  61.615  1.00  0.00     0.212 HD
ENDBRANCH   1  17
BRANCH   4  19
HETATM   19  C8  UNL     1      29.848  18.532  62.405  1.00  0.00     0.119 C 
BRANCH  19  20
HETATM   20  C9  UNL     1      29.765  19.379  63.657  1.00  0.00     0.118 C 
BRANCH  20  21
HETATM   21  C10 UNL     1      28.599  20.284  63.635  1.00  0.00     0.218 C 
HETATM   22  O2  UNL     1      28.641  21.310  62.928  1.00  0.00    -0.274 OA
HETATM   23  N5  UNL     1      27.463  19.992  64.398  1.00  0.00    -0.359 N 
ATOM     24  H5  UNL     1      27.462  19.146  64.968  1.00  0.00     0.162 HD
BRANCH  23  25
HETATM   25  C11 UNL     1      26.303  20.830  64.413  1.00  0.00     0.150 C 
BRANCH  25  26
HETATM   26  C12 UNL     1      26.342  21.859  65.495  1.00  0.00     0.249 C 
BRANCH  26  27
HETATM   27  N6  UNL     1      26.874  23.095  64.904  1.00  0.00    -0.078 N 
ATOM     28  H63 UNL     1      27.763  22.956  64.424  1.00  0.00     0.274 HD
ATOM     29  H62 UNL     1      26.337  23.414  64.097  1.00  0.00     0.274 HD
ATOM     30  H61 UNL     1      26.927  23.790  65.649  1.00  0.00     0.274 HD
ENDBRANCH  26  27
ENDBRANCH  25  26
ENDBRANCH  23  25
ENDBRANCH  20  21
ENDBRANCH  19  20
ENDBRANCH   4  19
TORSDOF 9
ENDMDL
MODEL 4
REMARK VINA RESULT: -6.248601286      2.303      6.313
REMARK  9 active torsions:
REMARK  status: ('A' for Active; 'I' for Inactive)
REMARK    1  A    between atoms: N1_1  and  C1_4 
REMARK    2  A    between atoms: C4_11  and  C5_12 
REMARK    3  A    between atoms: C5_12  and  O1_13 
REMARK    4  A    between atoms: N4_17  and  C8_18 
REMARK    5  A    between atoms: C8_18  and  C9_19 
REMARK    6  A    between atoms: C9_19  and  C10_20 
REMARK       I    between atoms: C10_20  and  N5_22 
REMARK    7  A    between atoms: N5_22  and  C11_24 
REMARK    8  A    between atoms: C11_24  and  C12_25 
REMARK    9  A    between atoms: C12_25  and  N6_26 
ROOT
HETATM    1  C5  UNL     1      26.317  19.044  63.661  1.00  0.00     0.176 C 
HETATM    2  C6  UNL     1      25.037  18.517  64.291  1.00  0.00     0.079 C 
HETATM    3  C7  UNL     1      24.761  17.395  63.302  1.00  0.00     0.114 C 
HETATM    4  N4  UNL     1      26.043  16.988  62.860  1.00  0.00    -0.231 NA
HETATM    5  N7  UNL     1      27.005  17.818  63.394  1.00  0.00    -0.121 NA
ENDROOT
BRANCH   1   6
HETATM    6  C4  UNL     1      26.992  20.095  64.349  1.00  0.00     0.053 A 
HETATM    7  C1  UNL     1      28.199  20.674  63.956  1.00  0.00     0.111 A 
HETATM    8  N2  UNL     1      28.772  21.660  64.657  1.00  0.00    -0.338 N 
HETATM    9  C2  UNL     1      28.210  22.130  65.766  1.00  0.00     0.181 A 
ATOM     10  H2  UNL     1      29.656  22.057  64.335  1.00  0.00     0.168 HD
HETATM   11  N3  UNL     1      27.065  21.621  66.190  1.00  0.00    -0.361 N 
HETATM   12  C3  UNL     1      26.464  20.634  65.512  1.00  0.00     0.104 A 
ATOM     13  H3  UNL     1      26.636  21.983  67.041  1.00  0.00     0.166 HD
BRANCH   7  14
HETATM   14  N1  UNL     1      28.764  20.255  62.907  1.00  0.00    -0.385 N 
ATOM     15  H12 UNL     1      28.208  19.752  62.216  1.00  0.00     0.157 HD
ATOM     16  H11 UNL     1      29.761  20.428  62.775  1.00  0.00     0.157 HD
ENDBRANCH   7  14
ENDBRANCH   1   6
BRANCH   1  17
HETATM   17  O1  UNL     1      25.905  19.503  62.382  1.00  0.00    -0.368 OA
ATOM     18  H1  UNL     1      26.023  18.809  61.743  1.00  0.00     0.212 HD
ENDBRANCH   1  17
BRANCH   4  19
HETATM   19  C8  UNL     1      26.329  15.598  62.855  1.00  0.00     0.119 C 
BRANCH  19  20
HETATM   20  C9  UNL     1      25.688  14.874  61.691  1.00  0.00     0.118 C 
BRANCH  20  21
HETATM   21  C10 UNL     1      26.279  15.274  60.399  1.00  0.00     0.218 C 
HETATM   22  O2  UNL     1      26.994  14.462  59.782  1.00  0.00    -0.274 OA
HETATM   23  N5  UNL     1      26.039  16.550  59.877  1.00  0.00    -0.359 N 
ATOM     24  H5  UNL     1      25.452  17.193  60.409  1.00  0.00     0.162 HD
BRANCH  23  25
HETATM   25  C11 UNL     1      26.583  16.992  58.630  1.00  0.00     0.150 C 
BRANCH  25  26
HETATM   26  C12 UNL     1      27.485  18.174  58.774  1.00  0.00     0.249 C 
BRANCH  26  27
HETATM   27  N6  UNL     1      27.509  18.535  60.198  1.00  0.00    -0.078 N 
ATOM     28  H63 UNL     1      26.685  18.213  60.705  1.00  0.00     0.274 HD
ATOM     29  H62 UNL     1      28.204  18.012  60.731  1.00  0.00     0.274 HD
ATOM     30  H61 UNL     1      27.641  19.545  60.253  1.00  0.00     0.274 HD
ENDBRANCH  26  27
ENDBRANCH  25  26
ENDBRANCH  23  25
ENDBRANCH  20  21
ENDBRANCH  19  20
ENDBRANCH   4  19
TORSDOF 9
ENDMDL
MODEL 5
REMARK VINA RESULT: -6.217834982      2.247      2.625
REMARK  9 active torsions:
REMARK  status: ('A' for Active; 'I' for Inactive)
REMARK    1  A    between atoms: N1_1  and  C1_4 
REMARK    2  A    between atoms: C4_11  and  C5_12 
REMARK    3  A    between atoms: C5_12  and  O1_13 
REMARK    4  A    between atoms: N4_17  and  C8_18 
REMARK    5  A    between atoms: C8_18  and  C9_19 
REMARK    6  A    between atoms: C9_19  and  C10_20 
REMARK       I    between atoms: C10_20  and  N5_22 
REMARK    7  A    between atoms: N5_22  and  C11_24 
REMARK    8  A    between atoms: C11_24  and  C12_25 
REMARK    9  A    between atoms: C12_25  and  N6_26 
ROOT
HETATM    1  C5  UNL     1      29.362  17.644  62.271  1.00  0.00     0.176 C 
HETATM    2  C6  UNL     1      30.502  16.709  62.642  1.00  0.00     0.079 C 
HETATM    3  C7  UNL     1      31.375  17.719  63.371  1.00  0.00     0.114 C 
HETATM    4  N4  UNL     1      30.459  18.644  63.926  1.00  0.00    -0.231 NA
HETATM    5  N7  UNL     1      29.181  18.343  63.506  1.00  0.00    -0.121 NA
ENDROOT
BRANCH   1   6
HETATM    6  C4  UNL     1      28.234  17.063  61.619  1.00  0.00     0.053 A 
HETATM    7  C1  UNL     1      27.147  17.768  61.101  1.00  0.00     0.111 A 
HETATM    8  N2  UNL     1      26.123  17.150  60.502  1.00  0.00    -0.338 N 
HETATM    9  C2  UNL     1      26.099  15.826  60.375  1.00  0.00     0.181 A 
ATOM     10  H2  UNL     1      25.347  17.703  60.136  1.00  0.00     0.168 HD
HETATM   11  N3  UNL     1      27.101  15.103  60.846  1.00  0.00    -0.361 N 
HETATM   12  C3  UNL     1      28.142  15.690  61.451  1.00  0.00     0.104 A 
ATOM     13  H3  UNL     1      27.081  14.088  60.748  1.00  0.00     0.166 HD
BRANCH   7  14
HETATM   14  N1  UNL     1      27.133  19.027  61.202  1.00  0.00    -0.385 N 
ATOM     15  H12 UNL     1      27.863  19.567  60.738  1.00  0.00     0.157 HD
ATOM     16  H11 UNL     1      26.392  19.475  61.743  1.00  0.00     0.157 HD
ENDBRANCH   7  14
ENDBRANCH   1   6
BRANCH   1  17
HETATM   17  O1  UNL     1      29.967  18.598  61.411  1.00  0.00    -0.368 OA
ATOM     18  H1  UNL     1      30.840  18.801  61.727  1.00  0.00     0.212 HD
ENDBRANCH   1  17
BRANCH   4  19
HETATM   19  C8  UNL     1      30.617  18.991  65.293  1.00  0.00     0.119 C 
BRANCH  19  20
HETATM   20  C9  UNL     1      30.858  20.471  65.496  1.00  0.00     0.118 C 
BRANCH  20  21
HETATM   21  C10 UNL     1      29.600  21.209  65.725  1.00  0.00     0.218 C 
HETATM   22  O2  UNL     1      29.630  22.452  65.796  1.00  0.00    -0.274 OA
HETATM   23  N5  UNL     1      28.391  20.517  65.861  1.00  0.00    -0.359 N 
ATOM     24  H5  UNL     1      28.401  19.499  65.801  1.00  0.00     0.162 HD
BRANCH  23  25
HETATM   25  C11 UNL     1      27.141  21.177  66.081  1.00  0.00     0.150 C 
BRANCH  25  26
HETATM   26  C12 UNL     1      26.530  21.701  64.822  1.00  0.00     0.249 C 
BRANCH  26  27
HETATM   27  N6  UNL     1      26.761  23.152  64.795  1.00  0.00    -0.078 N 
ATOM     28  H63 UNL     1      27.201  23.502  65.646  1.00  0.00     0.274 HD
ATOM     29  H62 UNL     1      27.496  23.427  64.143  1.00  0.00     0.274 HD
ATOM     30  H61 UNL     1      25.865  23.599  64.597  1.00  0.00     0.274 HD
ENDBRANCH  26  27
ENDBRANCH  25  26
ENDBRANCH  23  25
ENDBRANCH  20  21
ENDBRANCH  19  20
ENDBRANCH   4  19
TORSDOF 9
ENDMDL
