MODEL 1
REMARK VINA RESULT: -7.863422038      0.000      0.000
REMARK  8 active torsions:
REMARK  status: ('A' for Active; 'I' for Inactive)
REMARK    1  A    between atoms: N1_1  and  N2_4 
REMARK       I    between atoms: N2_4  and  C1_6 
REMARK       I    between atoms: C1_6  and  N3_8 
REMARK    2  A    between atoms: N3_8  and  C2_10 
REMARK    3  A    between atoms: C2_10  and  C3_11 
REMARK       I    between atoms: C3_11  and  N4_13 
REMARK    4  A    between atoms: N4_13  and  C4_15 
REMARK    5  A    between atoms: C4_15  and  C5_16 
REMARK       I    between atoms: C5_16  and  N5_18 
REMARK    6  A    between atoms: N5_18  and  C6_20 
REMARK    7  A    between atoms: C8_27  and  N8_28 
REMARK    8  A    between atoms: N8_28  and  C9_30 
ROOT
HETATM    1  C5  UNL     1      26.736  16.558  59.634  1.00  0.00     0.253 C 
HETATM    2  O3  UNL     1      27.178  15.396  59.490  1.00  0.00    -0.271 OA
HETATM    3  N5  UNL     1      25.297  16.646  59.700  1.00  0.00    -0.158 N 
ATOM      4  H5  UNL     1      24.776  16.984  58.890  1.00  0.00     0.187 HD
ENDROOT
BRANCH   1   5
HETATM    5  C4  UNL     1      27.567  17.781  59.734  1.00  0.00     0.226 C 
BRANCH   5   6
HETATM    6  N4  UNL     1      28.259  17.875  60.989  1.00  0.00    -0.351 N 
HETATM    7  C3  UNL     1      27.652  18.544  62.078  1.00  0.00     0.235 C 
HETATM    8  O2  UNL     1      26.473  19.030  61.882  1.00  0.00    -0.272 OA
ATOM      9  H4  UNL     1      29.185  17.459  61.095  1.00  0.00     0.163 HD
BRANCH   7  10
HETATM   10  C2  UNL     1      28.241  18.736  63.414  1.00  0.00     0.227 C 
BRANCH  10  11
HETATM   11  N3  UNL     1      27.474  19.526  64.325  1.00  0.00    -0.333 N 
HETATM   12  C1  UNL     1      27.570  20.933  64.292  1.00  0.00     0.334 C 
HETATM   13  N2  UNL     1      26.821  21.706  65.201  1.00  0.00    -0.258 N 
HETATM   14  O1  UNL     1      28.315  21.490  63.464  1.00  0.00    -0.246 OA
ATOM     15  H2  UNL     1      26.209  21.258  65.883  1.00  0.00     0.191 HD
ATOM     16  H3  UNL     1      26.857  19.073  64.998  1.00  0.00     0.164 HD
BRANCH  13  17
HETATM   17  N1  UNL     1      26.932  23.099  65.152  1.00  0.00    -0.341 N 
ATOM     18  H12 UNL     1      27.669  23.527  64.591  1.00  0.00     0.177 HD
ATOM     19  H11 UNL     1      26.268  23.664  65.682  1.00  0.00     0.177 HD
ENDBRANCH  13  17
ENDBRANCH  10  11
ENDBRANCH   7  10
ENDBRANCH   5   6
ENDBRANCH   1   5
BRANCH   3  20
HETATM   20  C6  UNL     1      24.669  16.307  60.753  1.00  0.00     0.703 A 
HETATM   21  N6  UNL     1      24.389  14.998  60.921  1.00  0.00    -0.140 N 
HETATM   22  C7  UNL     1      23.730  14.621  62.022  1.00  0.00     0.352 A 
ATOM     23  H6  UNL     1      24.673  14.311  60.223  1.00  0.00     0.189 HD
HETATM   24  O4  UNL     1      23.448  13.412  62.221  1.00  0.00    -0.246 OA
HETATM   25  N7  UNL     1      23.349  15.517  62.949  1.00  0.00    -0.140 N 
HETATM   26  C8  UNL     1      23.621  16.825  62.795  1.00  0.00     0.703 A 
ATOM     27  H7  UNL     1      22.847  15.200  63.779  1.00  0.00     0.189 HD
HETATM   28  N9  UNL     1      24.281  17.208  61.694  1.00  0.00    -0.021 N 
ATOM     29  H9  UNL     1      24.498  18.196  61.559  1.00  0.00     0.203 HD
BRANCH  26  30
HETATM   30  N8  UNL     1      23.266  17.712  63.674  1.00  0.00    -0.167 N 
ATOM     31  H8  UNL     1      22.288  17.999  63.725  1.00  0.00     0.186 HD
BRANCH  30  32
HETATM   32  C9  UNL     1      24.200  18.290  64.561  1.00  0.00     0.368 C 
HETATM   33  O5  UNL     1      24.432  19.515  64.494  1.00  0.00    -0.283 OA
ENDBRANCH  30  32
ENDBRANCH  26  30
ENDBRANCH   3  20
TORSDOF 8
ENDMDL
MODEL 2
REMARK VINA RESULT: -7.465495722      2.232      4.776
REMARK  8 active torsions:
REMARK  status: ('A' for Active; 'I' for Inactive)
REMARK    1  A    between atoms: N1_1  and  N2_4 
REMARK       I    between atoms: N2_4  and  C1_6 
REMARK       I    between atoms: C1_6  and  N3_8 
REMARK    2  A    between atoms: N3_8  and  C2_10 
REMARK    3  A    between atoms: C2_10  and  C3_11 
REMARK       I    between atoms: C3_11  and  N4_13 
REMARK    4  A    between atoms: N4_13  and  C4_15 
REMARK    5  A    between atoms: C4_15  and  C5_16 
REMARK       I    between atoms: C5_16  and  N5_18 
REMARK    6  A    between atoms: N5_18  and  C6_20 
REMARK    7  A    between atoms: C8_27  and  N8_28 
REMARK    8  A    between atoms: N8_28  and  C9_30 
ROOT
HETATM    1  C5  UNL     1      29.869  18.376  62.484  1.00  0.00     0.253 C 
HETATM    2  O3  UNL     1      30.913  18.054  61.874  1.00  0.00    -0.271 OA
HETATM    3  N5  UNL     1      28.745  18.671  61.627  1.00  0.00    -0.158 N 
ATOM      4  H5  UNL     1      28.470  19.641  61.475  1.00  0.00     0.187 HD
ENDROOT
BRANCH   1   5
HETATM    5  C4  UNL     1      29.733  18.466  63.957  1.00  0.00     0.226 C 
BRANCH   5   6
HETATM    6  N4  UNL     1      28.433  18.924  64.362  1.00  0.00    -0.351 N 
HETATM    7  C3  UNL     1      27.470  17.992  64.817  1.00  0.00     0.235 C 
HETATM    8  O2  UNL     1      27.829  16.753  64.861  1.00  0.00    -0.272 OA
ATOM      9  H4  UNL     1      28.205  19.917  64.322  1.00  0.00     0.163 HD
BRANCH   7  10
HETATM   10  C2  UNL     1      26.097  18.305  65.248  1.00  0.00     0.227 C 
BRANCH  10  11
HETATM   11  N3  UNL     1      25.058  17.578  64.591  1.00  0.00    -0.333 N 
HETATM   12  C1  UNL     1      24.878  17.706  63.199  1.00  0.00     0.334 C 
HETATM   13  N2  UNL     1      23.843  16.997  62.559  1.00  0.00    -0.258 N 
HETATM   14  O1  UNL     1      25.630  18.446  62.536  1.00  0.00    -0.246 OA
ATOM     15  H2  UNL     1      23.222  16.390  63.094  1.00  0.00     0.191 HD
ATOM     16  H3  UNL     1      24.445  16.966  65.130  1.00  0.00     0.164 HD
BRANCH  13  17
HETATM   17  N1  UNL     1      23.682  17.140  61.177  1.00  0.00    -0.341 N 
ATOM     18  H12 UNL     1      24.443  17.526  60.618  1.00  0.00     0.177 HD
ATOM     19  H11 UNL     1      22.800  16.852  60.753  1.00  0.00     0.177 HD
ENDBRANCH  13  17
ENDBRANCH  10  11
ENDBRANCH   7  10
ENDBRANCH   5   6
ENDBRANCH   1   5
BRANCH   3  20
HETATM   20  C6  UNL     1      28.093  17.737  61.061  1.00  0.00     0.703 A 
HETATM   21  N6  UNL     1      27.521  18.007  59.869  1.00  0.00    -0.140 N 
HETATM   22  C7  UNL     1      26.832  17.039  59.256  1.00  0.00     0.352 A 
ATOM     23  H6  UNL     1      27.613  18.930  59.444  1.00  0.00     0.189 HD
HETATM   24  O4  UNL     1      26.282  17.245  58.143  1.00  0.00    -0.246 OA
HETATM   25  N7  UNL     1      26.702  15.819  59.805  1.00  0.00    -0.140 N 
HETATM   26  C8  UNL     1      27.266  15.535  60.993  1.00  0.00     0.703 A 
ATOM     27  H7  UNL     1      26.169  15.100  59.315  1.00  0.00     0.189 HD
HETATM   28  N9  UNL     1      27.959  16.501  61.610  1.00  0.00    -0.021 N 
ATOM     29  H9  UNL     1      28.394  16.306  62.512  1.00  0.00     0.203 HD
BRANCH  26  30
HETATM   30  N8  UNL     1      27.158  14.366  61.546  1.00  0.00    -0.167 N 
ATOM     31  H8  UNL     1      27.974  13.754  61.581  1.00  0.00     0.186 HD
BRANCH  30  32
HETATM   32  C9  UNL     1      25.939  13.921  62.102  1.00  0.00     0.368 C 
HETATM   33  O5  UNL     1      24.862  14.342  61.634  1.00  0.00    -0.283 OA
ENDBRANCH  30  32
ENDBRANCH  26  30
ENDBRANCH   3  20
TORSDOF 8
ENDMDL
MODEL 3
REMARK VINA RESULT: -7.268851695      2.105      5.050
REMARK  8 active torsions:
REMARK  status: ('A' for Active; 'I' for Inactive)
REMARK    1  A    between atoms: N1_1  and  N2_4 
REMARK       I    between atoms: N2_4  and  C1_6 
REMARK       I    between atoms: C1_6  and  N3_8 
REMARK    2  A    between atoms: N3_8  and  C2_10 
REMARK    3  A    between atoms: C2_10  and  C3_11 
REMARK       I    between atoms: C3_11  and  N4_13 
REMARK    4  A    between atoms: N4_13  and  C4_15 
REMARK    5  A    between atoms: C4_15  and  C5_16 
REMARK       I    between atoms: C5_16  and  N5_18 
REMARK    6  A    between atoms: N5_18  and  C6_20 
REMARK    7  A    between atoms: C8_27  and  N8_28 
REMARK    8  A    between atoms: N8_28  and  C9_30 
ROOT
HETATM    1  C5  UNL     1      23.932  19.325  65.460  1.00  0.00     0.253 C 
HETATM    2  O3  UNL     1      23.207  20.144  64.852  1.00  0.00    -0.271 OA
HETATM    3  N5  UNL     1      24.001  18.020  64.847  1.00  0.00    -0.158 N 
ATOM      4  H5  UNL     1      23.480  17.244  65.257  1.00  0.00     0.187 HD
ENDROOT
BRANCH   1   5
HETATM    5  C4  UNL     1      24.682  19.608  66.706  1.00  0.00     0.226 C 
BRANCH   5   6
HETATM    6  N4  UNL     1      26.020  20.064  66.452  1.00  0.00    -0.351 N 
HETATM    7  C3  UNL     1      26.293  21.452  66.404  1.00  0.00     0.235 C 
HETATM    8  O2  UNL     1      25.302  22.250  66.614  1.00  0.00    -0.272 OA
ATOM      9  H4  UNL     1      26.771  19.389  66.307  1.00  0.00     0.163 HD
BRANCH   7  10
HETATM   10  C2  UNL     1      27.603  22.069  66.138  1.00  0.00     0.227 C 
BRANCH  10  11
HETATM   11  N3  UNL     1      28.039  22.043  64.777  1.00  0.00    -0.333 N 
HETATM   12  C1  UNL     1      28.749  20.930  64.284  1.00  0.00     0.334 C 
HETATM   13  N2  UNL     1      29.187  20.916  62.946  1.00  0.00    -0.258 N 
HETATM   14  O1  UNL     1      28.990  19.961  65.030  1.00  0.00    -0.246 OA
ATOM     15  H2  UNL     1      28.995  21.705  62.328  1.00  0.00     0.191 HD
ATOM     16  H3  UNL     1      27.836  22.831  64.162  1.00  0.00     0.164 HD
BRANCH  13  17
HETATM   17  N1  UNL     1      29.891  19.802  62.477  1.00  0.00    -0.341 N 
ATOM     18  H12 UNL     1      30.790  19.561  62.896  1.00  0.00     0.177 HD
ATOM     19  H11 UNL     1      29.488  19.248  61.721  1.00  0.00     0.177 HD
ENDBRANCH  13  17
ENDBRANCH  10  11
ENDBRANCH   7  10
ENDBRANCH   5   6
ENDBRANCH   1   5
BRANCH   3  20
HETATM   20  C6  UNL     1      24.703  17.824  63.804  1.00  0.00     0.703 A 
HETATM   21  N6  UNL     1      25.477  18.840  63.370  1.00  0.00    -0.140 N 
HETATM   22  C7  UNL     1      26.223  18.654  62.276  1.00  0.00     0.352 A 
ATOM     23  H6  UNL     1      25.493  19.731  63.866  1.00  0.00     0.189 HD
HETATM   24  O4  UNL     1      26.960  19.572  61.835  1.00  0.00    -0.246 OA
HETATM   25  N7  UNL     1      26.209  17.485  61.612  1.00  0.00    -0.140 N 
HETATM   26  C8  UNL     1      25.442  16.463  62.032  1.00  0.00     0.703 A 
ATOM     27  H7  UNL     1      26.788  17.372  60.780  1.00  0.00     0.189 HD
HETATM   28  N9  UNL     1      24.694  16.644  63.129  1.00  0.00    -0.021 N 
ATOM     29  H9  UNL     1      24.105  15.881  63.464  1.00  0.00     0.203 HD
BRANCH  26  30
HETATM   30  N8  UNL     1      25.410  15.323  61.412  1.00  0.00    -0.167 N 
ATOM     31  H8  UNL     1      24.799  15.214  60.602  1.00  0.00     0.186 HD
BRANCH  30  32
HETATM   32  C9  UNL     1      26.200  14.230  61.830  1.00  0.00     0.368 C 
HETATM   33  O5  UNL     1      27.045  14.396  62.733  1.00  0.00    -0.283 OA
ENDBRANCH  30  32
ENDBRANCH  26  30
ENDBRANCH   3  20
TORSDOF 8
ENDMDL
MODEL 4
REMARK VINA RESULT: -7.229084056      2.128      3.722
REMARK  8 active torsions:
REMARK  status: ('A' for Active; 'I' for Inactive)
REMARK    1  A    between atoms: N1_1  and  N2_4 
REMARK       I    between atoms: N2_4  and  C1_6 
REMARK       I    between atoms: C1_6  and  N3_8 
REMARK    2  A    between atoms: N3_8  and  C2_10 
REMARK    3  A    between atoms: C2_10  and  C3_11 
REMARK       I    between atoms: C3_11  and  N4_13 
REMARK    4  A    between atoms: N4_13  and  C4_15 
REMARK    5  A    between atoms: C4_15  and  C5_16 
REMARK       I    between atoms: C5_16  and  N5_18 
REMARK    6  A    between atoms: N5_18  and  C6_20 
REMARK    7  A    between atoms: C8_27  and  N8_28 
REMARK    8  A    between atoms: N8_28  and  C9_30 
ROOT
HETATM    1  C5  UNL     1      24.835  14.859  61.755  1.00  0.00     0.253 C 
HETATM    2  O3  UNL     1      23.866  14.432  62.421  1.00  0.00    -0.271 OA
HETATM    3  N5  UNL     1      24.744  16.255  61.398  1.00  0.00    -0.158 N 
ATOM      4  H5  UNL     1      24.496  16.514  60.443  1.00  0.00     0.187 HD
ENDROOT
BRANCH   1   5
HETATM    5  C4  UNL     1      26.006  14.053  61.337  1.00  0.00     0.226 C 
BRANCH   5   6
HETATM    6  N4  UNL     1      27.183  14.353  62.105  1.00  0.00    -0.351 N 
HETATM    7  C3  UNL     1      28.055  15.384  61.680  1.00  0.00     0.235 C 
HETATM    8  O2  UNL     1      27.726  16.024  60.610  1.00  0.00    -0.272 OA
ATOM      9  H4  UNL     1      27.388  13.826  62.953  1.00  0.00     0.163 HD
BRANCH   7  10
HETATM   10  C2  UNL     1      29.301  15.794  62.349  1.00  0.00     0.227 C 
BRANCH  10  11
HETATM   11  N3  UNL     1      29.221  16.982  63.140  1.00  0.00    -0.333 N 
HETATM   12  C1  UNL     1      29.577  18.227  62.582  1.00  0.00     0.334 C 
HETATM   13  N2  UNL     1      29.509  19.392  63.371  1.00  0.00    -0.258 N 
HETATM   14  O1  UNL     1      29.952  18.297  61.396  1.00  0.00    -0.246 OA
ATOM     15  H2  UNL     1      29.203  19.343  64.343  1.00  0.00     0.191 HD
ATOM     16  H3  UNL     1      28.907  16.929  64.108  1.00  0.00     0.164 HD
BRANCH  13  17
HETATM   17  N1  UNL     1      29.867  20.616  62.797  1.00  0.00    -0.341 N 
ATOM     18  H12 UNL     1      29.626  20.807  61.824  1.00  0.00     0.177 HD
ATOM     19  H11 UNL     1      30.365  21.299  63.369  1.00  0.00     0.177 HD
ENDBRANCH  13  17
ENDBRANCH  10  11
ENDBRANCH   7  10
ENDBRANCH   5   6
ENDBRANCH   1   5
BRANCH   3  20
HETATM   20  C6  UNL     1      24.969  17.165  62.257  1.00  0.00     0.703 A 
HETATM   21  N6  UNL     1      25.771  18.187  61.892  1.00  0.00    -0.140 N 
HETATM   22  C7  UNL     1      26.020  19.155  62.780  1.00  0.00     0.352 A 
ATOM     23  H6  UNL     1      26.180  18.219  60.958  1.00  0.00     0.189 HD
HETATM   24  O4  UNL     1      26.762  20.126  62.484  1.00  0.00    -0.246 OA
HETATM   25  N7  UNL     1      25.488  19.123  64.015  1.00  0.00    -0.140 N 
HETATM   26  C8  UNL     1      24.686  18.111  64.394  1.00  0.00     0.703 A 
ATOM     27  H7  UNL     1      25.696  19.875  64.672  1.00  0.00     0.189 HD
HETATM   28  N9  UNL     1      24.434  17.139  63.507  1.00  0.00    -0.021 N 
ATOM     29  H9  UNL     1      23.829  16.363  63.774  1.00  0.00     0.203 HD
BRANCH  26  30
HETATM   30  N8  UNL     1      24.159  18.055  65.578  1.00  0.00    -0.167 N 
ATOM     31  H8  UNL     1      24.222  17.186  66.110  1.00  0.00     0.186 HD
BRANCH  30  32
HETATM   32  C9  UNL     1      23.502  19.166  66.149  1.00  0.00     0.368 C 
HETATM   33  O5  UNL     1      22.793  19.896  65.427  1.00  0.00    -0.283 OA
ENDBRANCH  30  32
ENDBRANCH  26  30
ENDBRANCH   3  20
TORSDOF 8
ENDMDL
MODEL 5
REMARK VINA RESULT: -7.208847000      2.380      5.135
REMARK  8 active torsions:
REMARK  status: ('A' for Active; 'I' for Inactive)
REMARK    1  A    between atoms: N1_1  and  N2_4 
REMARK       I    between atoms: N2_4  and  C1_6 
REMARK       I    between atoms: C1_6  and  N3_8 
REMARK    2  A    between atoms: N3_8  and  C2_10 
REMARK    3  A    between atoms: C2_10  and  C3_11 
REMARK       I    between atoms: C3_11  and  N4_13 
REMARK    4  A    between atoms: N4_13  and  C4_15 
REMARK    5  A    between atoms: C4_15  and  C5_16 
REMARK       I    between atoms: C5_16  and  N5_18 
REMARK    6  A    between atoms: N5_18  and  C6_20 
REMARK    7  A    between atoms: C8_27  and  N8_28 
REMARK    8  A    between atoms: N8_28  and  C9_30 
ROOT
HETATM    1  C5  UNL     1      28.528  17.620  63.213  1.00  0.00     0.253 C 
HETATM    2  O3  UNL     1      29.004  18.599  63.830  1.00  0.00    -0.271 OA
HETATM    3  N5  UNL     1      27.565  16.852  63.965  1.00  0.00    -0.158 N 
ATOM      4  H5  UNL     1      27.838  15.952  64.362  1.00  0.00     0.187 HD
ENDROOT
BRANCH   1   5
HETATM    5  C4  UNL     1      28.881  17.228  61.828  1.00  0.00     0.226 C 
BRANCH   5   6
HETATM    6  N4  UNL     1      28.371  15.933  61.475  1.00  0.00    -0.351 N 
HETATM    7  C3  UNL     1      27.502  15.799  60.366  1.00  0.00     0.235 C 
HETATM    8  O2  UNL     1      27.224  16.872  59.707  1.00  0.00    -0.272 OA
ATOM      9  H4  UNL     1      28.634  15.113  62.022  1.00  0.00     0.163 HD
BRANCH   7  10
HETATM   10  C2  UNL     1      26.887  14.546  59.894  1.00  0.00     0.227 C 
BRANCH  10  11
HETATM   11  N3  UNL     1      25.482  14.419  60.120  1.00  0.00    -0.333 N 
HETATM   12  C1  UNL     1      24.993  14.215  61.427  1.00  0.00     0.334 C 
HETATM   13  N2  UNL     1      23.608  14.077  61.641  1.00  0.00    -0.258 N 
HETATM   14  O1  UNL     1      25.783  14.156  62.388  1.00  0.00    -0.246 OA
ATOM     15  H2  UNL     1      22.955  14.123  60.860  1.00  0.00     0.191 HD
ATOM     16  H3  UNL     1      24.833  14.474  59.336  1.00  0.00     0.164 HD
BRANCH  13  17
HETATM   17  N1  UNL     1      23.145  13.875  62.946  1.00  0.00    -0.341 N 
ATOM     18  H12 UNL     1      23.619  14.332  63.725  1.00  0.00     0.177 HD
ATOM     19  H11 UNL     1      22.336  13.271  63.092  1.00  0.00     0.177 HD
ENDBRANCH  13  17
ENDBRANCH  10  11
ENDBRANCH   7  10
ENDBRANCH   5   6
ENDBRANCH   1   5
BRANCH   3  20
HETATM   20  C6  UNL     1      26.380  17.281  64.141  1.00  0.00     0.703 A 
HETATM   21  N6  UNL     1      25.452  16.954  63.218  1.00  0.00    -0.140 N 
HETATM   22  C7  UNL     1      24.201  17.395  63.384  1.00  0.00     0.352 A 
ATOM     23  H6  UNL     1      25.700  16.383  62.410  1.00  0.00     0.189 HD
HETATM   24  O4  UNL     1      23.303  17.115  62.549  1.00  0.00    -0.246 OA
HETATM   25  N7  UNL     1      23.861  18.149  64.444  1.00  0.00    -0.140 N 
HETATM   26  C8  UNL     1      24.775  18.483  65.373  1.00  0.00     0.703 A 
ATOM     27  H7  UNL     1      22.899  18.472  64.545  1.00  0.00     0.189 HD
HETATM   28  N9  UNL     1      26.030  18.044  65.211  1.00  0.00    -0.021 N 
ATOM     29  H9  UNL     1      26.738  18.286  65.904  1.00  0.00     0.203 HD
BRANCH  26  30
HETATM   30  N8  UNL     1      24.476  19.210  66.406  1.00  0.00    -0.167 N 
ATOM     31  H8  UNL     1      25.023  20.049  66.600  1.00  0.00     0.186 HD
BRANCH  30  32
HETATM   32  C9  UNL     1      23.412  18.866  67.269  1.00  0.00     0.368 C 
HETATM   33  O5  UNL     1      22.277  19.339  67.060  1.00  0.00    -0.283 OA
ENDBRANCH  30  32
ENDBRANCH  26  30
ENDBRANCH   3  20
TORSDOF 8
ENDMDL
