MODEL 1
REMARK VINA RESULT: -7.447090572      0.000      0.000
REMARK  6 active torsions:
REMARK  status: ('A' for Active; 'I' for Inactive)
REMARK    1  A    between atoms: N3_4  and  C2_6 
REMARK    2  A    between atoms: C2_6  and  C3_7 
REMARK    3  A    between atoms: C3_7  and  C4_8 
REMARK    4  A    between atoms: C4_8  and  C5_9 
REMARK    5  A    between atoms: C7_14  and  C8_15 
REMARK    6  A    between atoms: C8_15  and  N5_16 
ROOT
HETATM    1  C5  UNL     1      28.760  17.974  62.803  1.00  0.00     0.176 C 
HETATM    2  N4  UNL     1      28.092  19.198  62.363  1.00  0.00    -0.346 N 
ATOM      3  H4  UNL     1      28.450  19.621  61.507  1.00  0.00     0.163 HD
HETATM    4  C6  UNL     1      27.027  19.855  62.974  1.00  0.00     0.242 C 
HETATM    5  O1  UNL     1      25.981  20.067  62.246  1.00  0.00    -0.271 OA
HETATM    6  C7  UNL     1      26.928  20.351  64.367  1.00  0.00     0.194 C 
HETATM    7  N8  UNL     1      28.140  20.823  64.950  1.00  0.00    -0.345 N 
ATOM      8  H8  UNL     1      28.055  21.681  65.496  1.00  0.00     0.163 HD
HETATM    9  C10 UNL     1      29.427  20.282  64.885  1.00  0.00     0.236 C 
HETATM   10  O2  UNL     1      30.384  20.997  64.407  1.00  0.00    -0.272 OA
HETATM   11  C11 UNL     1      29.865  18.924  65.313  1.00  0.00     0.225 C 
HETATM   12  N9  UNL     1      30.736  18.419  64.279  1.00  0.00    -0.351 N 
ATOM     13  H9  UNL     1      31.711  18.203  64.489  1.00  0.00     0.163 HD
HETATM   14  C12 UNL     1      30.231  18.225  62.978  1.00  0.00     0.240 C 
HETATM   15  O3  UNL     1      30.986  18.256  61.961  1.00  0.00    -0.271 OA
ENDROOT
BRANCH   1  16
HETATM   16  C4  UNL     1      28.596  16.924  61.726  1.00  0.00     0.036 C 
BRANCH  16  17
HETATM   17  C3  UNL     1      27.800  17.358  60.547  1.00  0.00     0.022 C 
BRANCH  17  18
HETATM   18  C2  UNL     1      26.570  16.527  60.419  1.00  0.00     0.122 C 
BRANCH  18  19
HETATM   19  N3  UNL     1      25.399  17.192  61.009  1.00  0.00    -0.367 N 
HETATM   20  C1  UNL     1      24.868  16.626  62.035  1.00  0.00     0.196 C 
HETATM   21  N1  UNL     1      23.723  17.224  62.658  1.00  0.00    -0.067 NA
HETATM   22  N2  UNL     1      25.373  15.417  62.584  1.00  0.00    -0.067 NA
ATOM     23  H3  UNL     1      25.026  18.060  60.623  1.00  0.00     0.161 HD
ENDBRANCH  18  19
ENDBRANCH  17  18
ENDBRANCH  16  17
ENDBRANCH   1  16
BRANCH   6  24
HETATM   24  C8  UNL     1      26.222  19.346  65.279  1.00  0.00     0.156 C 
BRANCH  24  25
HETATM   25  N5  UNL     1      24.850  19.127  64.815  1.00  0.00    -0.364 N 
HETATM   26  C9  UNL     1      23.920  19.793  65.411  1.00  0.00     0.197 C 
HETATM   27  N6  UNL     1      22.538  19.648  65.027  1.00  0.00    -0.067 NA
HETATM   28  N7  UNL     1      24.174  20.698  66.466  1.00  0.00    -0.067 NA
ATOM     29  H5  UNL     1      24.640  18.478  64.057  1.00  0.00     0.161 HD
ENDBRANCH  24  25
ENDBRANCH   6  24
TORSDOF 6
ENDMDL
MODEL 2
REMARK VINA RESULT: -7.006845473      2.419      4.916
REMARK  6 active torsions:
REMARK  status: ('A' for Active; 'I' for Inactive)
REMARK    1  A    between atoms: N3_4  and  C2_6 
REMARK    2  A    between atoms: C2_6  and  C3_7 
REMARK    3  A    between atoms: C3_7  and  C4_8 
REMARK    4  A    between atoms: C4_8  and  C5_9 
REMARK    5  A    between atoms: C7_14  and  C8_15 
REMARK    6  A    between atoms: C8_15  and  N5_16 
ROOT
HETATM    1  C5  UNL     1      27.739  16.332  61.845  1.00  0.00     0.176 C 
HETATM    2  N4  UNL     1      27.463  16.153  63.269  1.00  0.00    -0.346 N 
ATOM      3  H4  UNL     1      27.736  15.256  63.670  1.00  0.00     0.163 HD
HETATM    4  C6  UNL     1      26.871  17.061  64.143  1.00  0.00     0.242 C 
HETATM    5  O1  UNL     1      27.539  17.362  65.208  1.00  0.00    -0.271 OA
HETATM    6  C7  UNL     1      25.560  17.741  64.017  1.00  0.00     0.194 C 
HETATM    7  N8  UNL     1      24.527  16.994  63.380  1.00  0.00    -0.345 N 
ATOM      8  H8  UNL     1      23.608  17.060  63.818  1.00  0.00     0.163 HD
HETATM    9  C10 UNL     1      24.589  16.183  62.242  1.00  0.00     0.236 C 
HETATM   10  O2  UNL     1      24.248  14.946  62.334  1.00  0.00    -0.272 OA
HETATM   11  C11 UNL     1      25.017  16.575  60.869  1.00  0.00     0.225 C 
HETATM   12  N9  UNL     1      25.873  15.522  60.381  1.00  0.00    -0.351 N 
ATOM     13  H9  UNL     1      25.607  14.985  59.555  1.00  0.00     0.163 HD
HETATM   14  C12 UNL     1      27.080  15.238  61.052  1.00  0.00     0.240 C 
HETATM   15  O3  UNL     1      27.617  14.092  60.999  1.00  0.00    -0.271 OA
ENDROOT
BRANCH   1  16
HETATM   16  C4  UNL     1      29.233  16.221  61.629  1.00  0.00     0.036 C 
BRANCH  16  17
HETATM   17  C3  UNL     1      30.064  16.612  62.798  1.00  0.00     0.022 C 
BRANCH  17  18
HETATM   18  C2  UNL     1      30.860  17.832  62.482  1.00  0.00     0.122 C 
BRANCH  18  19
HETATM   19  N3  UNL     1      29.998  18.974  62.148  1.00  0.00    -0.367 N 
HETATM   20  C1  UNL     1      29.724  19.791  63.104  1.00  0.00     0.196 C 
HETATM   21  N1  UNL     1      28.887  20.926  62.844  1.00  0.00    -0.067 NA
HETATM   22  N2  UNL     1      30.220  19.613  64.423  1.00  0.00    -0.067 NA
ATOM     23  H3  UNL     1      29.634  19.112  61.205  1.00  0.00     0.161 HD
ENDBRANCH  18  19
ENDBRANCH  17  18
ENDBRANCH  16  17
ENDBRANCH   1  16
BRANCH   6  24
HETATM   24  C8  UNL     1      25.701  19.136  63.405  1.00  0.00     0.156 C 
BRANCH  24  25
HETATM   25  N5  UNL     1      26.305  20.050  64.376  1.00  0.00    -0.364 N 
HETATM   26  C9  UNL     1      25.780  21.224  64.477  1.00  0.00     0.197 C 
HETATM   27  N6  UNL     1      26.302  22.196  65.404  1.00  0.00    -0.067 NA
HETATM   28  N7  UNL     1      24.676  21.644  63.702  1.00  0.00    -0.067 NA
ATOM     29  H5  UNL     1      27.104  19.772  64.946  1.00  0.00     0.161 HD
ENDBRANCH  24  25
ENDBRANCH   6  24
TORSDOF 6
ENDMDL
MODEL 3
REMARK VINA RESULT: -6.992802260      2.100      6.338
REMARK  6 active torsions:
REMARK  status: ('A' for Active; 'I' for Inactive)
REMARK    1  A    between atoms: N3_4  and  C2_6 
REMARK    2  A    between atoms: C2_6  and  C3_7 
REMARK    3  A    between atoms: C3_7  and  C4_8 
REMARK    4  A    between atoms: C4_8  and  C5_9 
REMARK    5  A    between atoms: C7_14  and  C8_15 
REMARK    6  A    between atoms: C8_15  and  N5_16 
ROOT
HETATM    1  C5  UNL     1      25.208  17.738  63.766  1.00  0.00     0.176 C 
HETATM    2  N4  UNL     1      25.592  18.701  62.736  1.00  0.00    -0.346 N 
ATOM      3  H4  UNL     1      24.971  19.502  62.616  1.00  0.00     0.163 HD
HETATM    4  C6  UNL     1      26.703  18.656  61.898  1.00  0.00     0.242 C 
HETATM    5  O1  UNL     1      27.483  19.685  61.911  1.00  0.00    -0.271 OA
HETATM    6  C7  UNL     1      27.119  17.570  60.979  1.00  0.00     0.194 C 
HETATM    7  N8  UNL     1      26.066  16.829  60.368  1.00  0.00    -0.345 N 
ATOM      8  H8  UNL     1      26.199  16.617  59.379  1.00  0.00     0.163 HD
HETATM    9  C10 UNL     1      24.876  16.350  60.925  1.00  0.00     0.236 C 
HETATM   10  O2  UNL     1      23.753  16.720  60.420  1.00  0.00    -0.272 OA
HETATM   11  C11 UNL     1      24.724  15.424  62.082  1.00  0.00     0.225 C 
HETATM   12  N9  UNL     1      23.668  15.956  62.909  1.00  0.00    -0.351 N 
ATOM     13  H9  UNL     1      22.816  15.416  63.064  1.00  0.00     0.163 HD
HETATM   14  C12 UNL     1      23.820  17.226  63.501  1.00  0.00     0.240 C 
HETATM   15  O3  UNL     1      22.820  17.939  63.812  1.00  0.00    -0.271 OA
ENDROOT
BRANCH   1  16
HETATM   16  C4  UNL     1      25.189  18.447  65.102  1.00  0.00     0.036 C 
BRANCH  16  17
HETATM   17  C3  UNL     1      25.572  19.883  65.053  1.00  0.00     0.022 C 
BRANCH  17  18
HETATM   18  C2  UNL     1      26.820  20.113  65.835  1.00  0.00     0.122 C 
BRANCH  18  19
HETATM   19  N3  UNL     1      28.015  20.059  64.982  1.00  0.00    -0.367 N 
HETATM   20  C1  UNL     1      28.677  21.154  64.843  1.00  0.00     0.196 C 
HETATM   21  N1  UNL     1      29.853  21.169  64.023  1.00  0.00    -0.067 NA
HETATM   22  N2  UNL     1      28.286  22.365  65.474  1.00  0.00    -0.067 NA
ATOM     23  H3  UNL     1      28.306  19.196  64.522  1.00  0.00     0.161 HD
ENDBRANCH  18  19
ENDBRANCH  17  18
ENDBRANCH  16  17
ENDBRANCH   1  16
BRANCH   6  24
HETATM   24  C8  UNL     1      28.153  16.644  61.624  1.00  0.00     0.156 C 
BRANCH  24  25
HETATM   25  N5  UNL     1      28.589  17.199  62.908  1.00  0.00    -0.364 N 
HETATM   26  C9  UNL     1      29.861  17.301  63.095  1.00  0.00     0.197 C 
HETATM   27  N6  UNL     1      30.391  17.835  64.325  1.00  0.00    -0.067 NA
HETATM   28  N7  UNL     1      30.817  16.906  62.134  1.00  0.00    -0.067 NA
ATOM     29  H5  UNL     1      27.919  17.490  63.619  1.00  0.00     0.161 HD
ENDBRANCH  24  25
ENDBRANCH   6  24
TORSDOF 6
ENDMDL
MODEL 4
REMARK VINA RESULT: -6.881388208      2.782      6.575
REMARK  6 active torsions:
REMARK  status: ('A' for Active; 'I' for Inactive)
REMARK    1  A    between atoms: N3_4  and  C2_6 
REMARK    2  A    between atoms: C2_6  and  C3_7 
REMARK    3  A    between atoms: C3_7  and  C4_8 
REMARK    4  A    between atoms: C4_8  and  C5_9 
REMARK    5  A    between atoms: C7_14  and  C8_15 
REMARK    6  A    between atoms: C8_15  and  N5_16 
ROOT
HETATM    1  C5  UNL     1      25.362  17.113  62.424  1.00  0.00     0.176 C 
HETATM    2  N4  UNL     1      25.588  17.344  60.998  1.00  0.00    -0.346 N 
ATOM      3  H4  UNL     1      24.967  18.016  60.548  1.00  0.00     0.163 HD
HETATM    4  C6  UNL     1      26.551  16.756  60.182  1.00  0.00     0.242 C 
HETATM    5  O1  UNL     1      27.336  17.556  59.539  1.00  0.00    -0.271 OA
HETATM    6  C7  UNL     1      26.801  15.314  59.946  1.00  0.00     0.194 C 
HETATM    7  N8  UNL     1      25.655  14.468  59.969  1.00  0.00    -0.345 N 
ATOM      8  H8  UNL     1      25.626  13.753  59.241  1.00  0.00     0.163 HD
HETATM    9  C10 UNL     1      24.564  14.473  60.844  1.00  0.00     0.236 C 
HETATM   10  O2  UNL     1      23.379  14.625  60.367  1.00  0.00    -0.272 OA
HETATM   11  C11 UNL     1      24.587  14.318  62.326  1.00  0.00     0.225 C 
HETATM   12  N9  UNL     1      23.683  15.305  62.864  1.00  0.00    -0.351 N 
ATOM     13  H9  UNL     1      22.861  15.014  63.392  1.00  0.00     0.163 HD
HETATM   14  C12 UNL     1      23.943  16.675  62.655  1.00  0.00     0.240 C 
HETATM   15  O3  UNL     1      23.014  17.536  62.660  1.00  0.00    -0.271 OA
ENDROOT
BRANCH   1  16
HETATM   16  C4  UNL     1      25.566  18.420  63.159  1.00  0.00     0.036 C 
BRANCH  16  17
HETATM   17  C3  UNL     1      25.961  18.279  64.585  1.00  0.00     0.022 C 
BRANCH  17  18
HETATM   18  C2  UNL     1      26.777  19.451  65.015  1.00  0.00     0.122 C 
BRANCH  18  19
HETATM   19  N3  UNL     1      28.004  19.581  64.216  1.00  0.00    -0.367 N 
HETATM   20  C1  UNL     1      28.333  20.772  63.853  1.00  0.00     0.196 C 
HETATM   21  N1  UNL     1      29.520  20.968  63.072  1.00  0.00    -0.067 NA
HETATM   22  N2  UNL     1      27.561  21.914  64.197  1.00  0.00    -0.067 NA
ATOM     23  H3  UNL     1      28.567  18.769  63.963  1.00  0.00     0.161 HD
ENDBRANCH  18  19
ENDBRANCH  17  18
ENDBRANCH  16  17
ENDBRANCH   1  16
BRANCH   6  24
HETATM   24  C8  UNL     1      27.914  14.776  60.849  1.00  0.00     0.156 C 
BRANCH  24  25
HETATM   25  N5  UNL     1      28.843  15.853  61.194  1.00  0.00    -0.364 N 
HETATM   26  C9  UNL     1      28.878  16.218  62.431  1.00  0.00     0.197 C 
HETATM   27  N6  UNL     1      29.759  17.269  62.872  1.00  0.00    -0.067 NA
HETATM   28  N7  UNL     1      28.071  15.632  63.431  1.00  0.00    -0.067 NA
ATOM     29  H5  UNL     1      29.435  16.294  60.490  1.00  0.00     0.161 HD
ENDBRANCH  24  25
ENDBRANCH   6  24
TORSDOF 6
ENDMDL
MODEL 5
REMARK VINA RESULT: -6.827216358      2.343      5.710
REMARK  6 active torsions:
REMARK  status: ('A' for Active; 'I' for Inactive)
REMARK    1  A    between atoms: N3_4  and  C2_6 
REMARK    2  A    between atoms: C2_6  and  C3_7 
REMARK    3  A    between atoms: C3_7  and  C4_8 
REMARK    4  A    between atoms: C4_8  and  C5_9 
REMARK    5  A    between atoms: C7_14  and  C8_15 
REMARK    6  A    between atoms: C8_15  and  N5_16 
ROOT
HETATM    1  C5  UNL     1      29.084  18.674  62.644  1.00  0.00     0.176 C 
HETATM    2  N4  UNL     1      28.282  18.701  61.422  1.00  0.00    -0.346 N 
ATOM      3  H4  UNL     1      28.494  19.450  60.763  1.00  0.00     0.163 HD
HETATM    4  C6  UNL     1      27.264  17.826  61.051  1.00  0.00     0.242 C 
HETATM    5  O1  UNL     1      27.392  17.237  59.908  1.00  0.00    -0.271 OA
HETATM    6  C7  UNL     1      26.035  17.474  61.800  1.00  0.00     0.194 C 
HETATM    7  N8  UNL     1      25.467  18.512  62.595  1.00  0.00    -0.345 N 
ATOM      8  H8  UNL     1      24.450  18.584  62.555  1.00  0.00     0.163 HD
HETATM    9  C10 UNL     1      26.099  19.445  63.422  1.00  0.00     0.236 C 
HETATM   10  O2  UNL     1      25.930  20.700  63.195  1.00  0.00    -0.272 OA
HETATM   11  C11 UNL     1      26.986  19.172  64.588  1.00  0.00     0.225 C 
HETATM   12  N9  UNL     1      28.108  20.073  64.480  1.00  0.00    -0.351 N 
ATOM     13  H9  UNL     1      28.279  20.769  65.207  1.00  0.00     0.163 HD
HETATM   14  C12 UNL     1      28.966  19.987  63.366  1.00  0.00     0.240 C 
HETATM   15  O3  UNL     1      29.636  20.985  62.963  1.00  0.00    -0.271 OA
ENDROOT
BRANCH   1  16
HETATM   16  C4  UNL     1      30.536  18.488  62.261  1.00  0.00     0.036 C 
BRANCH  16  17
HETATM   17  C3  UNL     1      31.084  17.132  62.530  1.00  0.00     0.022 C 
BRANCH  17  18
HETATM   18  C2  UNL     1      32.573  17.169  62.546  1.00  0.00     0.122 C 
BRANCH  18  19
HETATM   19  N3  UNL     1      33.102  17.235  63.916  1.00  0.00    -0.367 N 
HETATM   20  C1  UNL     1      34.377  17.355  64.038  1.00  0.00     0.196 C 
HETATM   21  N1  UNL     1      34.957  17.425  65.348  1.00  0.00    -0.067 NA
HETATM   22  N2  UNL     1      35.247  17.422  62.917  1.00  0.00    -0.067 NA
ATOM     23  H3  UNL     1      32.488  17.188  64.729  1.00  0.00     0.161 HD
ENDBRANCH  18  19
ENDBRANCH  17  18
ENDBRANCH  16  17
ENDBRANCH   1  16
BRANCH   6  24
HETATM   24  C8  UNL     1      26.210  16.185  62.606  1.00  0.00     0.156 C 
BRANCH  24  25
HETATM   25  N5  UNL     1      24.915  15.524  62.781  1.00  0.00    -0.364 N 
HETATM   26  C9  UNL     1      24.802  14.329  62.309  1.00  0.00     0.197 C 
HETATM   27  N6  UNL     1      23.568  13.594  62.430  1.00  0.00    -0.067 NA
HETATM   28  N7  UNL     1      25.854  13.659  61.646  1.00  0.00    -0.067 NA
ATOM     29  H5  UNL     1      24.139  15.987  63.254  1.00  0.00     0.161 HD
ENDBRANCH  24  25
ENDBRANCH   6  24
TORSDOF 6
ENDMDL
