MODEL 1
REMARK VINA RESULT: -7.932604707      0.000      0.000
REMARK  5 active torsions:
REMARK  status: ('A' for Active; 'I' for Inactive)
REMARK    1  A    between atoms: N3_4  and  C2_6 
REMARK    2  A    between atoms: C2_6  and  C3_7 
REMARK    3  A    between atoms: C3_7  and  C4_8 
REMARK    4  A    between atoms: C4_8  and  C5_9 
REMARK    5  A    between atoms: C5_9  and  C6_10 
ROOT
HETATM    1  C6  UNL     1      28.909  16.657  62.742  1.00  0.00     0.175 C 
HETATM    2  N4  UNL     1      27.600  17.094  63.018  1.00  0.00    -0.363 N 
ATOM      3  H4  UNL     1      26.930  16.449  62.599  1.00  0.00     0.161 HD
HETATM    4  C7  UNL     1      26.898  18.142  63.691  1.00  0.00     0.142 C 
HETATM    5  N5  UNL     1      25.630  17.734  64.188  1.00  0.00    -0.081 NA
HETATM    6  C8  UNL     1      27.174  19.389  63.936  1.00  0.00     0.105 A 
HETATM    7  N6  UNL     1      26.125  19.915  64.623  1.00  0.00    -0.314 N 
ATOM      8  H6  UNL     1      25.329  19.315  64.840  1.00  0.00     0.169 HD
HETATM    9  C9  UNL     1      26.102  21.200  65.029  1.00  0.00     0.314 A 
HETATM   10  O1  UNL     1      25.105  21.641  65.664  1.00  0.00    -0.262 OA
HETATM   11  C10 UNL     1      27.171  22.019  64.743  1.00  0.00     0.314 A 
HETATM   12  O2  UNL     1      27.197  23.239  65.106  1.00  0.00    -0.262 OA
HETATM   13  N7  UNL     1      28.218  21.557  64.077  1.00  0.00    -0.316 N 
ATOM     14  H7  UNL     1      29.010  22.165  63.868  1.00  0.00     0.169 HD
HETATM   15  C11 UNL     1      28.220  20.256  63.677  1.00  0.00     0.081 A 
HETATM   16  C12 UNL     1      29.360  20.129  63.058  1.00  0.00     0.123 C 
HETATM   17  N8  UNL     1      30.056  19.096  62.379  1.00  0.00    -0.333 N 
ATOM     18  H8  UNL     1      30.828  19.426  61.800  1.00  0.00     0.168 HD
HETATM   19  C13 UNL     1      29.879  17.690  62.353  1.00  0.00     0.244 C 
HETATM   20  O3  UNL     1      30.883  17.145  61.822  1.00  0.00    -0.271 OA
ENDROOT
BRANCH   1  21
HETATM   21  C5  UNL     1      28.959  15.576  61.703  1.00  0.00     0.035 C 
BRANCH  21  22
HETATM   22  C4  UNL     1      27.861  14.575  61.766  1.00  0.00     0.004 C 
BRANCH  22  23
HETATM   23  C3  UNL     1      27.357  14.390  60.327  1.00  0.00     0.020 C 
BRANCH  23  24
HETATM   24  C2  UNL     1      25.934  14.882  60.217  1.00  0.00     0.122 C 
BRANCH  24  25
HETATM   25  N3  UNL     1      25.057  14.103  61.036  1.00  0.00    -0.367 N 
HETATM   26  C1  UNL     1      24.123  14.552  61.778  1.00  0.00     0.196 C 
HETATM   27  N1  UNL     1      23.861  15.931  61.854  1.00  0.00    -0.067 NA
HETATM   28  N2  UNL     1      23.348  13.625  62.527  1.00  0.00    -0.067 NA
ATOM     29  H3  UNL     1      25.193  13.092  61.025  1.00  0.00     0.161 HD
ENDBRANCH  24  25
ENDBRANCH  23  24
ENDBRANCH  22  23
ENDBRANCH  21  22
ENDBRANCH   1  21
TORSDOF 5
ENDMDL
MODEL 2
REMARK VINA RESULT: -7.785358392      2.199      3.039
REMARK  5 active torsions:
REMARK  status: ('A' for Active; 'I' for Inactive)
REMARK    1  A    between atoms: N3_4  and  C2_6 
REMARK    2  A    between atoms: C2_6  and  C3_7 
REMARK    3  A    between atoms: C3_7  and  C4_8 
REMARK    4  A    between atoms: C4_8  and  C5_9 
REMARK    5  A    between atoms: C5_9  and  C6_10 
ROOT
HETATM    1  C6  UNL     1      28.349  16.150  61.112  1.00  0.00     0.175 C 
HETATM    2  N4  UNL     1      28.808  16.118  62.442  1.00  0.00    -0.363 N 
ATOM      3  H4  UNL     1      28.714  15.172  62.812  1.00  0.00     0.161 HD
HETATM    4  C7  UNL     1      29.361  16.972  63.447  1.00  0.00     0.142 C 
HETATM    5  N5  UNL     1      30.216  16.286  64.353  1.00  0.00    -0.081 NA
HETATM    6  C8  UNL     1      29.241  18.240  63.707  1.00  0.00     0.105 A 
HETATM    7  N6  UNL     1      30.008  18.511  64.797  1.00  0.00    -0.314 N 
ATOM      8  H6  UNL     1      30.534  17.751  65.229  1.00  0.00     0.169 HD
HETATM    9  C9  UNL     1      30.099  19.748  65.324  1.00  0.00     0.314 A 
HETATM   10  O1  UNL     1      30.824  19.948  66.337  1.00  0.00    -0.262 OA
HETATM   11  C10 UNL     1      29.395  20.781  64.749  1.00  0.00     0.314 A 
HETATM   12  O2  UNL     1      29.449  21.967  65.210  1.00  0.00    -0.262 OA
HETATM   13  N7  UNL     1      28.634  20.573  63.686  1.00  0.00    -0.316 N 
ATOM     14  H7  UNL     1      28.114  21.340  63.261  1.00  0.00     0.169 HD
HETATM   15  C11 UNL     1      28.556  19.315  63.170  1.00  0.00     0.081 A 
HETATM   16  C12 UNL     1      27.740  19.449  62.163  1.00  0.00     0.123 C 
HETATM   17  N8  UNL     1      27.179  18.604  61.171  1.00  0.00    -0.333 N 
ATOM     18  H8  UNL     1      26.379  19.010  60.685  1.00  0.00     0.168 HD
HETATM   19  C13 UNL     1      27.521  17.302  60.729  1.00  0.00     0.244 C 
HETATM   20  O3  UNL     1      26.916  17.046  59.654  1.00  0.00    -0.271 OA
ENDROOT
BRANCH   1  21
HETATM   21  C5  UNL     1      27.606  14.908  60.718  1.00  0.00     0.035 C 
BRANCH  21  22
HETATM   22  C4  UNL     1      26.834  14.251  61.807  1.00  0.00     0.004 C 
BRANCH  22  23
HETATM   23  C3  UNL     1      25.442  13.949  61.232  1.00  0.00     0.020 C 
BRANCH  23  24
HETATM   24  C2  UNL     1      24.378  14.421  62.194  1.00  0.00     0.122 C 
BRANCH  24  25
HETATM   25  N3  UNL     1      24.758  15.654  62.813  1.00  0.00    -0.367 N 
HETATM   26  C1  UNL     1      24.330  16.814  62.506  1.00  0.00     0.196 C 
HETATM   27  N1  UNL     1      23.392  16.987  61.473  1.00  0.00    -0.067 NA
HETATM   28  N2  UNL     1      24.820  17.932  63.234  1.00  0.00    -0.067 NA
ATOM     29  H3  UNL     1      25.436  15.598  63.574  1.00  0.00     0.161 HD
ENDBRANCH  24  25
ENDBRANCH  23  24
ENDBRANCH  22  23
ENDBRANCH  21  22
ENDBRANCH   1  21
TORSDOF 5
ENDMDL
MODEL 3
REMARK VINA RESULT: -7.696077775      1.630      2.252
REMARK  5 active torsions:
REMARK  status: ('A' for Active; 'I' for Inactive)
REMARK    1  A    between atoms: N3_4  and  C2_6 
REMARK    2  A    between atoms: C2_6  and  C3_7 
REMARK    3  A    between atoms: C3_7  and  C4_8 
REMARK    4  A    between atoms: C4_8  and  C5_9 
REMARK    5  A    between atoms: C5_9  and  C6_10 
ROOT
HETATM    1  C6  UNL     1      28.751  16.455  62.766  1.00  0.00     0.175 C 
HETATM    2  N4  UNL     1      27.465  16.938  63.067  1.00  0.00    -0.363 N 
ATOM      3  H4  UNL     1      26.764  16.300  62.688  1.00  0.00     0.161 HD
HETATM    4  C7  UNL     1      26.813  18.026  63.728  1.00  0.00     0.142 C 
HETATM    5  N5  UNL     1      25.550  17.670  64.276  1.00  0.00    -0.081 NA
HETATM    6  C8  UNL     1      27.131  19.271  63.927  1.00  0.00     0.105 A 
HETATM    7  N6  UNL     1      26.119  19.847  64.629  1.00  0.00    -0.314 N 
ATOM      8  H6  UNL     1      25.313  19.277  64.887  1.00  0.00     0.169 HD
HETATM    9  C9  UNL     1      26.144  21.144  64.996  1.00  0.00     0.314 A 
HETATM   10  O1  UNL     1      25.180  21.632  65.646  1.00  0.00    -0.262 OA
HETATM   11  C10 UNL     1      27.226  21.922  64.653  1.00  0.00     0.314 A 
HETATM   12  O2  UNL     1      27.298  23.151  64.978  1.00  0.00    -0.262 OA
HETATM   13  N7  UNL     1      28.239  21.410  63.971  1.00  0.00    -0.316 N 
ATOM     14  H7  UNL     1      29.041  21.989  63.720  1.00  0.00     0.169 HD
HETATM   15  C11 UNL     1      28.193  20.099  63.611  1.00  0.00     0.081 A 
HETATM   16  C12 UNL     1      29.309  19.921  62.963  1.00  0.00     0.123 C 
HETATM   17  N8  UNL     1      29.955  18.848  62.295  1.00  0.00    -0.333 N 
ATOM     18  H8  UNL     1      30.718  19.139  61.684  1.00  0.00     0.168 HD
HETATM   19  C13 UNL     1      29.737  17.448  62.317  1.00  0.00     0.244 C 
HETATM   20  O3  UNL     1      30.709  16.859  61.773  1.00  0.00    -0.271 OA
ENDROOT
BRANCH   1  21
HETATM   21  C5  UNL     1      28.740  15.343  61.759  1.00  0.00     0.035 C 
BRANCH  21  22
HETATM   22  C4  UNL     1      27.502  14.518  61.730  1.00  0.00     0.004 C 
BRANCH  22  23
HETATM   23  C3  UNL     1      27.002  14.536  60.279  1.00  0.00     0.020 C 
BRANCH  23  24
HETATM   24  C2  UNL     1      26.085  15.717  60.068  1.00  0.00     0.122 C 
BRANCH  24  25
HETATM   25  N3  UNL     1      26.476  16.469  58.915  1.00  0.00    -0.367 N 
HETATM   26  C1  UNL     1      27.076  17.594  58.918  1.00  0.00     0.196 C 
HETATM   27  N1  UNL     1      27.425  18.223  60.126  1.00  0.00    -0.067 NA
HETATM   28  N2  UNL     1      27.387  18.198  57.670  1.00  0.00    -0.067 NA
ATOM     29  H3  UNL     1      26.252  16.067  58.005  1.00  0.00     0.161 HD
ENDBRANCH  24  25
ENDBRANCH  23  24
ENDBRANCH  22  23
ENDBRANCH  21  22
ENDBRANCH   1  21
TORSDOF 5
ENDMDL
MODEL 4
REMARK VINA RESULT: -7.671913116      2.379      2.575
REMARK  5 active torsions:
REMARK  status: ('A' for Active; 'I' for Inactive)
REMARK    1  A    between atoms: N3_4  and  C2_6 
REMARK    2  A    between atoms: C2_6  and  C3_7 
REMARK    3  A    between atoms: C3_7  and  C4_8 
REMARK    4  A    between atoms: C4_8  and  C5_9 
REMARK    5  A    between atoms: C5_9  and  C6_10 
ROOT
HETATM    1  C6  UNL     1      27.807  16.108  63.295  1.00  0.00     0.175 C 
HETATM    2  N4  UNL     1      26.679  16.795  62.807  1.00  0.00    -0.363 N 
ATOM      3  H4  UNL     1      26.672  16.757  61.788  1.00  0.00     0.161 HD
HETATM    4  C7  UNL     1      25.540  17.527  63.267  1.00  0.00     0.142 C 
HETATM    5  N5  UNL     1      24.424  17.430  62.392  1.00  0.00    -0.081 NA
HETATM    6  C8  UNL     1      25.316  18.267  64.313  1.00  0.00     0.105 A 
HETATM    7  N6  UNL     1      24.035  18.716  64.232  1.00  0.00    -0.314 N 
ATOM      8  H6  UNL     1      23.466  18.438  63.433  1.00  0.00     0.169 HD
HETATM    9  C9  UNL     1      23.492  19.516  65.171  1.00  0.00     0.314 A 
HETATM   10  O1  UNL     1      22.298  19.906  65.051  1.00  0.00    -0.262 OA
HETATM   11  C10 UNL     1      24.250  19.897  66.255  1.00  0.00     0.314 A 
HETATM   12  O2  UNL     1      23.781  20.650  67.169  1.00  0.00    -0.262 OA
HETATM   13  N7  UNL     1      25.502  19.488  66.383  1.00  0.00    -0.316 N 
ATOM     14  H7  UNL     1      26.062  19.771  67.187  1.00  0.00     0.169 HD
HETATM   15  C11 UNL     1      26.031  18.681  65.422  1.00  0.00     0.081 A 
HETATM   16  C12 UNL     1      27.249  18.473  65.836  1.00  0.00     0.123 C 
HETATM   17  N8  UNL     1      28.386  17.758  65.378  1.00  0.00    -0.333 N 
ATOM     18  H8  UNL     1      29.256  18.020  65.841  1.00  0.00     0.168 HD
HETATM   19  C13 UNL     1      28.539  16.746  64.397  1.00  0.00     0.244 C 
HETATM   20  O3  UNL     1      29.678  16.219  64.505  1.00  0.00    -0.271 OA
ENDROOT
BRANCH   1  21
HETATM   21  C5  UNL     1      28.802  15.780  62.222  1.00  0.00     0.035 C 
BRANCH  21  22
HETATM   22  C4  UNL     1      28.226  15.488  60.881  1.00  0.00     0.004 C 
BRANCH  22  23
HETATM   23  C3  UNL     1      27.671  14.058  60.947  1.00  0.00     0.020 C 
BRANCH  23  24
HETATM   24  C2  UNL     1      26.240  14.042  60.464  1.00  0.00     0.122 C 
BRANCH  24  25
HETATM   25  N3  UNL     1      25.343  13.726  61.532  1.00  0.00    -0.367 N 
HETATM   26  C1  UNL     1      24.114  14.055  61.605  1.00  0.00     0.196 C 
HETATM   27  N1  UNL     1      23.504  14.799  60.580  1.00  0.00    -0.067 NA
HETATM   28  N2  UNL     1      23.370  13.651  62.748  1.00  0.00    -0.067 NA
ATOM     29  H3  UNL     1      25.723  13.185  62.310  1.00  0.00     0.161 HD
ENDBRANCH  24  25
ENDBRANCH  23  24
ENDBRANCH  22  23
ENDBRANCH  21  22
ENDBRANCH   1  21
TORSDOF 5
ENDMDL
MODEL 5
REMARK VINA RESULT: -7.581841188      2.389      3.282
REMARK  5 active torsions:
REMARK  status: ('A' for Active; 'I' for Inactive)
REMARK    1  A    between atoms: N3_4  and  C2_6 
REMARK    2  A    between atoms: C2_6  and  C3_7 
REMARK    3  A    between atoms: C3_7  and  C4_8 
REMARK    4  A    between atoms: C4_8  and  C5_9 
REMARK    5  A    between atoms: C5_9  and  C6_10 
ROOT
HETATM    1  C6  UNL     1      27.377  15.673  63.019  1.00  0.00     0.175 C 
HETATM    2  N4  UNL     1      26.170  16.293  62.646  1.00  0.00    -0.363 N 
ATOM      3  H4  UNL     1      25.957  16.067  61.674  1.00  0.00     0.161 HD
HETATM    4  C7  UNL     1      25.143  17.135  63.177  1.00  0.00     0.142 C 
HETATM    5  N5  UNL     1      23.874  16.912  62.577  1.00  0.00    -0.081 NA
HETATM    6  C8  UNL     1      25.130  18.062  64.088  1.00  0.00     0.105 A 
HETATM    7  N6  UNL     1      23.856  18.529  64.181  1.00  0.00    -0.314 N 
ATOM      8  H6  UNL     1      23.139  18.126  63.578  1.00  0.00     0.169 HD
HETATM    9  C9  UNL     1      23.509  19.507  65.042  1.00  0.00     0.314 A 
HETATM   10  O1  UNL     1      22.314  19.906  65.090  1.00  0.00    -0.262 OA
HETATM   11  C10 UNL     1      24.468  20.059  65.860  1.00  0.00     0.314 A 
HETATM   12  O2  UNL     1      24.189  20.983  66.691  1.00  0.00    -0.262 OA
HETATM   13  N7  UNL     1      25.723  19.640  65.811  1.00  0.00    -0.316 N 
ATOM     14  H7  UNL     1      26.432  20.050  66.419  1.00  0.00     0.169 HD
HETATM   15  C11 UNL     1      26.052  18.652  64.934  1.00  0.00     0.081 A 
HETATM   16  C12 UNL     1      27.330  18.486  65.127  1.00  0.00     0.123 C 
HETATM   17  N8  UNL     1      28.355  17.662  64.595  1.00  0.00    -0.333 N 
ATOM     18  H8  UNL     1      29.299  17.978  64.817  1.00  0.00     0.168 HD
HETATM   19  C13 UNL     1      28.313  16.481  63.812  1.00  0.00     0.244 C 
HETATM   20  O3  UNL     1      29.454  15.947  63.788  1.00  0.00    -0.271 OA
ENDROOT
BRANCH   1  21
HETATM   21  C5  UNL     1      28.137  15.119  61.850  1.00  0.00     0.035 C 
BRANCH  21  22
HETATM   22  C4  UNL     1      27.529  13.929  61.196  1.00  0.00     0.004 C 
BRANCH  22  23
HETATM   23  C3  UNL     1      27.294  14.313  59.728  1.00  0.00     0.020 C 
BRANCH  23  24
HETATM   24  C2  UNL     1      26.265  15.416  59.646  1.00  0.00     0.122 C 
BRANCH  24  25
HETATM   25  N3  UNL     1      26.648  16.402  58.683  1.00  0.00    -0.367 N 
HETATM   26  C1  UNL     1      27.114  17.561  58.937  1.00  0.00     0.196 C 
HETATM   27  N1  UNL     1      27.302  17.989  60.263  1.00  0.00    -0.067 NA
HETATM   28  N2  UNL     1      27.442  18.413  57.847  1.00  0.00    -0.067 NA
ATOM     29  H3  UNL     1      26.538  16.154  57.699  1.00  0.00     0.161 HD
ENDBRANCH  24  25
ENDBRANCH  23  24
ENDBRANCH  22  23
ENDBRANCH  21  22
ENDBRANCH   1  21
TORSDOF 5
ENDMDL
