MODEL 1
REMARK VINA RESULT: -7.518604254      0.000      0.000
REMARK  8 active torsions:
REMARK  status: ('A' for Active; 'I' for Inactive)
REMARK    1  A    between atoms: N1_1  and  C1_5 
REMARK    2  A    between atoms: C1_5  and  C2_6 
REMARK    3  A    between atoms: C3_9  and  O1_10 
REMARK    4  A    between atoms: C4_12  and  C5_13 
REMARK    5  A    between atoms: C5_13  and  C6_14 
REMARK    6  A    between atoms: C6_14  and  C7_15 
REMARK    7  A    between atoms: C7_15  and  N3_16 
REMARK    8  A    between atoms: C9_23  and  O2_24 
ROOT
HETATM    1  C2  UNL     1      25.607  18.414  64.316  1.00  0.00     0.201 C 
HETATM    2  N2  UNL     1      25.967  16.977  64.118  1.00  0.00    -0.358 N 
ATOM      3  H2  UNL     1      25.329  16.267  64.477  1.00  0.00     0.162 HD
HETATM    4  C3  UNL     1      27.156  16.540  63.454  1.00  0.00     0.135 C 
HETATM    5  C4  UNL     1      27.657  16.679  62.123  1.00  0.00     0.158 C 
HETATM    6  N6  UNL     1      28.839  17.390  61.752  1.00  0.00    -0.358 N 
ATOM      7  H6  UNL     1      28.896  17.414  60.734  1.00  0.00     0.162 HD
HETATM    8  C9  UNL     1      29.923  18.049  62.265  1.00  0.00     0.151 C 
HETATM    9  C10 UNL     1      30.303  19.306  62.892  1.00  0.00     0.140 C 
HETATM   10  N7  UNL     1      29.677  20.553  62.623  1.00  0.00    -0.379 N 
ATOM     11  H7  UNL     1      29.877  21.134  61.810  1.00  0.00     0.160 HD
HETATM   12  C11 UNL     1      28.671  20.906  63.706  1.00  0.00     0.245 C 
HETATM   13  N8  UNL     1      27.818  19.772  63.817  1.00  0.00    -0.343 N 
ATOM     14  H8  UNL     1      28.375  19.022  64.228  1.00  0.00     0.164 HD
HETATM   15  C12 UNL     1      26.589  19.273  63.610  1.00  0.00     0.243 C 
HETATM   16  O3  UNL     1      25.979  19.545  62.508  1.00  0.00    -0.271 OA
ENDROOT
BRANCH   5  17
HETATM   17  C5  UNL     1      27.695  15.315  61.397  1.00  0.00     0.035 C 
BRANCH  17  18
HETATM   18  C6  UNL     1      27.027  15.255  60.095  1.00  0.00     0.022 C 
BRANCH  18  19
HETATM   19  C7  UNL     1      25.523  15.585  60.252  1.00  0.00     0.122 C 
BRANCH  19  20
HETATM   20  N3  UNL     1      24.862  14.488  60.915  1.00  0.00    -0.367 N 
HETATM   21  C8  UNL     1      24.035  14.732  61.862  1.00  0.00     0.196 C 
HETATM   22  N4  UNL     1      23.400  13.637  62.495  1.00  0.00    -0.067 NA
HETATM   23  N5  UNL     1      23.757  16.064  62.270  1.00  0.00    -0.067 NA
ATOM     24  H3  UNL     1      25.051  13.527  60.632  1.00  0.00     0.161 HD
ENDBRANCH  19  20
ENDBRANCH  18  19
ENDBRANCH  17  18
ENDBRANCH   5  17
BRANCH   4  25
HETATM   25  O1  UNL     1      27.939  15.871  64.248  1.00  0.00    -0.348 OA
ATOM     26  H1  UNL     1      28.351  15.138  63.806  1.00  0.00     0.219 HD
ENDBRANCH   4  25
BRANCH   8  27
HETATM   27  O2  UNL     1      31.015  17.297  62.163  1.00  0.00    -0.345 OA
ATOM     28  H2  UNL     1      30.827  16.404  62.425  1.00  0.00     0.219 HD
ENDBRANCH   8  27
BRANCH   1  29
HETATM   29  C1  UNL     1      25.421  18.707  65.787  1.00  0.00     0.264 C 
BRANCH  29  30
HETATM   30  N1  UNL     1      24.278  18.054  66.335  1.00  0.00    -0.077 N 
ATOM     31  H13 UNL     1      24.005  17.253  65.766  1.00  0.00     0.274 HD
ATOM     32  H12 UNL     1      24.513  17.569  67.201  1.00  0.00     0.274 HD
ATOM     33  H11 UNL     1      23.493  18.690  66.473  1.00  0.00     0.274 HD
ENDBRANCH  29  30
ENDBRANCH   1  29
TORSDOF 8
ENDMDL
MODEL 2
REMARK VINA RESULT: -7.408736381      2.271      5.510
REMARK  8 active torsions:
REMARK  status: ('A' for Active; 'I' for Inactive)
REMARK    1  A    between atoms: N1_1  and  C1_5 
REMARK    2  A    between atoms: C1_5  and  C2_6 
REMARK    3  A    between atoms: C3_9  and  O1_10 
REMARK    4  A    between atoms: C4_12  and  C5_13 
REMARK    5  A    between atoms: C5_13  and  C6_14 
REMARK    6  A    between atoms: C6_14  and  C7_15 
REMARK    7  A    between atoms: C7_15  and  N3_16 
REMARK    8  A    between atoms: C9_23  and  O2_24 
ROOT
HETATM    1  C2  UNL     1      26.505  15.934  61.075  1.00  0.00     0.201 C 
HETATM    2  N2  UNL     1      25.550  16.994  61.519  1.00  0.00    -0.358 N 
ATOM      3  H2  UNL     1      24.683  17.110  60.993  1.00  0.00     0.162 HD
HETATM    4  C3  UNL     1      25.781  17.855  62.636  1.00  0.00     0.135 C 
HETATM    5  C4  UNL     1      25.936  17.639  64.040  1.00  0.00     0.158 C 
HETATM    6  N6  UNL     1      27.121  17.900  64.794  1.00  0.00    -0.358 N 
ATOM      7  H6  UNL     1      26.983  17.555  65.744  1.00  0.00     0.162 HD
HETATM    8  C9  UNL     1      28.373  18.444  64.706  1.00  0.00     0.151 C 
HETATM    9  C10 UNL     1      29.703  18.170  64.182  1.00  0.00     0.140 C 
HETATM   10  N7  UNL     1      30.266  16.869  64.075  1.00  0.00    -0.379 N 
ATOM     11  H7  UNL     1      30.688  16.358  64.849  1.00  0.00     0.160 HD
HETATM   12  C11 UNL     1      30.154  16.340  62.654  1.00  0.00     0.245 C 
HETATM   13  N8  UNL     1      28.781  16.475  62.304  1.00  0.00    -0.343 N 
ATOM     14  H8  UNL     1      28.596  17.474  62.215  1.00  0.00     0.164 HD
HETATM   15  C12 UNL     1      27.627  15.841  62.042  1.00  0.00     0.243 C 
HETATM   16  O3  UNL     1      27.276  14.846  62.782  1.00  0.00    -0.271 OA
ENDROOT
BRANCH   5  17
HETATM   17  C5  UNL     1      24.749  18.237  64.830  1.00  0.00     0.035 C 
BRANCH  17  18
HETATM   18  C6  UNL     1      25.068  18.816  66.137  1.00  0.00     0.022 C 
BRANCH  18  19
HETATM   19  C7  UNL     1      24.701  20.320  66.157  1.00  0.00     0.122 C 
BRANCH  19  20
HETATM   20  N3  UNL     1      25.873  21.100  65.839  1.00  0.00    -0.367 N 
HETATM   21  C8  UNL     1      25.945  21.695  64.708  1.00  0.00     0.196 C 
HETATM   22  N4  UNL     1      27.104  22.454  64.422  1.00  0.00    -0.067 NA
HETATM   23  N5  UNL     1      24.890  21.602  63.760  1.00  0.00    -0.067 NA
ATOM     24  H3  UNL     1      26.637  21.176  66.510  1.00  0.00     0.161 HD
ENDBRANCH  19  20
ENDBRANCH  18  19
ENDBRANCH  17  18
ENDBRANCH   5  17
BRANCH   4  25
HETATM   25  O1  UNL     1      25.864  19.103  62.280  1.00  0.00    -0.348 OA
ATOM     26  H1  UNL     1      26.335  19.209  61.461  1.00  0.00     0.219 HD
ENDBRANCH   4  25
BRANCH   8  27
HETATM   27  O2  UNL     1      28.405  19.633  65.298  1.00  0.00    -0.345 OA
ATOM     28  H2  UNL     1      28.813  20.276  64.729  1.00  0.00     0.219 HD
ENDBRANCH   8  27
BRANCH   1  29
HETATM   29  C1  UNL     1      26.902  16.159  59.634  1.00  0.00     0.264 C 
BRANCH  29  30
HETATM   30  N1  UNL     1      26.030  17.063  58.960  1.00  0.00    -0.077 N 
ATOM     31  H13 UNL     1      25.391  16.563  58.342  1.00  0.00     0.274 HD
ATOM     32  H12 UNL     1      25.351  17.468  59.606  1.00  0.00     0.274 HD
ATOM     33  H11 UNL     1      26.534  17.791  58.455  1.00  0.00     0.274 HD
ENDBRANCH  29  30
ENDBRANCH   1  29
TORSDOF 8
ENDMDL
MODEL 3
REMARK VINA RESULT: -7.131298673      2.164      5.826
REMARK  8 active torsions:
REMARK  status: ('A' for Active; 'I' for Inactive)
REMARK    1  A    between atoms: N1_1  and  C1_5 
REMARK    2  A    between atoms: C1_5  and  C2_6 
REMARK    3  A    between atoms: C3_9  and  O1_10 
REMARK    4  A    between atoms: C4_12  and  C5_13 
REMARK    5  A    between atoms: C5_13  and  C6_14 
REMARK    6  A    between atoms: C6_14  and  C7_15 
REMARK    7  A    between atoms: C7_15  and  N3_16 
REMARK    8  A    between atoms: C9_23  and  O2_24 
ROOT
HETATM    1  C2  UNL     1      28.417  18.933  63.017  1.00  0.00     0.201 C 
HETATM    2  N2  UNL     1      27.783  18.519  64.306  1.00  0.00    -0.358 N 
ATOM      3  H2  UNL     1      28.268  18.747  65.174  1.00  0.00     0.162 HD
HETATM    4  C3  UNL     1      26.538  17.824  64.391  1.00  0.00     0.135 C 
HETATM    5  C4  UNL     1      25.195  18.145  64.024  1.00  0.00     0.158 C 
HETATM    6  N6  UNL     1      24.424  17.474  63.025  1.00  0.00    -0.358 N 
ATOM      7  H6  UNL     1      23.546  17.978  62.900  1.00  0.00     0.162 HD
HETATM    8  C9  UNL     1      24.436  16.401  62.176  1.00  0.00     0.151 C 
HETATM    9  C10 UNL     1      25.018  15.942  60.924  1.00  0.00     0.140 C 
HETATM   10  N7  UNL     1      25.357  16.797  59.841  1.00  0.00    -0.379 N 
ATOM     11  H7  UNL     1      24.688  17.158  59.161  1.00  0.00     0.160 HD
HETATM   12  C11 UNL     1      26.846  17.104  59.830  1.00  0.00     0.245 C 
HETATM   13  N8  UNL     1      27.147  17.577  61.138  1.00  0.00    -0.343 N 
ATOM     14  H8  UNL     1      27.060  16.779  61.768  1.00  0.00     0.164 HD
HETATM   15  C12 UNL     1      27.497  18.631  61.893  1.00  0.00     0.243 C 
HETATM   16  O3  UNL     1      26.936  19.770  61.677  1.00  0.00    -0.271 OA
ENDROOT
BRANCH   5  17
HETATM   17  C5  UNL     1      24.296  18.294  65.273  1.00  0.00     0.035 C 
BRANCH  17  18
HETATM   18  C6  UNL     1      24.887  18.991  66.417  1.00  0.00     0.022 C 
BRANCH  18  19
HETATM   19  C7  UNL     1      24.662  20.517  66.287  1.00  0.00     0.122 C 
BRANCH  19  20
HETATM   20  N3  UNL     1      25.898  21.147  65.889  1.00  0.00    -0.367 N 
HETATM   21  C8  UNL     1      25.993  21.665  64.722  1.00  0.00     0.196 C 
HETATM   22  N4  UNL     1      27.215  22.277  64.358  1.00  0.00    -0.067 NA
HETATM   23  N5  UNL     1      24.902  21.629  63.812  1.00  0.00    -0.067 NA
ATOM     24  H3  UNL     1      26.688  21.180  66.533  1.00  0.00     0.161 HD
ENDBRANCH  19  20
ENDBRANCH  18  19
ENDBRANCH  17  18
ENDBRANCH   5  17
BRANCH   4  25
HETATM   25  O1  UNL     1      26.674  16.645  64.923  1.00  0.00    -0.348 OA
ATOM     26  H1  UNL     1      26.380  15.955  64.339  1.00  0.00     0.219 HD
ENDBRANCH   4  25
BRANCH   8  27
HETATM   27  O2  UNL     1      23.648  15.435  62.638  1.00  0.00    -0.345 OA
ATOM     28  H2  UNL     1      23.258  14.953  61.918  1.00  0.00     0.219 HD
ENDBRANCH   8  27
BRANCH   1  29
HETATM   29  C1  UNL     1      29.804  18.341  62.904  1.00  0.00     0.264 C 
BRANCH  29  30
HETATM   30  N1  UNL     1      30.587  18.971  61.893  1.00  0.00    -0.077 N 
ATOM     31  H13 UNL     1      30.061  19.062  61.024  1.00  0.00     0.274 HD
ATOM     32  H12 UNL     1      30.730  19.959  62.103  1.00  0.00     0.274 HD
ATOM     33  H11 UNL     1      31.477  18.498  61.735  1.00  0.00     0.274 HD
ENDBRANCH  29  30
ENDBRANCH   1  29
TORSDOF 8
ENDMDL
MODEL 4
REMARK VINA RESULT: -7.017079318      1.518      3.894
REMARK  8 active torsions:
REMARK  status: ('A' for Active; 'I' for Inactive)
REMARK    1  A    between atoms: N1_1  and  C1_5 
REMARK    2  A    between atoms: C1_5  and  C2_6 
REMARK    3  A    between atoms: C3_9  and  O1_10 
REMARK    4  A    between atoms: C4_12  and  C5_13 
REMARK    5  A    between atoms: C5_13  and  C6_14 
REMARK    6  A    between atoms: C6_14  and  C7_15 
REMARK    7  A    between atoms: C7_15  and  N3_16 
REMARK    8  A    between atoms: C9_23  and  O2_24 
ROOT
HETATM    1  C2  UNL     1      29.439  19.030  63.596  1.00  0.00     0.201 C 
HETATM    2  N2  UNL     1      29.099  18.717  62.175  1.00  0.00    -0.358 N 
ATOM      3  H2  UNL     1      29.795  18.920  61.458  1.00  0.00     0.162 HD
HETATM    4  C3  UNL     1      27.853  18.149  61.763  1.00  0.00     0.135 C 
HETATM    5  C4  UNL     1      27.194  16.908  62.022  1.00  0.00     0.158 C 
HETATM    6  N6  UNL     1      25.957  16.755  62.719  1.00  0.00    -0.358 N 
ATOM      7  H6  UNL     1      25.779  15.760  62.850  1.00  0.00     0.162 HD
HETATM    8  C9  UNL     1      24.923  17.459  63.275  1.00  0.00     0.151 C 
HETATM    9  C10 UNL     1      24.584  18.261  64.441  1.00  0.00     0.140 C 
HETATM   10  N7  UNL     1      25.138  18.062  65.734  1.00  0.00    -0.379 N 
ATOM     11  H7  UNL     1      24.827  17.346  66.391  1.00  0.00     0.160 HD
HETATM   12  C11 UNL     1      26.255  19.055  66.011  1.00  0.00     0.245 C 
HETATM   13  N8  UNL     1      27.147  18.941  64.907  1.00  0.00    -0.343 N 
ATOM     14  H8  UNL     1      26.664  19.327  64.096  1.00  0.00     0.164 HD
HETATM   15  C12 UNL     1      28.357  18.541  64.484  1.00  0.00     0.243 C 
HETATM   16  O3  UNL     1      28.824  17.413  64.898  1.00  0.00    -0.271 OA
ENDROOT
BRANCH   5  17
HETATM   17  C5  UNL     1      27.109  16.044  60.743  1.00  0.00     0.035 C 
BRANCH  17  18
HETATM   18  C6  UNL     1      27.369  14.612  60.910  1.00  0.00     0.022 C 
BRANCH  18  19
HETATM   19  C7  UNL     1      26.154  13.789  60.417  1.00  0.00     0.122 C 
BRANCH  19  20
HETATM   20  N3  UNL     1      25.312  13.464  61.542  1.00  0.00    -0.367 N 
HETATM   21  C8  UNL     1      24.184  14.055  61.675  1.00  0.00     0.196 C 
HETATM   22  N4  UNL     1      23.377  13.716  62.788  1.00  0.00    -0.067 NA
HETATM   23  N5  UNL     1      23.747  15.025  60.734  1.00  0.00    -0.067 NA
ATOM     24  H3  UNL     1      25.612  12.769  62.225  1.00  0.00     0.161 HD
ENDBRANCH  19  20
ENDBRANCH  18  19
ENDBRANCH  17  18
ENDBRANCH   5  17
BRANCH   4  25
HETATM   25  O1  UNL     1      27.189  18.949  60.981  1.00  0.00    -0.348 OA
ATOM     26  H1  UNL     1      27.647  19.769  60.840  1.00  0.00     0.219 HD
ENDBRANCH   4  25
BRANCH   8  27
HETATM   27  O2  UNL     1      23.849  17.400  62.494  1.00  0.00    -0.345 OA
ATOM     28  H2  UNL     1      23.127  17.878  62.887  1.00  0.00     0.219 HD
ENDBRANCH   8  27
BRANCH   1  29
HETATM   29  C1  UNL     1      29.790  20.494  63.737  1.00  0.00     0.264 C 
BRANCH  29  30
HETATM   30  N1  UNL     1      29.478  21.247  62.568  1.00  0.00    -0.077 N 
ATOM     31  H13 UNL     1      30.201  21.941  62.375  1.00  0.00     0.274 HD
ATOM     32  H12 UNL     1      29.569  20.676  61.728  1.00  0.00     0.274 HD
ATOM     33  H11 UNL     1      28.557  21.682  62.616  1.00  0.00     0.274 HD
ENDBRANCH  29  30
ENDBRANCH   1  29
TORSDOF 8
ENDMDL
MODEL 5
REMARK VINA RESULT: -7.005438648      1.834      4.551
REMARK  8 active torsions:
REMARK  status: ('A' for Active; 'I' for Inactive)
REMARK    1  A    between atoms: N1_1  and  C1_5 
REMARK    2  A    between atoms: C1_5  and  C2_6 
REMARK    3  A    between atoms: C3_9  and  O1_10 
REMARK    4  A    between atoms: C4_12  and  C5_13 
REMARK    5  A    between atoms: C5_13  and  C6_14 
REMARK    6  A    between atoms: C6_14  and  C7_15 
REMARK    7  A    between atoms: C7_15  and  N3_16 
REMARK    8  A    between atoms: C9_23  and  O2_24 
ROOT
HETATM    1  C2  UNL     1      28.733  17.567  63.476  1.00  0.00     0.201 C 
HETATM    2  N2  UNL     1      27.829  17.728  62.297  1.00  0.00    -0.358 N 
ATOM      3  H2  UNL     1      28.247  17.712  61.366  1.00  0.00     0.162 HD
HETATM    4  C3  UNL     1      26.415  17.906  62.398  1.00  0.00     0.135 C 
HETATM    5  C4  UNL     1      25.347  17.098  62.898  1.00  0.00     0.158 C 
HETATM    6  N6  UNL     1      24.520  17.417  64.018  1.00  0.00    -0.358 N 
ATOM      7  H6  UNL     1      23.916  16.618  64.213  1.00  0.00     0.162 HD
HETATM    8  C9  UNL     1      24.242  18.403  64.924  1.00  0.00     0.151 C 
HETATM    9  C10 UNL     1      24.770  19.031  66.126  1.00  0.00     0.140 C 
HETATM   10  N7  UNL     1      25.540  18.351  67.109  1.00  0.00    -0.379 N 
ATOM     11  H7  UNL     1      25.148  17.757  67.838  1.00  0.00     0.160 HD
HETATM   12  C11 UNL     1      27.024  18.627  66.929  1.00  0.00     0.245 C 
HETATM   13  N8  UNL     1      27.306  18.320  65.568  1.00  0.00    -0.343 N 
ATOM     14  H8  UNL     1      26.848  19.035  65.003  1.00  0.00     0.164 HD
HETATM   15  C12 UNL     1      27.922  17.485  64.715  1.00  0.00     0.243 C 
HETATM   16  O3  UNL     1      27.856  16.216  64.924  1.00  0.00    -0.271 OA
ENDROOT
BRANCH   5  17
HETATM   17  C5  UNL     1      24.413  16.639  61.754  1.00  0.00     0.035 C 
BRANCH  17  18
HETATM   18  C6  UNL     1      23.791  15.323  61.916  1.00  0.00     0.022 C 
BRANCH  18  19
HETATM   19  C7  UNL     1      24.880  14.232  62.063  1.00  0.00     0.122 C 
BRANCH  19  20
HETATM   20  N3  UNL     1      25.629  14.140  60.834  1.00  0.00    -0.367 N 
HETATM   21  C8  UNL     1      26.907  14.222  60.869  1.00  0.00     0.196 C 
HETATM   22  N4  UNL     1      27.618  14.127  59.649  1.00  0.00    -0.067 NA
HETATM   23  N5  UNL     1      27.598  14.401  62.097  1.00  0.00    -0.067 NA
ATOM     24  H3  UNL     1      25.146  14.010  59.945  1.00  0.00     0.161 HD
ENDBRANCH  19  20
ENDBRANCH  18  19
ENDBRANCH  17  18
ENDBRANCH   5  17
BRANCH   4  25
HETATM   25  O1  UNL     1      26.034  19.056  61.928  1.00  0.00    -0.348 OA
ATOM     26  H1  UNL     1      26.582  19.767  62.239  1.00  0.00     0.219 HD
ENDBRANCH   4  25
BRANCH   8  27
HETATM   27  O2  UNL     1      23.099  19.008  64.617  1.00  0.00    -0.345 OA
ATOM     28  H2  UNL     1      23.223  19.950  64.576  1.00  0.00     0.219 HD
ENDBRANCH   8  27
BRANCH   1  29
HETATM   29  C1  UNL     1      29.803  18.635  63.464  1.00  0.00     0.264 C 
BRANCH  29  30
HETATM   30  N1  UNL     1      29.885  19.313  62.213  1.00  0.00    -0.077 N 
ATOM     31  H13 UNL     1      30.245  18.696  61.484  1.00  0.00     0.274 HD
ATOM     32  H12 UNL     1      28.957  19.494  61.832  1.00  0.00     0.274 HD
ATOM     33  H11 UNL     1      30.433  20.172  62.268  1.00  0.00     0.274 HD
ENDBRANCH  29  30
ENDBRANCH   1  29
TORSDOF 8
ENDMDL
