MODEL 1
REMARK VINA RESULT: -7.088827355      0.000      0.000
REMARK  9 active torsions:
REMARK  status: ('A' for Active; 'I' for Inactive)
REMARK    1  A    between atoms: C3_5  and  N2_6 
REMARK    2  A    between atoms: N2_6  and  C4_8 
REMARK    3  A    between atoms: C4_8  and  C5_9 
REMARK    4  A    between atoms: C5_9  and  C6_10 
REMARK    5  A    between atoms: C6_10  and  N3_11 
REMARK    6  A    between atoms: N3_11  and  C7_13 
REMARK    7  A    between atoms: C7_13  and  C8_14 
REMARK    8  A    between atoms: C8_14  and  O1_15 
REMARK    9  A    between atoms: C8_14  and  C9_17 
ROOT
HETATM    1  C5  UNL     1      23.772  14.960  62.289  1.00  0.00     0.039 C 
ENDROOT
BRANCH   1   2
HETATM    2  C4  UNL     1      23.793  16.435  62.487  1.00  0.00     0.139 C 
BRANCH   2   3
HETATM    3  N2  UNL     1      24.823  16.935  63.327  1.00  0.00    -0.226 N 
ATOM      4  H2  UNL     1      25.718  16.448  63.286  1.00  0.00     0.177 HD
BRANCH   3   5
HETATM    5  C3  UNL     1      24.754  17.931  64.129  1.00  0.00     0.679 A 
HETATM    6  N1  UNL     1      24.146  17.737  65.345  1.00  0.00    -0.189 N 
HETATM    7  C2  UNL     1      24.033  18.720  66.244  1.00  0.00     0.092 A 
ATOM      8  H1  UNL     1      23.770  16.816  65.568  1.00  0.00     0.184 HD
HETATM    9  C1  UNL     1      23.447  18.537  67.421  1.00  0.00     0.048 C 
HETATM   10  C17 UNL     1      24.543  19.960  65.938  1.00  0.00     0.224 A 
HETATM   11  C15 UNL     1      25.159  20.196  64.735  1.00  0.00     0.092 A 
HETATM   12  O2  UNL     1      24.461  20.920  66.756  1.00  0.00    -0.284 OA
HETATM   13  N5  UNL     1      25.241  19.147  63.858  1.00  0.00    -0.189 N 
HETATM   14  C16 UNL     1      25.665  21.360  64.395  1.00  0.00     0.048 C 
ATOM     15  H5  UNL     1      25.694  19.300  62.957  1.00  0.00     0.184 HD
ENDBRANCH   3   5
ENDBRANCH   2   3
ENDBRANCH   1   2
BRANCH   1  16
HETATM   16  C6  UNL     1      25.067  14.324  61.896  1.00  0.00     0.115 C 
BRANCH  16  17
HETATM   17  N3  UNL     1      25.255  14.399  60.487  1.00  0.00    -0.418 N 
ATOM     18  H3  UNL     1      24.465  14.342  59.843  1.00  0.00     0.153 HD
BRANCH  17  19
HETATM   19  C7  UNL     1      26.586  14.557  60.010  1.00  0.00     0.151 C 
BRANCH  19  20
HETATM   20  C8  UNL     1      26.868  15.998  59.602  1.00  0.00     0.180 C 
BRANCH  20  21
HETATM   21  O1  UNL     1      25.645  16.706  59.568  1.00  0.00    -0.388 OA
ATOM     22  H1  UNL     1      25.817  17.598  59.287  1.00  0.00     0.210 HD
ENDBRANCH  20  21
BRANCH  20  23
HETATM   23  C9  UNL     1      27.737  16.650  60.656  1.00  0.00     0.013 C 
HETATM   24  N4  UNL     1      28.550  16.097  61.447  1.00  0.00    -0.386 N 
HETATM   25  C10 UNL     1      29.200  17.064  62.317  1.00  0.00     0.023 C 
ATOM     26  H4  UNL     1      28.730  15.093  61.472  1.00  0.00     0.160 HD
HETATM   27  C11 UNL     1      30.623  16.674  62.540  1.00  0.00     0.038 C 
HETATM   28  C12 UNL     1      28.456  17.266  63.599  1.00  0.00     0.038 C 
HETATM   29  C13 UNL     1      29.068  18.370  61.519  1.00  0.00     0.036 C 
HETATM   30  C14 UNL     1      27.716  18.123  60.893  1.00  0.00     0.057 C 
ENDBRANCH  20  23
ENDBRANCH  19  20
ENDBRANCH  17  19
ENDBRANCH  16  17
ENDBRANCH   1  16
TORSDOF 9
ENDMDL
MODEL 2
REMARK VINA RESULT: -7.069324751      0.111      1.666
REMARK  9 active torsions:
REMARK  status: ('A' for Active; 'I' for Inactive)
REMARK    1  A    between atoms: C3_5  and  N2_6 
REMARK    2  A    between atoms: N2_6  and  C4_8 
REMARK    3  A    between atoms: C4_8  and  C5_9 
REMARK    4  A    between atoms: C5_9  and  C6_10 
REMARK    5  A    between atoms: C6_10  and  N3_11 
REMARK    6  A    between atoms: N3_11  and  C7_13 
REMARK    7  A    between atoms: C7_13  and  C8_14 
REMARK    8  A    between atoms: C8_14  and  O1_15 
REMARK    9  A    between atoms: C8_14  and  C9_17 
ROOT
HETATM    1  C5  UNL     1      23.800  14.992  62.306  1.00  0.00     0.039 C 
ENDROOT
BRANCH   1   2
HETATM    2  C4  UNL     1      23.800  16.472  62.465  1.00  0.00     0.139 C 
BRANCH   2   3
HETATM    3  N2  UNL     1      24.844  17.011  63.264  1.00  0.00    -0.226 N 
ATOM      4  H2  UNL     1      25.774  16.617  63.121  1.00  0.00     0.177 HD
BRANCH   3   5
HETATM    5  C3  UNL     1      24.748  17.936  64.144  1.00  0.00     0.679 A 
HETATM    6  N1  UNL     1      25.300  19.160  63.856  1.00  0.00    -0.189 N 
HETATM    7  C2  UNL     1      25.242  20.183  64.714  1.00  0.00     0.092 A 
ATOM      8  H1  UNL     1      25.768  19.292  62.959  1.00  0.00     0.184 HD
HETATM    9  C1  UNL     1      25.773  21.368  64.439  1.00  0.00     0.048 C 
HETATM   10  C17 UNL     1      24.609  20.000  65.921  1.00  0.00     0.224 A 
HETATM   11  C15 UNL     1      24.042  18.793  66.249  1.00  0.00     0.092 A 
HETATM   12  O2  UNL     1      24.527  20.937  66.766  1.00  0.00    -0.284 OA
HETATM   13  N5  UNL     1      24.138  17.786  65.325  1.00  0.00    -0.189 N 
HETATM   14  C16 UNL     1      23.425  18.567  67.387  1.00  0.00     0.048 C 
ATOM     15  H5  UNL     1      23.725  16.880  65.548  1.00  0.00     0.184 HD
ENDBRANCH   3   5
ENDBRANCH   2   3
ENDBRANCH   1   2
BRANCH   1  16
HETATM   16  C6  UNL     1      25.086  14.372  61.862  1.00  0.00     0.115 C 
BRANCH  16  17
HETATM   17  N3  UNL     1      25.236  14.482  60.451  1.00  0.00    -0.418 N 
ATOM     18  H3  UNL     1      24.430  14.429  59.827  1.00  0.00     0.153 HD
BRANCH  17  19
HETATM   19  C7  UNL     1      26.552  14.670  59.943  1.00  0.00     0.151 C 
BRANCH  19  20
HETATM   20  C8  UNL     1      26.800  16.123  59.554  1.00  0.00     0.180 C 
BRANCH  20  21
HETATM   21  O1  UNL     1      25.566  16.812  59.569  1.00  0.00    -0.388 OA
ATOM     22  H1  UNL     1      25.099  16.583  60.364  1.00  0.00     0.210 HD
ENDBRANCH  20  21
BRANCH  20  23
HETATM   23  C9  UNL     1      27.690  16.769  60.594  1.00  0.00     0.013 C 
HETATM   24  N4  UNL     1      28.539  16.215  61.345  1.00  0.00    -0.386 N 
HETATM   25  C10 UNL     1      29.198  17.177  62.214  1.00  0.00     0.023 C 
ATOM     26  H4  UNL     1      28.740  15.215  61.342  1.00  0.00     0.160 HD
HETATM   27  C11 UNL     1      30.635  16.811  62.382  1.00  0.00     0.038 C 
HETATM   28  C12 UNL     1      28.494  17.336  63.525  1.00  0.00     0.038 C 
HETATM   29  C13 UNL     1      29.014  18.497  61.451  1.00  0.00     0.036 C 
HETATM   30  C14 UNL     1      27.648  18.235  60.864  1.00  0.00     0.057 C 
ENDBRANCH  20  23
ENDBRANCH  19  20
ENDBRANCH  17  19
ENDBRANCH  16  17
ENDBRANCH   1  16
TORSDOF 9
ENDMDL
MODEL 3
REMARK VINA RESULT: -6.946664494      2.209      5.946
REMARK  9 active torsions:
REMARK  status: ('A' for Active; 'I' for Inactive)
REMARK    1  A    between atoms: C3_5  and  N2_6 
REMARK    2  A    between atoms: N2_6  and  C4_8 
REMARK    3  A    between atoms: C4_8  and  C5_9 
REMARK    4  A    between atoms: C5_9  and  C6_10 
REMARK    5  A    between atoms: C6_10  and  N3_11 
REMARK    6  A    between atoms: N3_11  and  C7_13 
REMARK    7  A    between atoms: C7_13  and  C8_14 
REMARK    8  A    between atoms: C8_14  and  O1_15 
REMARK    9  A    between atoms: C8_14  and  C9_17 
ROOT
HETATM    1  C5  UNL     1      23.811  19.846  65.435  1.00  0.00     0.039 C 
ENDROOT
BRANCH   1   2
HETATM    2  C4  UNL     1      23.883  18.394  65.113  1.00  0.00     0.139 C 
BRANCH   2   3
HETATM    3  N2  UNL     1      23.477  18.026  63.802  1.00  0.00    -0.226 N 
ATOM      4  H2  UNL     1      22.646  18.491  63.438  1.00  0.00     0.177 HD
BRANCH   3   5
HETATM    5  C3  UNL     1      24.040  17.176  63.027  1.00  0.00     0.679 A 
HETATM    6  N1  UNL     1      23.546  15.896  63.009  1.00  0.00    -0.189 N 
HETATM    7  C2  UNL     1      24.070  14.945  62.227  1.00  0.00     0.092 A 
ATOM      8  H1  UNL     1      22.755  15.662  63.609  1.00  0.00     0.184 HD
HETATM    9  C1  UNL     1      23.594  13.706  62.205  1.00  0.00     0.048 C 
HETATM   10  C17 UNL     1      25.135  15.266  61.419  1.00  0.00     0.224 A 
HETATM   11  C15 UNL     1      25.660  16.534  61.406  1.00  0.00     0.092 A 
HETATM   12  O2  UNL     1      25.664  14.402  60.662  1.00  0.00    -0.284 OA
HETATM   13  N5  UNL     1      25.077  17.460  62.231  1.00  0.00    -0.189 N 
HETATM   14  C16 UNL     1      26.674  16.892  60.652  1.00  0.00     0.048 C 
ATOM     15  H5  UNL     1      25.451  18.409  62.239  1.00  0.00     0.184 HD
ENDBRANCH   3   5
ENDBRANCH   2   3
ENDBRANCH   1   2
BRANCH   1  16
HETATM   16  C6  UNL     1      24.355  20.258  66.765  1.00  0.00     0.115 C 
BRANCH  16  17
HETATM   17  N3  UNL     1      25.733  20.600  66.660  1.00  0.00    -0.418 N 
ATOM     18  H3  UNL     1      26.461  19.887  66.711  1.00  0.00     0.153 HD
BRANCH  17  19
HETATM   19  C7  UNL     1      26.056  21.974  66.481  1.00  0.00     0.151 C 
BRANCH  19  20
HETATM   20  C8  UNL     1      26.319  22.302  65.016  1.00  0.00     0.180 C 
BRANCH  20  21
HETATM   21  O1  UNL     1      26.832  23.615  64.931  1.00  0.00    -0.388 OA
ATOM     22  H1  UNL     1      27.534  23.627  64.289  1.00  0.00     0.210 HD
ENDBRANCH  20  21
BRANCH  20  23
HETATM   23  C9  UNL     1      27.382  21.366  64.482  1.00  0.00     0.013 C 
HETATM   24  N4  UNL     1      28.634  21.450  64.619  1.00  0.00    -0.386 N 
HETATM   25  C10 UNL     1      29.323  20.355  63.957  1.00  0.00     0.023 C 
ATOM     26  H4  UNL     1      29.104  22.196  65.131  1.00  0.00     0.160 HD
HETATM   27  C11 UNL     1      30.502  19.929  64.768  1.00  0.00     0.038 C 
HETATM   28  C12 UNL     1      29.693  20.684  62.545  1.00  0.00     0.038 C 
HETATM   29  C13 UNL     1      28.237  19.271  63.887  1.00  0.00     0.036 C 
HETATM   30  C14 UNL     1      27.036  20.161  63.674  1.00  0.00     0.057 C 
ENDBRANCH  20  23
ENDBRANCH  19  20
ENDBRANCH  17  19
ENDBRANCH  16  17
ENDBRANCH   1  16
TORSDOF 9
ENDMDL
MODEL 4
REMARK VINA RESULT: -6.868951970      0.742      2.075
REMARK  9 active torsions:
REMARK  status: ('A' for Active; 'I' for Inactive)
REMARK    1  A    between atoms: C3_5  and  N2_6 
REMARK    2  A    between atoms: N2_6  and  C4_8 
REMARK    3  A    between atoms: C4_8  and  C5_9 
REMARK    4  A    between atoms: C5_9  and  C6_10 
REMARK    5  A    between atoms: C6_10  and  N3_11 
REMARK    6  A    between atoms: N3_11  and  C7_13 
REMARK    7  A    between atoms: C7_13  and  C8_14 
REMARK    8  A    between atoms: C8_14  and  O1_15 
REMARK    9  A    between atoms: C8_14  and  C9_17 
ROOT
HETATM    1  C5  UNL     1      23.749  15.371  62.166  1.00  0.00     0.039 C 
ENDROOT
BRANCH   1   2
HETATM    2  C4  UNL     1      24.187  16.769  62.429  1.00  0.00     0.139 C 
BRANCH   2   3
HETATM    3  N2  UNL     1      24.890  16.982  63.644  1.00  0.00    -0.226 N 
ATOM      4  H2  UNL     1      25.580  16.276  63.899  1.00  0.00     0.177 HD
BRANCH   3   5
HETATM    5  C3  UNL     1      24.755  17.964  64.456  1.00  0.00     0.679 A 
HETATM    6  N1  UNL     1      25.238  19.189  64.070  1.00  0.00    -0.189 N 
HETATM    7  C2  UNL     1      25.137  20.269  64.852  1.00  0.00     0.092 A 
ATOM      8  H1  UNL     1      25.688  19.279  63.159  1.00  0.00     0.184 HD
HETATM    9  C1  UNL     1      25.601  21.456  64.483  1.00  0.00     0.048 C 
HETATM   10  C17 UNL     1      24.528  20.143  66.079  1.00  0.00     0.224 A 
HETATM   11  C15 UNL     1      24.030  18.936  66.503  1.00  0.00     0.092 A 
HETATM   12  O2  UNL     1      24.408  21.134  66.854  1.00  0.00    -0.284 OA
HETATM   13  N5  UNL     1      24.168  17.870  65.654  1.00  0.00    -0.189 N 
HETATM   14  C16 UNL     1      23.439  18.762  67.664  1.00  0.00     0.048 C 
ATOM     15  H5  UNL     1      23.807  16.963  65.949  1.00  0.00     0.184 HD
ENDBRANCH   3   5
ENDBRANCH   2   3
ENDBRANCH   1   2
BRANCH   1  16
HETATM   16  C6  UNL     1      24.825  14.395  61.808  1.00  0.00     0.115 C 
BRANCH  16  17
HETATM   17  N3  UNL     1      25.193  14.533  60.440  1.00  0.00    -0.418 N 
ATOM     18  H3  UNL     1      24.488  14.573  59.704  1.00  0.00     0.153 HD
BRANCH  17  19
HETATM   19  C7  UNL     1      26.581  14.613  60.139  1.00  0.00     0.151 C 
BRANCH  19  20
HETATM   20  C8  UNL     1      26.974  16.011  59.677  1.00  0.00     0.180 C 
BRANCH  20  21
HETATM   21  O1  UNL     1      25.797  16.752  59.426  1.00  0.00    -0.388 OA
ATOM     22  H1  UNL     1      25.104  16.421  59.986  1.00  0.00     0.210 HD
ENDBRANCH  20  21
BRANCH  20  23
HETATM   23  C9  UNL     1      27.719  16.711  60.793  1.00  0.00     0.013 C 
HETATM   24  N4  UNL     1      28.083  17.918  60.850  1.00  0.00    -0.386 N 
HETATM   25  C10 UNL     1      28.777  18.214  62.092  1.00  0.00     0.023 C 
ATOM     26  H4  UNL     1      27.911  18.603  60.113  1.00  0.00     0.160 HD
HETATM   27  C11 UNL     1      28.419  19.584  62.563  1.00  0.00     0.038 C 
HETATM   28  C12 UNL     1      30.257  18.020  61.979  1.00  0.00     0.038 C 
HETATM   29  C13 UNL     1      28.259  17.116  63.034  1.00  0.00     0.036 C 
HETATM   30  C14 UNL     1      28.136  15.993  62.032  1.00  0.00     0.057 C 
ENDBRANCH  20  23
ENDBRANCH  19  20
ENDBRANCH  17  19
ENDBRANCH  16  17
ENDBRANCH   1  16
TORSDOF 9
ENDMDL
MODEL 5
REMARK VINA RESULT: -6.807270276      2.592      4.974
REMARK  9 active torsions:
REMARK  status: ('A' for Active; 'I' for Inactive)
REMARK    1  A    between atoms: C3_5  and  N2_6 
REMARK    2  A    between atoms: N2_6  and  C4_8 
REMARK    3  A    between atoms: C4_8  and  C5_9 
REMARK    4  A    between atoms: C5_9  and  C6_10 
REMARK    5  A    between atoms: C6_10  and  N3_11 
REMARK    6  A    between atoms: N3_11  and  C7_13 
REMARK    7  A    between atoms: C7_13  and  C8_14 
REMARK    8  A    between atoms: C8_14  and  O1_15 
REMARK    9  A    between atoms: C8_14  and  C9_17 
ROOT
HETATM    1  C5  UNL     1      25.338  17.835  63.961  1.00  0.00     0.039 C 
ENDROOT
BRANCH   1   2
HETATM    2  C4  UNL     1      25.989  18.567  65.083  1.00  0.00     0.139 C 
BRANCH   2   3
HETATM    3  N2  UNL     1      27.388  18.365  65.228  1.00  0.00    -0.226 N 
ATOM      4  H2  UNL     1      27.718  18.141  66.166  1.00  0.00     0.177 HD
BRANCH   3   5
HETATM    5  C3  UNL     1      28.280  18.433  64.312  1.00  0.00     0.679 A 
HETATM    6  N1  UNL     1      28.519  19.656  63.736  1.00  0.00    -0.189 N 
HETATM    7  C2  UNL     1      29.435  19.820  62.775  1.00  0.00     0.092 A 
ATOM      8  H1  UNL     1      27.982  20.464  64.050  1.00  0.00     0.184 HD
HETATM    9  C1  UNL     1      29.670  21.000  62.216  1.00  0.00     0.048 C 
HETATM   10  C17 UNL     1      30.157  18.727  62.355  1.00  0.00     0.224 A 
HETATM   11  C15 UNL     1      29.950  17.486  62.906  1.00  0.00     0.092 A 
HETATM   12  O2  UNL     1      31.034  18.831  61.451  1.00  0.00    -0.284 OA
HETATM   13  N5  UNL     1      28.997  17.388  63.885  1.00  0.00    -0.189 N 
HETATM   14  C16 UNL     1      30.614  16.412  62.543  1.00  0.00     0.048 C 
ATOM     15  H5  UNL     1      28.826  16.475  64.307  1.00  0.00     0.184 HD
ENDBRANCH   3   5
ENDBRANCH   2   3
ENDBRANCH   1   2
BRANCH   1  16
HETATM   16  C6  UNL     1      23.844  17.785  63.981  1.00  0.00     0.115 C 
BRANCH  16  17
HETATM   17  N3  UNL     1      23.374  16.574  63.398  1.00  0.00    -0.418 N 
ATOM     18  H3  UNL     1      23.021  15.811  63.975  1.00  0.00     0.153 HD
BRANCH  17  19
HETATM   19  C7  UNL     1      23.417  16.469  61.980  1.00  0.00     0.151 C 
BRANCH  19  20
HETATM   20  C8  UNL     1      24.238  15.266  61.532  1.00  0.00     0.180 C 
BRANCH  20  21
HETATM   21  O1  UNL     1      23.458  14.490  60.645  1.00  0.00    -0.388 OA
ATOM     22  H1  UNL     1      23.836  13.620  60.588  1.00  0.00     0.210 HD
ENDBRANCH  20  21
BRANCH  20  23
HETATM   23  C9  UNL     1      25.448  15.751  60.762  1.00  0.00     0.013 C 
HETATM   24  N4  UNL     1      25.721  16.929  60.402  1.00  0.00    -0.386 N 
HETATM   25  C10 UNL     1      26.981  16.993  59.677  1.00  0.00     0.023 C 
ATOM     26  H4  UNL     1      25.130  17.737  60.595  1.00  0.00     0.160 HD
HETATM   27  C11 UNL     1      27.708  18.247  60.029  1.00  0.00     0.038 C 
HETATM   28  C12 UNL     1      26.797  16.836  58.201  1.00  0.00     0.038 C 
HETATM   29  C13 UNL     1      27.711  15.734  60.168  1.00  0.00     0.036 C 
HETATM   30  C14 UNL     1      26.520  14.817  60.311  1.00  0.00     0.057 C 
ENDBRANCH  20  23
ENDBRANCH  19  20
ENDBRANCH  17  19
ENDBRANCH  16  17
ENDBRANCH   1  16
TORSDOF 9
ENDMDL
