MODEL 1
REMARK VINA RESULT: -6.736367125      0.000      0.000
REMARK  9 active torsions:
REMARK  status: ('A' for Active; 'I' for Inactive)
REMARK       I    between atoms: C1_2  and  N1_3 
REMARK    1  A    between atoms: C1_2  and  C12_23 
REMARK    2  A    between atoms: N1_3  and  C2_5 
REMARK    3  A    between atoms: C2_5  and  C3_6 
REMARK    4  A    between atoms: C3_6  and  N2_7 
REMARK    5  A    between atoms: N3_10  and  C6_11 
REMARK    6  A    between atoms: C6_11  and  O2_12 
REMARK    7  A    between atoms: C9_16  and  C10_17 
REMARK    8  A    between atoms: C10_17  and  O3_18 
REMARK    9  A    between atoms: C11_20  and  O4_21 
ROOT
HETATM    1  N2  UNL     1      27.513  17.557  62.435  1.00  0.00    -0.034 N 
HETATM    2  C4  UNL     1      27.928  16.293  62.990  1.00  0.00     0.268 C 
HETATM    3  C5  UNL     1      27.225  15.211  62.183  1.00  0.00     0.268 C 
HETATM    4  N3  UNL     1      25.979  15.741  61.605  1.00  0.00    -0.033 N 
HETATM    5  C7  UNL     1      26.382  16.564  60.503  1.00  0.00     0.268 C 
HETATM    6  C8  UNL     1      27.569  17.376  60.973  1.00  0.00     0.268 C 
HETATM    7  C9  UNL     1      25.315  16.517  62.631  1.00  0.00     0.272 C 
HETATM    8  C11 UNL     1      26.138  17.765  62.864  1.00  0.00     0.357 C 
ENDROOT
BRANCH   1   9
HETATM    9  C3  UNL     1      28.332  18.677  62.718  1.00  0.00     0.260 C 
BRANCH   9  10
HETATM   10  C2  UNL     1      29.617  18.802  61.993  1.00  0.00     0.150 C 
BRANCH  10  11
HETATM   11  N1  UNL     1      30.799  18.429  62.730  1.00  0.00    -0.359 N 
HETATM   12  C1  UNL     1      31.517  17.240  62.421  1.00  0.00     0.230 C 
HETATM   13  O1  UNL     1      31.170  16.458  61.503  1.00  0.00    -0.272 OA
ATOM     14  H1  UNL     1      31.127  19.029  63.487  1.00  0.00     0.162 HD
BRANCH  12  15
HETATM   15  C12 UNL     1      32.723  16.908  63.213  1.00  0.00     0.138 C 
HETATM   16  C13 UNL     1      32.653  17.709  64.492  1.00  0.00    -0.010 C 
HETATM   17  C14 UNL     1      33.763  17.880  65.205  1.00  0.00    -0.010 C 
HETATM   18  C15 UNL     1      35.008  17.259  64.676  1.00  0.00     0.146 C 
HETATM   19  N4  UNL     1      35.021  17.468  63.236  1.00  0.00    -0.398 N 
HETATM   20  C16 UNL     1      33.964  17.309  62.534  1.00  0.00     0.073 C 
ATOM     21  H4  UNL     1      35.889  17.746  62.778  1.00  0.00     0.158 HD
ENDBRANCH  12  15
ENDBRANCH  10  11
ENDBRANCH   9  10
ENDBRANCH   1   9
BRANCH   8  22
HETATM   22  O4  UNL     1      25.580  18.899  62.326  1.00  0.00    -0.368 OA
ATOM     23  H4  UNL     1      24.633  18.850  62.267  1.00  0.00     0.212 HD
ENDBRANCH   8  22
BRANCH   7  24
HETATM   24  C10 UNL     1      23.870  16.753  62.425  1.00  0.00     0.202 C 
BRANCH  24  25
HETATM   25  O3  UNL     1      23.154  17.236  63.493  1.00  0.00    -0.399 OA
ATOM     26  H3  UNL     1      22.398  17.778  63.300  1.00  0.00     0.209 HD
ENDBRANCH  24  25
ENDBRANCH   7  24
BRANCH   4  27
HETATM   27  C6  UNL     1      25.199  14.595  61.229  1.00  0.00     0.402 C 
BRANCH  27  28
HETATM   28  O2  UNL     1      25.558  14.152  59.963  1.00  0.00    -0.374 OA
ATOM     29  H2  UNL     1      26.503  14.131  59.870  1.00  0.00     0.211 HD
ENDBRANCH  27  28
ENDBRANCH   4  27
TORSDOF 9
ENDMDL
MODEL 2
REMARK VINA RESULT: -6.648252400      1.249      1.573
REMARK  9 active torsions:
REMARK  status: ('A' for Active; 'I' for Inactive)
REMARK       I    between atoms: C1_2  and  N1_3 
REMARK    1  A    between atoms: C1_2  and  C12_23 
REMARK    2  A    between atoms: N1_3  and  C2_5 
REMARK    3  A    between atoms: C2_5  and  C3_6 
REMARK    4  A    between atoms: C3_6  and  N2_7 
REMARK    5  A    between atoms: N3_10  and  C6_11 
REMARK    6  A    between atoms: C6_11  and  O2_12 
REMARK    7  A    between atoms: C9_16  and  C10_17 
REMARK    8  A    between atoms: C10_17  and  O3_18 
REMARK    9  A    between atoms: C11_20  and  O4_21 
ROOT
HETATM    1  N2  UNL     1      26.963  16.844  62.167  1.00  0.00    -0.034 N 
HETATM    2  C4  UNL     1      27.130  15.554  62.788  1.00  0.00     0.268 C 
HETATM    3  C5  UNL     1      26.010  14.668  62.260  1.00  0.00     0.268 C 
HETATM    4  N3  UNL     1      24.861  15.494  61.858  1.00  0.00    -0.033 N 
HETATM    5  C7  UNL     1      25.230  16.091  60.609  1.00  0.00     0.268 C 
HETATM    6  C8  UNL     1      26.662  16.558  60.752  1.00  0.00     0.268 C 
HETATM    7  C9  UNL     1      24.658  16.494  62.884  1.00  0.00     0.272 C 
HETATM    8  C11 UNL     1      25.815  17.465  62.810  1.00  0.00     0.357 C 
ENDROOT
BRANCH   1   9
HETATM    9  C3  UNL     1      28.093  17.698  62.158  1.00  0.00     0.260 C 
BRANCH   9  10
HETATM   10  C2  UNL     1      28.595  18.203  63.456  1.00  0.00     0.150 C 
BRANCH  10  11
HETATM   11  N1  UNL     1      30.019  18.414  63.546  1.00  0.00    -0.359 N 
HETATM   12  C1  UNL     1      30.894  17.374  63.964  1.00  0.00     0.230 C 
HETATM   13  O1  UNL     1      30.486  16.228  64.274  1.00  0.00    -0.272 OA
ATOM     14  H1  UNL     1      30.405  19.327  63.305  1.00  0.00     0.162 HD
BRANCH  12  15
HETATM   15  C12 UNL     1      32.347  17.649  64.039  1.00  0.00     0.138 C 
HETATM   16  C13 UNL     1      32.949  17.240  62.714  1.00  0.00    -0.010 C 
HETATM   17  C14 UNL     1      34.261  17.039  62.638  1.00  0.00    -0.010 C 
HETATM   18  C15 UNL     1      35.048  17.237  63.887  1.00  0.00     0.146 C 
HETATM   19  N4  UNL     1      34.279  16.663  64.981  1.00  0.00    -0.398 N 
HETATM   20  C16 UNL     1      33.016  16.844  65.071  1.00  0.00     0.073 C 
ATOM     21  H4  UNL     1      34.756  16.106  65.690  1.00  0.00     0.158 HD
ENDBRANCH  12  15
ENDBRANCH  10  11
ENDBRANCH   9  10
ENDBRANCH   1   9
BRANCH   8  22
HETATM   22  O4  UNL     1      25.482  18.674  62.248  1.00  0.00    -0.368 OA
ATOM     23  H4  UNL     1      25.008  19.239  62.847  1.00  0.00     0.212 HD
ENDBRANCH   8  22
BRANCH   7  24
HETATM   24  C10 UNL     1      23.319  17.121  62.918  1.00  0.00     0.202 C 
BRANCH  24  25
HETATM   25  O3  UNL     1      22.677  17.168  64.130  1.00  0.00    -0.399 OA
ATOM     26  H3  UNL     1      21.924  17.742  64.202  1.00  0.00     0.209 HD
ENDBRANCH  24  25
ENDBRANCH   7  24
BRANCH   4  27
HETATM   27  C6  UNL     1      23.741  14.597  61.773  1.00  0.00     0.402 C 
BRANCH  27  28
HETATM   28  O2  UNL     1      23.472  14.274  60.449  1.00  0.00    -0.374 OA
ATOM     29  H2  UNL     1      22.862  13.548  60.399  1.00  0.00     0.211 HD
ENDBRANCH  27  28
ENDBRANCH   4  27
TORSDOF 9
ENDMDL
MODEL 3
REMARK VINA RESULT: -6.637208502      2.925      4.750
REMARK  9 active torsions:
REMARK  status: ('A' for Active; 'I' for Inactive)
REMARK       I    between atoms: C1_2  and  N1_3 
REMARK    1  A    between atoms: C1_2  and  C12_23 
REMARK    2  A    between atoms: N1_3  and  C2_5 
REMARK    3  A    between atoms: C2_5  and  C3_6 
REMARK    4  A    between atoms: C3_6  and  N2_7 
REMARK    5  A    between atoms: N3_10  and  C6_11 
REMARK    6  A    between atoms: C6_11  and  O2_12 
REMARK    7  A    between atoms: C9_16  and  C10_17 
REMARK    8  A    between atoms: C10_17  and  O3_18 
REMARK    9  A    between atoms: C11_20  and  O4_21 
ROOT
HETATM    1  N2  UNL     1      27.899  17.504  61.602  1.00  0.00    -0.034 N 
HETATM    2  C4  UNL     1      28.486  16.254  62.014  1.00  0.00     0.268 C 
HETATM    3  C5  UNL     1      27.545  15.154  61.541  1.00  0.00     0.268 C 
HETATM    4  N3  UNL     1      26.175  15.677  61.423  1.00  0.00    -0.033 N 
HETATM    5  C7  UNL     1      26.162  16.463  60.224  1.00  0.00     0.268 C 
HETATM    6  C8  UNL     1      27.436  17.278  60.220  1.00  0.00     0.268 C 
HETATM    7  C9  UNL     1      25.913  16.490  62.592  1.00  0.00     0.272 C 
HETATM    8  C11 UNL     1      26.763  17.736  62.482  1.00  0.00     0.357 C 
ENDROOT
BRANCH   1   9
HETATM    9  C3  UNL     1      28.763  18.625  61.544  1.00  0.00     0.260 C 
BRANCH   9  10
HETATM   10  C2  UNL     1      29.603  18.919  62.727  1.00  0.00     0.150 C 
BRANCH  10  11
HETATM   11  N1  UNL     1      28.908  19.420  63.888  1.00  0.00    -0.359 N 
HETATM   12  C1  UNL     1      28.530  20.787  63.989  1.00  0.00     0.230 C 
HETATM   13  O1  UNL     1      28.774  21.626  63.088  1.00  0.00    -0.272 OA
ATOM     14  H1  UNL     1      28.684  18.780  64.651  1.00  0.00     0.162 HD
BRANCH  12  15
HETATM   15  C12 UNL     1      27.820  21.244  65.206  1.00  0.00     0.138 C 
HETATM   16  C13 UNL     1      26.747  20.224  65.507  1.00  0.00    -0.010 C 
HETATM   17  C14 UNL     1      25.744  20.564  66.311  1.00  0.00    -0.010 C 
HETATM   18  C15 UNL     1      25.758  21.947  66.861  1.00  0.00     0.146 C 
HETATM   19  N4  UNL     1      26.173  22.838  65.787  1.00  0.00    -0.398 N 
HETATM   20  C16 UNL     1      27.134  22.528  65.003  1.00  0.00     0.073 C 
ATOM     21  H4  UNL     1      25.688  23.725  65.658  1.00  0.00     0.158 HD
ENDBRANCH  12  15
ENDBRANCH  10  11
ENDBRANCH   9  10
ENDBRANCH   1   9
BRANCH   8  22
HETATM   22  O4  UNL     1      26.048  18.859  62.140  1.00  0.00    -0.368 OA
ATOM     23  H4  UNL     1      25.111  18.703  62.110  1.00  0.00     0.212 HD
ENDBRANCH   8  22
BRANCH   7  24
HETATM   24  C10 UNL     1      24.487  16.732  62.902  1.00  0.00     0.202 C 
BRANCH  24  25
HETATM   25  O3  UNL     1      24.204  17.443  64.042  1.00  0.00    -0.399 OA
ATOM     26  H3  UNL     1      23.289  17.542  64.277  1.00  0.00     0.209 HD
ENDBRANCH  24  25
ENDBRANCH   7  24
BRANCH   4  27
HETATM   27  C6  UNL     1      25.315  14.527  61.382  1.00  0.00     0.402 C 
BRANCH  27  28
HETATM   28  O2  UNL     1      25.131  14.099  60.074  1.00  0.00    -0.374 OA
ATOM     29  H2  UNL     1      24.375  14.522  59.686  1.00  0.00     0.211 HD
ENDBRANCH  27  28
ENDBRANCH   4  27
TORSDOF 9
ENDMDL
MODEL 4
REMARK VINA RESULT: -6.589395565      2.593      3.345
REMARK  9 active torsions:
REMARK  status: ('A' for Active; 'I' for Inactive)
REMARK       I    between atoms: C1_2  and  N1_3 
REMARK    1  A    between atoms: C1_2  and  C12_23 
REMARK    2  A    between atoms: N1_3  and  C2_5 
REMARK    3  A    between atoms: C2_5  and  C3_6 
REMARK    4  A    between atoms: C3_6  and  N2_7 
REMARK    5  A    between atoms: N3_10  and  C6_11 
REMARK    6  A    between atoms: C6_11  and  O2_12 
REMARK    7  A    between atoms: C9_16  and  C10_17 
REMARK    8  A    between atoms: C10_17  and  O3_18 
REMARK    9  A    between atoms: C11_20  and  O4_21 
ROOT
HETATM    1  N2  UNL     1      26.967  15.682  61.600  1.00  0.00    -0.034 N 
HETATM    2  C4  UNL     1      27.014  14.540  62.476  1.00  0.00     0.268 C 
HETATM    3  C5  UNL     1      25.686  13.812  62.315  1.00  0.00     0.268 C 
HETATM    4  N3  UNL     1      24.643  14.756  61.881  1.00  0.00    -0.033 N 
HETATM    5  C7  UNL     1      24.893  14.998  60.491  1.00  0.00     0.268 C 
HETATM    6  C8  UNL     1      26.387  15.182  60.340  1.00  0.00     0.268 C 
HETATM    7  C9  UNL     1      24.791  15.964  62.665  1.00  0.00     0.272 C 
HETATM    8  C11 UNL     1      26.067  16.643  62.221  1.00  0.00     0.357 C 
ENDROOT
BRANCH   1   9
HETATM    9  C3  UNL     1      28.208  16.268  61.249  1.00  0.00     0.260 C 
BRANCH   9  10
HETATM   10  C2  UNL     1      29.293  16.255  62.256  1.00  0.00     0.150 C 
BRANCH  10  11
HETATM   11  N1  UNL     1      29.391  17.424  63.096  1.00  0.00    -0.359 N 
HETATM   12  C1  UNL     1      30.030  18.610  62.640  1.00  0.00     0.230 C 
HETATM   13  O1  UNL     1      30.538  18.708  61.496  1.00  0.00    -0.272 OA
ATOM     14  H1  UNL     1      28.995  17.399  64.036  1.00  0.00     0.162 HD
BRANCH  12  15
HETATM   15  C12 UNL     1      30.102  19.778  63.547  1.00  0.00     0.138 C 
HETATM   16  C13 UNL     1      29.911  19.263  64.955  1.00  0.00    -0.010 C 
HETATM   17  C14 UNL     1      29.570  20.120  65.913  1.00  0.00    -0.010 C 
HETATM   18  C15 UNL     1      29.399  21.545  65.515  1.00  0.00     0.146 C 
HETATM   19  N4  UNL     1      28.706  21.558  64.235  1.00  0.00    -0.398 N 
HETATM   20  C16 UNL     1      29.019  20.742  63.302  1.00  0.00     0.073 C 
ATOM     21  H4  UNL     1      27.957  22.233  64.079  1.00  0.00     0.158 HD
ENDBRANCH  12  15
ENDBRANCH  10  11
ENDBRANCH   9  10
ENDBRANCH   1   9
BRANCH   8  22
HETATM   22  O4  UNL     1      25.855  17.754  61.440  1.00  0.00    -0.368 OA
ATOM     23  H4  UNL     1      26.503  18.434  61.586  1.00  0.00     0.212 HD
ENDBRANCH   8  22
BRANCH   7  24
HETATM   24  C10 UNL     1      23.603  16.844  62.721  1.00  0.00     0.202 C 
BRANCH  24  25
HETATM   25  O3  UNL     1      23.043  17.066  63.955  1.00  0.00    -0.399 OA
ATOM     26  H3  UNL     1      22.097  17.140  63.996  1.00  0.00     0.209 HD
ENDBRANCH  24  25
ENDBRANCH   7  24
BRANCH   4  27
HETATM   27  C6  UNL     1      23.389  14.108  62.150  1.00  0.00     0.402 C 
BRANCH  27  28
HETATM   28  O2  UNL     1      23.568  12.741  62.310  1.00  0.00    -0.374 OA
ATOM     29  H2  UNL     1      22.732  12.290  62.305  1.00  0.00     0.211 HD
ENDBRANCH  27  28
ENDBRANCH   4  27
TORSDOF 9
ENDMDL
MODEL 5
REMARK VINA RESULT: -6.586615959      3.612      5.830
REMARK  9 active torsions:
REMARK  status: ('A' for Active; 'I' for Inactive)
REMARK       I    between atoms: C1_2  and  N1_3 
REMARK    1  A    between atoms: C1_2  and  C12_23 
REMARK    2  A    between atoms: N1_3  and  C2_5 
REMARK    3  A    between atoms: C2_5  and  C3_6 
REMARK    4  A    between atoms: C3_6  and  N2_7 
REMARK    5  A    between atoms: N3_10  and  C6_11 
REMARK    6  A    between atoms: C6_11  and  O2_12 
REMARK    7  A    between atoms: C9_16  and  C10_17 
REMARK    8  A    between atoms: C10_17  and  O3_18 
REMARK    9  A    between atoms: C11_20  and  O4_21 
ROOT
HETATM    1  N2  UNL     1      27.216  17.706  61.911  1.00  0.00    -0.034 N 
HETATM    2  C4  UNL     1      28.243  16.860  62.464  1.00  0.00     0.268 C 
HETATM    3  C5  UNL     1      28.126  15.515  61.760  1.00  0.00     0.268 C 
HETATM    4  N3  UNL     1      26.748  15.313  61.284  1.00  0.00    -0.033 N 
HETATM    5  C7  UNL     1      26.611  16.144  60.125  1.00  0.00     0.268 C 
HETATM    6  C8  UNL     1      27.259  17.470  60.457  1.00  0.00     0.268 C 
HETATM    7  C9  UNL     1      25.853  15.729  62.343  1.00  0.00     0.272 C 
HETATM    8  C11 UNL     1      25.953  17.234  62.460  1.00  0.00     0.357 C 
ENDROOT
BRANCH   1   9
HETATM    9  C3  UNL     1      27.380  19.102  62.083  1.00  0.00     0.260 C 
BRANCH   9  10
HETATM   10  C2  UNL     1      27.611  19.614  63.453  1.00  0.00     0.150 C 
BRANCH  10  11
HETATM   11  N1  UNL     1      26.566  19.350  64.412  1.00  0.00    -0.359 N 
HETATM   12  C1  UNL     1      25.412  20.178  64.493  1.00  0.00     0.230 C 
HETATM   13  O1  UNL     1      25.237  21.171  63.747  1.00  0.00    -0.272 OA
ATOM     14  H1  UNL     1      26.656  18.554  65.044  1.00  0.00     0.162 HD
BRANCH  12  15
HETATM   15  C12 UNL     1      24.373  19.858  65.499  1.00  0.00     0.138 C 
HETATM   16  C13 UNL     1      24.830  20.442  66.815  1.00  0.00    -0.010 C 
HETATM   17  C14 UNL     1      24.279  19.998  67.942  1.00  0.00    -0.010 C 
HETATM   18  C15 UNL     1      23.239  18.940  67.813  1.00  0.00     0.146 C 
HETATM   19  N4  UNL     1      23.695  18.002  66.798  1.00  0.00    -0.398 N 
HETATM   20  C16 UNL     1      24.227  18.411  65.709  1.00  0.00     0.073 C 
ATOM     21  H4  UNL     1      23.587  17.001  66.958  1.00  0.00     0.158 HD
ENDBRANCH  12  15
ENDBRANCH  10  11
ENDBRANCH   9  10
ENDBRANCH   1   9
BRANCH   8  22
HETATM   22  O4  UNL     1      24.868  17.898  61.942  1.00  0.00    -0.368 OA
ATOM     23  H4  UNL     1      24.211  18.097  62.599  1.00  0.00     0.212 HD
ENDBRANCH   8  22
BRANCH   7  24
HETATM   24  C10 UNL     1      24.474  15.200  62.266  1.00  0.00     0.202 C 
BRANCH  24  25
HETATM   25  O3  UNL     1      23.518  15.824  63.030  1.00  0.00    -0.399 OA
ATOM     26  H3  UNL     1      22.712  16.077  62.596  1.00  0.00     0.209 HD
ENDBRANCH  24  25
ENDBRANCH   7  24
BRANCH   4  27
HETATM   27  C6  UNL     1      26.625  13.906  61.018  1.00  0.00     0.402 C 
BRANCH  27  28
HETATM   28  O2  UNL     1      26.058  13.692  59.769  1.00  0.00    -0.374 OA
ATOM     29  H2  UNL     1      26.395  12.894  59.381  1.00  0.00     0.211 HD
ENDBRANCH  27  28
ENDBRANCH   4  27
TORSDOF 9
ENDMDL
