MODEL 1
REMARK VINA RESULT: -9.620089677      0.000      0.000
REMARK  5 active torsions:
REMARK  status: ('A' for Active; 'I' for Inactive)
REMARK    1  A    between atoms: C4_4  and  C5_5 
REMARK    2  A    between atoms: C5_5  and  N1_6 
REMARK    3  A    between atoms: C5_5  and  C16_22 
REMARK       I    between atoms: N1_6  and  C6_8 
REMARK    4  A    between atoms: C6_8  and  C7_10 
REMARK    5  A    between atoms: N3_15  and  C10_16 
ROOT
HETATM    1  N1  UNL     1      96.579  65.743  19.489  1.00  0.00    -0.346 N 
ATOM      2  H1  UNL     1      95.796  66.339  19.757  1.00  0.00     0.163 HD
HETATM    3  C6  UNL     1      96.908  65.747  18.127  1.00  0.00     0.256 C 
HETATM    4  O1  UNL     1      97.844  65.023  17.669  1.00  0.00    -0.267 OA
ENDROOT
BRANCH   1   5
HETATM    5  C5  UNL     1      97.196  65.013  20.553  1.00  0.00     0.140 C 
BRANCH   5   6
HETATM    6  C4  UNL     1      97.769  65.904  21.585  1.00  0.00     0.058 A 
HETATM    7  C3  UNL     1      97.796  65.631  22.950  1.00  0.00     0.063 A 
HETATM    8  C2  UNL     1      98.404  66.700  23.533  1.00  0.00     0.074 A 
HETATM    9  C1  UNL     1      98.674  66.883  25.005  1.00  0.00     0.079 C 
HETATM   10  O2  UNL     1      98.716  67.548  22.594  1.00  0.00    -0.243 OA
HETATM   11  N4  UNL     1      98.354  67.103  21.444  1.00  0.00    -0.263 N 
ATOM     12  H4  UNL     1      98.491  67.587  20.557  1.00  0.00     0.194 HD
ENDBRANCH   5   6
BRANCH   5  13
HETATM   13  C16 UNL     1      96.324  63.930  21.162  1.00  0.00     0.014 C 
HETATM   14  C17 UNL     1      95.866  62.999  20.093  1.00  0.00     0.007 C 
HETATM   15  C18 UNL     1      96.607  61.674  20.116  1.00  0.00     0.000 C 
HETATM   16  C19 UNL     1      96.278  60.910  21.381  1.00  0.00     0.000 C 
HETATM   17  C20 UNL     1      96.331  61.892  22.531  1.00  0.00     0.000 C 
HETATM   18  C21 UNL     1      97.166  63.118  22.138  1.00  0.00     0.007 C 
ENDBRANCH   5  13
ENDBRANCH   1   5
BRANCH   3  19
HETATM   19  C7  UNL     1      96.235  66.548  17.117  1.00  0.00     0.079 A 
HETATM   20  C8  UNL     1      96.441  67.848  16.773  1.00  0.00     0.040 A 
HETATM   21  C9  UNL     1      97.459  68.842  17.266  1.00  0.00     0.071 C 
HETATM   22  N2  UNL     1      95.540  68.146  15.818  1.00  0.00    -0.301 N 
HETATM   23  N3  UNL     1      94.763  67.136  15.513  1.00  0.00    -0.287 N 
ATOM     24  H2  UNL     1      95.469  69.063  15.378  1.00  0.00     0.187 HD
HETATM   25  C14 UNL     1      95.166  66.124  16.302  1.00  0.00     0.043 A 
HETATM   26  C15 UNL     1      94.633  64.758  16.374  1.00  0.00     0.071 C 
BRANCH  23  27
HETATM   27  C10 UNL     1      93.703  67.114  14.542  1.00  0.00     0.043 C 
HETATM   28  C11 UNL     1      93.587  68.533  13.950  1.00  0.00     0.039 C 
HETATM   29  C12 UNL     1      92.335  66.890  15.158  1.00  0.00     0.039 C 
HETATM   30  C13 UNL     1      93.957  66.219  13.375  1.00  0.00     0.039 C 
ENDBRANCH  23  27
ENDBRANCH   3  19
TORSDOF 5
ENDMDL
MODEL 2
REMARK VINA RESULT: -9.237305222      3.205      5.203
REMARK  5 active torsions:
REMARK  status: ('A' for Active; 'I' for Inactive)
REMARK    1  A    between atoms: C4_4  and  C5_5 
REMARK    2  A    between atoms: C5_5  and  N1_6 
REMARK    3  A    between atoms: C5_5  and  C16_22 
REMARK       I    between atoms: N1_6  and  C6_8 
REMARK    4  A    between atoms: C6_8  and  C7_10 
REMARK    5  A    between atoms: N3_15  and  C10_16 
ROOT
HETATM    1  N1  UNL     1      95.152  62.998  18.064  1.00  0.00    -0.346 N 
ATOM      2  H1  UNL     1      95.936  63.647  17.997  1.00  0.00     0.163 HD
HETATM    3  C6  UNL     1      93.973  63.401  17.424  1.00  0.00     0.256 C 
HETATM    4  O1  UNL     1      92.922  62.690  17.462  1.00  0.00    -0.267 OA
ENDROOT
BRANCH   1   5
HETATM    5  C5  UNL     1      95.403  61.796  18.798  1.00  0.00     0.140 C 
BRANCH   5   6
HETATM    6  C4  UNL     1      95.682  60.645  17.912  1.00  0.00     0.058 A 
HETATM    7  C3  UNL     1      96.757  59.773  18.051  1.00  0.00     0.063 A 
HETATM    8  C2  UNL     1      96.640  58.870  17.039  1.00  0.00     0.074 A 
HETATM    9  C1  UNL     1      97.567  57.715  16.758  1.00  0.00     0.079 C 
HETATM   10  O2  UNL     1      95.578  59.175  16.347  1.00  0.00    -0.243 OA
HETATM   11  N4  UNL     1      95.000  60.212  16.841  1.00  0.00    -0.263 N 
ATOM     12  H4  UNL     1      94.151  60.641  16.474  1.00  0.00     0.194 HD
ENDBRANCH   5   6
BRANCH   5  13
HETATM   13  C16 UNL     1      96.447  61.933  19.892  1.00  0.00     0.014 C 
HETATM   14  C17 UNL     1      96.859  63.360  20.011  1.00  0.00     0.007 C 
HETATM   15  C18 UNL     1      96.261  64.040  21.230  1.00  0.00     0.000 C 
HETATM   16  C19 UNL     1      96.819  63.429  22.499  1.00  0.00     0.000 C 
HETATM   17  C20 UNL     1      96.810  61.927  22.320  1.00  0.00     0.000 C 
HETATM   18  C21 UNL     1      95.816  61.532  21.220  1.00  0.00     0.007 C 
ENDBRANCH   5  13
ENDBRANCH   1   5
BRANCH   3  19
HETATM   19  C7  UNL     1      93.820  64.637  16.674  1.00  0.00     0.079 A 
HETATM   20  C8  UNL     1      93.817  65.920  17.124  1.00  0.00     0.040 A 
HETATM   21  C9  UNL     1      94.037  66.474  18.507  1.00  0.00     0.071 C 
HETATM   22  N2  UNL     1      93.597  66.708  16.054  1.00  0.00    -0.301 N 
HETATM   23  N3  UNL     1      93.457  66.033  14.941  1.00  0.00    -0.287 N 
ATOM     24  H2  UNL     1      93.544  67.725  16.106  1.00  0.00     0.187 HD
HETATM   25  C14 UNL     1      93.590  64.740  15.288  1.00  0.00     0.043 A 
HETATM   26  C15 UNL     1      93.517  63.554  14.425  1.00  0.00     0.071 C 
BRANCH  23  27
HETATM   27  C10 UNL     1      93.213  66.560  13.626  1.00  0.00     0.043 C 
HETATM   28  C11 UNL     1      93.228  68.099  13.734  1.00  0.00     0.039 C 
HETATM   29  C12 UNL     1      91.815  66.270  13.117  1.00  0.00     0.039 C 
HETATM   30  C13 UNL     1      94.267  66.225  12.622  1.00  0.00     0.039 C 
ENDBRANCH  23  27
ENDBRANCH   3  19
TORSDOF 5
ENDMDL
MODEL 3
REMARK VINA RESULT: -9.096432329      4.012      7.543
REMARK  5 active torsions:
REMARK  status: ('A' for Active; 'I' for Inactive)
REMARK    1  A    between atoms: C4_4  and  C5_5 
REMARK    2  A    between atoms: C5_5  and  N1_6 
REMARK    3  A    between atoms: C5_5  and  C16_22 
REMARK       I    between atoms: N1_6  and  C6_8 
REMARK    4  A    between atoms: C6_8  and  C7_10 
REMARK    5  A    between atoms: N3_15  and  C10_16 
ROOT
HETATM    1  N1  UNL     1      96.920  60.485  19.010  1.00  0.00    -0.346 N 
ATOM      2  H1  UNL     1      97.903  60.618  19.243  1.00  0.00     0.163 HD
HETATM    3  C6  UNL     1      96.052  61.501  19.430  1.00  0.00     0.256 C 
HETATM    4  O1  UNL     1      94.801  61.433  19.224  1.00  0.00    -0.267 OA
ENDROOT
BRANCH   1   5
HETATM    5  C5  UNL     1      96.608  59.284  18.298  1.00  0.00     0.140 C 
BRANCH   5   6
HETATM    6  C4  UNL     1      96.106  59.555  16.933  1.00  0.00     0.058 A 
HETATM    7  C3  UNL     1      96.855  59.428  15.767  1.00  0.00     0.063 A 
HETATM    8  C2  UNL     1      96.021  59.771  14.748  1.00  0.00     0.074 A 
HETATM    9  C1  UNL     1      96.364  59.794  13.280  1.00  0.00     0.079 C 
HETATM   10  O2  UNL     1      94.863  60.080  15.261  1.00  0.00    -0.243 OA
HETATM   11  N4  UNL     1      94.889  59.960  16.540  1.00  0.00    -0.263 N 
ATOM     12  H4  UNL     1      94.103  60.145  17.163  1.00  0.00     0.194 HD
ENDBRANCH   5   6
BRANCH   5  13
HETATM   13  C16 UNL     1      97.718  58.248  18.296  1.00  0.00     0.014 C 
HETATM   14  C17 UNL     1      98.232  58.065  19.682  1.00  0.00     0.007 C 
HETATM   15  C18 UNL     1      97.749  56.772  20.317  1.00  0.00     0.000 C 
HETATM   16  C19 UNL     1      98.333  55.580  19.591  1.00  0.00     0.000 C 
HETATM   17  C20 UNL     1      98.214  55.850  18.107  1.00  0.00     0.000 C 
HETATM   18  C21 UNL     1      97.136  56.912  17.850  1.00  0.00     0.007 C 
ENDBRANCH   5  13
ENDBRANCH   1   5
BRANCH   3  19
HETATM   19  C7  UNL     1      96.468  62.706  20.129  1.00  0.00     0.079 A 
HETATM   20  C8  UNL     1      96.614  62.917  21.465  1.00  0.00     0.040 A 
HETATM   21  C9  UNL     1      96.467  61.972  22.628  1.00  0.00     0.071 C 
HETATM   22  N2  UNL     1      96.972  64.205  21.619  1.00  0.00    -0.301 N 
HETATM   23  N3  UNL     1      97.071  64.849  20.483  1.00  0.00    -0.287 N 
ATOM     24  H2  UNL     1      97.149  64.636  22.527  1.00  0.00     0.187 HD
HETATM   25  C14 UNL     1      96.764  63.948  19.534  1.00  0.00     0.043 A 
HETATM   26  C15 UNL     1      96.715  64.139  18.078  1.00  0.00     0.071 C 
BRANCH  23  27
HETATM   27  C10 UNL     1      97.431  66.228  20.291  1.00  0.00     0.043 C 
HETATM   28  C11 UNL     1      97.580  66.868  21.687  1.00  0.00     0.039 C 
HETATM   29  C12 UNL     1      96.325  67.050  19.657  1.00  0.00     0.039 C 
HETATM   30  C13 UNL     1      98.749  66.433  19.621  1.00  0.00     0.039 C 
ENDBRANCH  23  27
ENDBRANCH   3  19
TORSDOF 5
ENDMDL
MODEL 4
REMARK VINA RESULT: -9.091226096      2.414      7.730
REMARK  5 active torsions:
REMARK  status: ('A' for Active; 'I' for Inactive)
REMARK    1  A    between atoms: C4_4  and  C5_5 
REMARK    2  A    between atoms: C5_5  and  N1_6 
REMARK    3  A    between atoms: C5_5  and  C16_22 
REMARK       I    between atoms: N1_6  and  C6_8 
REMARK    4  A    between atoms: C6_8  and  C7_10 
REMARK    5  A    between atoms: N3_15  and  C10_16 
ROOT
HETATM    1  N1  UNL     1      94.932  65.819  18.342  1.00  0.00    -0.346 N 
ATOM      2  H1  UNL     1      94.578  66.378  19.117  1.00  0.00     0.163 HD
HETATM    3  C6  UNL     1      96.042  65.013  18.629  1.00  0.00     0.256 C 
HETATM    4  O1  UNL     1      96.588  64.295  17.737  1.00  0.00    -0.267 OA
ENDROOT
BRANCH   1   5
HETATM    5  C5  UNL     1      94.230  65.961  17.103  1.00  0.00     0.140 C 
BRANCH   5   6
HETATM    6  C4  UNL     1      92.763  65.899  17.280  1.00  0.00     0.058 A 
HETATM    7  C3  UNL     1      91.989  66.888  17.879  1.00  0.00     0.063 A 
HETATM    8  C2  UNL     1      90.706  66.436  17.837  1.00  0.00     0.074 A 
HETATM    9  C1  UNL     1      89.487  67.151  18.362  1.00  0.00     0.079 C 
HETATM   10  O2  UNL     1      90.709  65.267  17.260  1.00  0.00    -0.243 OA
HETATM   11  N4  UNL     1      91.904  64.932  16.924  1.00  0.00    -0.263 N 
ATOM     12  H4  UNL     1      92.160  64.063  16.458  1.00  0.00     0.194 HD
ENDBRANCH   5   6
BRANCH   5  13
HETATM   13  C16 UNL     1      94.649  67.163  16.276  1.00  0.00     0.014 C 
HETATM   14  C17 UNL     1      95.948  67.688  16.783  1.00  0.00     0.007 C 
HETATM   15  C18 UNL     1      97.115  67.328  15.880  1.00  0.00     0.000 C 
HETATM   16  C19 UNL     1      96.978  68.024  14.542  1.00  0.00     0.000 C 
HETATM   17  C20 UNL     1      95.537  67.884  14.103  1.00  0.00     0.000 C 
HETATM   18  C21 UNL     1      94.874  66.711  14.839  1.00  0.00     0.007 C 
ENDBRANCH   5  13
ENDBRANCH   1   5
BRANCH   3  19
HETATM   19  C7  UNL     1      96.675  64.914  19.934  1.00  0.00     0.079 A 
HETATM   20  C8  UNL     1      96.683  63.873  20.809  1.00  0.00     0.040 A 
HETATM   21  C9  UNL     1      96.111  62.485  20.685  1.00  0.00     0.071 C 
HETATM   22  N2  UNL     1      97.363  64.282  21.896  1.00  0.00    -0.301 N 
HETATM   23  N3  UNL     1      97.799  65.513  21.795  1.00  0.00    -0.287 N 
ATOM     24  H2  UNL     1      97.521  63.695  22.715  1.00  0.00     0.187 HD
HETATM   25  C14 UNL     1      97.390  65.938  20.587  1.00  0.00     0.043 A 
HETATM   26  C15 UNL     1      97.604  67.251  19.962  1.00  0.00     0.071 C 
BRANCH  23  27
HETATM   27  C10 UNL     1      98.555  66.253  22.768  1.00  0.00     0.043 C 
HETATM   28  C11 UNL     1      98.818  65.313  23.963  1.00  0.00     0.039 C 
HETATM   29  C12 UNL     1      97.770  67.388  23.396  1.00  0.00     0.039 C 
HETATM   30  C13 UNL     1      99.906  66.683  22.301  1.00  0.00     0.039 C 
ENDBRANCH  23  27
ENDBRANCH   3  19
TORSDOF 5
ENDMDL
MODEL 5
REMARK VINA RESULT: -9.059017187      2.510      5.059
REMARK  5 active torsions:
REMARK  status: ('A' for Active; 'I' for Inactive)
REMARK    1  A    between atoms: C4_4  and  C5_5 
REMARK    2  A    between atoms: C5_5  and  N1_6 
REMARK    3  A    between atoms: C5_5  and  C16_22 
REMARK       I    between atoms: N1_6  and  C6_8 
REMARK    4  A    between atoms: C6_8  and  C7_10 
REMARK    5  A    between atoms: N3_15  and  C10_16 
ROOT
HETATM    1  N1  UNL     1      96.985  65.311  19.725  1.00  0.00    -0.346 N 
ATOM      2  H1  UNL     1      96.149  65.390  20.303  1.00  0.00     0.163 HD
HETATM    3  C6  UNL     1      96.973  64.280  18.777  1.00  0.00     0.256 C 
HETATM    4  O1  UNL     1      97.968  64.064  18.019  1.00  0.00    -0.267 OA
ENDROOT
BRANCH   1   5
HETATM    5  C5  UNL     1      98.016  66.267  19.990  1.00  0.00     0.140 C 
BRANCH   5   6
HETATM    6  C4  UNL     1      97.950  67.429  19.077  1.00  0.00     0.058 A 
HETATM    7  C3  UNL     1      97.138  67.514  17.951  1.00  0.00     0.063 A 
HETATM    8  C2  UNL     1      97.384  68.736  17.404  1.00  0.00     0.074 A 
HETATM    9  C1  UNL     1      96.746  69.307  16.163  1.00  0.00     0.079 C 
HETATM   10  O2  UNL     1      98.273  69.337  18.143  1.00  0.00    -0.243 OA
HETATM   11  N4  UNL     1      98.619  68.590  19.131  1.00  0.00    -0.263 N 
ATOM     12  H4  UNL     1      99.300  68.842  19.846  1.00  0.00     0.194 HD
ENDBRANCH   5   6
BRANCH   5  13
HETATM   13  C16 UNL     1      98.119  66.695  21.443  1.00  0.00     0.014 C 
HETATM   14  C17 UNL     1      97.218  65.851  22.276  1.00  0.00     0.007 C 
HETATM   15  C18 UNL     1      97.974  64.808  23.081  1.00  0.00     0.000 C 
HETATM   16  C19 UNL     1      98.849  65.479  24.120  1.00  0.00     0.000 C 
HETATM   17  C20 UNL     1      99.539  66.644  23.446  1.00  0.00     0.000 C 
HETATM   18  C21 UNL     1      99.544  66.445  21.923  1.00  0.00     0.007 C 
ENDBRANCH   5  13
ENDBRANCH   1   5
BRANCH   3  19
HETATM   19  C7  UNL     1      95.861  63.368  18.561  1.00  0.00     0.079 A 
HETATM   20  C8  UNL     1      95.605  62.171  19.153  1.00  0.00     0.040 A 
HETATM   21  C9  UNL     1      96.334  61.445  20.253  1.00  0.00     0.071 C 
HETATM   22  N2  UNL     1      94.483  61.688  18.586  1.00  0.00    -0.301 N 
HETATM   23  N3  UNL     1      93.990  62.482  17.669  1.00  0.00    -0.287 N 
ATOM     24  H2  UNL     1      94.062  60.795  18.843  1.00  0.00     0.187 HD
HETATM   25  C14 UNL     1      94.821  63.538  17.626  1.00  0.00     0.043 A 
HETATM   26  C15 UNL     1      94.739  64.727  16.768  1.00  0.00     0.071 C 
BRANCH  23  27
HETATM   27  C10 UNL     1      92.810  62.270  16.876  1.00  0.00     0.043 C 
HETATM   28  C11 UNL     1      92.067  61.053  17.464  1.00  0.00     0.039 C 
HETATM   29  C12 UNL     1      93.116  61.828  15.458  1.00  0.00     0.039 C 
HETATM   30  C13 UNL     1      91.826  63.393  16.923  1.00  0.00     0.039 C 
ENDBRANCH  23  27
ENDBRANCH   3  19
TORSDOF 5
ENDMDL
