MODEL 1
REMARK VINA RESULT: -6.661434833      0.000      0.000
REMARK  5 active torsions:
REMARK  status: ('A' for Active; 'I' for Inactive)
REMARK    1  A    between atoms: C9_9  and  C10_10 
REMARK    2  A    between atoms: C9_9  and  C11_13 
REMARK    3  A    between atoms: C10_10  and  O1_11 
REMARK    4  A    between atoms: C15_17  and  C16_18 
REMARK    5  A    between atoms: C17_22  and  O5_23 
ROOT
HETATM    1  C1  UNL     1      13.876  13.443  19.702  1.00  0.00     0.043 C 
HETATM    2  C2  UNL     1      13.749  14.638  18.804  1.00  0.00    -0.087 C 
HETATM    3  C3  UNL     1      12.725  14.705  17.993  1.00  0.00    -0.015 C 
HETATM    4  C4  UNL     1      12.672  15.945  17.121  1.00  0.00    -0.022 C 
HETATM    5  C5  UNL     1      12.338  17.157  17.936  1.00  0.00     0.020 C 
HETATM    6  C6  UNL     1      11.471  15.674  16.254  1.00  0.00     0.013 C 
HETATM    7  C7  UNL     1      11.419  16.646  15.165  1.00  0.00     0.002 C 
HETATM    8  C8  UNL     1      12.601  17.537  15.001  1.00  0.00     0.013 C 
HETATM    9  C9  UNL     1      13.951  16.796  15.105  1.00  0.00    -0.003 C 
HETATM   10  C18 UNL     1      13.988  16.041  16.366  1.00  0.00     0.009 C 
HETATM   11  C19 UNL     1      15.050  16.253  17.384  1.00  0.00     0.011 C 
HETATM   12  C20 UNL     1      14.704  15.744  18.780  1.00  0.00     0.034 C 
ENDROOT
BRANCH   9  13
HETATM   13  C10 UNL     1      13.795  15.771  13.989  1.00  0.00     0.175 C 
BRANCH  13  14
HETATM   14  O1  UNL     1      14.188  14.504  14.258  1.00  0.00    -0.400 OA
ATOM     15  H1  UNL     1      15.111  14.307  14.153  1.00  0.00     0.209 HD
ENDBRANCH  13  14
ENDBRANCH   9  13
BRANCH   9  16
HETATM   16  C11 UNL     1      15.065  17.699  14.727  1.00  0.00     0.016 C 
HETATM   17  C12 UNL     1      15.454  18.558  15.949  1.00  0.00     0.021 C 
HETATM   18  C13 UNL     1      14.726  18.678  13.622  1.00  0.00     0.018 C 
HETATM   19  C14 UNL     1      15.593  18.592  12.387  1.00  0.00     0.044 C 
HETATM   20  C15 UNL     1      17.063  18.585  12.731  1.00  0.00     0.225 C 
HETATM   21  O4  UNL     1      17.189  18.283  14.088  1.00  0.00    -0.345 OA
HETATM   22  C17 UNL     1      16.375  17.110  14.360  1.00  0.00     0.267 C 
BRANCH  20  23
HETATM   23  C16 UNL     1      17.696  19.914  12.531  1.00  0.00     0.203 C 
HETATM   24  O2  UNL     1      18.107  20.311  11.411  1.00  0.00    -0.646 OA
HETATM   25  O3  UNL     1      17.864  20.796  13.601  1.00  0.00    -0.646 OA
ENDBRANCH  20  23
BRANCH  22  26
HETATM   26  O5  UNL     1      16.546  16.392  13.243  1.00  0.00    -0.370 OA
ATOM     27  H5  UNL     1      16.459  15.446  13.231  1.00  0.00     0.212 HD
ENDBRANCH  22  26
ENDBRANCH   9  16
TORSDOF 5
ENDMDL
MODEL 2
REMARK VINA RESULT: -6.651486783      2.089      6.721
REMARK  5 active torsions:
REMARK  status: ('A' for Active; 'I' for Inactive)
REMARK    1  A    between atoms: C9_9  and  C10_10 
REMARK    2  A    between atoms: C9_9  and  C11_13 
REMARK    3  A    between atoms: C10_10  and  O1_11 
REMARK    4  A    between atoms: C15_17  and  C16_18 
REMARK    5  A    between atoms: C17_22  and  O5_23 
ROOT
HETATM    1  C1  UNL     1      19.090  17.066   9.609  1.00  0.00     0.043 C 
HETATM    2  C2  UNL     1      17.991  17.695  10.413  1.00  0.00    -0.087 C 
HETATM    3  C3  UNL     1      18.268  18.753  11.131  1.00  0.00    -0.015 C 
HETATM    4  C4  UNL     1      17.102  19.327  11.913  1.00  0.00    -0.022 C 
HETATM    5  C5  UNL     1      16.116  19.983  10.995  1.00  0.00     0.020 C 
HETATM    6  C6  UNL     1      17.756  20.436  12.694  1.00  0.00     0.013 C 
HETATM    7  C7  UNL     1      16.832  20.935  13.709  1.00  0.00     0.002 C 
HETATM    8  C8  UNL     1      15.573  20.166  13.911  1.00  0.00     0.013 C 
HETATM    9  C9  UNL     1      15.786  18.639  13.967  1.00  0.00    -0.003 C 
HETATM   10  C18 UNL     1      16.518  18.212  12.765  1.00  0.00     0.009 C 
HETATM   11  C19 UNL     1      15.973  17.196  11.826  1.00  0.00     0.011 C 
HETATM   12  C20 UNL     1      16.616  17.199  10.443  1.00  0.00     0.034 C 
ENDROOT
BRANCH   9  13
HETATM   13  C10 UNL     1      16.762  18.534  15.132  1.00  0.00     0.175 C 
BRANCH  13  14
HETATM   14  O1  UNL     1      17.579  17.455  15.154  1.00  0.00    -0.400 OA
ATOM     15  H1  UNL     1      18.449  17.565  14.789  1.00  0.00     0.209 HD
ENDBRANCH  13  14
ENDBRANCH   9  13
BRANCH   9  16
HETATM   16  C11 UNL     1      14.533  17.958  14.375  1.00  0.00     0.016 C 
HETATM   17  C12 UNL     1      13.340  18.628  13.661  1.00  0.00     0.021 C 
HETATM   18  C13 UNL     1      14.231  18.045  15.856  1.00  0.00     0.018 C 
HETATM   19  C14 UNL     1      14.103  16.721  16.574  1.00  0.00     0.044 C 
HETATM   20  C15 UNL     1      13.181  15.774  15.845  1.00  0.00     0.225 C 
HETATM   21  O4  UNL     1      13.014  16.247  14.543  1.00  0.00    -0.345 OA
HETATM   22  C17 UNL     1      14.332  16.538  14.002  1.00  0.00     0.267 C 
BRANCH  20  23
HETATM   23  C16 UNL     1      11.827  15.720  16.454  1.00  0.00     0.203 C 
HETATM   24  O2  UNL     1      10.808  15.349  15.818  1.00  0.00    -0.646 OA
HETATM   25  O3  UNL     1      11.626  16.087  17.786  1.00  0.00    -0.646 OA
ENDBRANCH  20  23
BRANCH  22  26
HETATM   26  O5  UNL     1      15.067  15.551  14.529  1.00  0.00    -0.370 OA
ATOM     27  H5  UNL     1      15.910  15.299  14.170  1.00  0.00     0.212 HD
ENDBRANCH  22  26
ENDBRANCH   9  16
TORSDOF 5
ENDMDL
MODEL 3
REMARK VINA RESULT: -6.467443804      2.216      6.789
REMARK  5 active torsions:
REMARK  status: ('A' for Active; 'I' for Inactive)
REMARK    1  A    between atoms: C9_9  and  C10_10 
REMARK    2  A    between atoms: C9_9  and  C11_13 
REMARK    3  A    between atoms: C10_10  and  O1_11 
REMARK    4  A    between atoms: C15_17  and  C16_18 
REMARK    5  A    between atoms: C17_22  and  O5_23 
ROOT
HETATM    1  C1  UNL     1      19.036  17.668   9.222  1.00  0.00     0.043 C 
HETATM    2  C2  UNL     1      17.937  18.004  10.187  1.00  0.00    -0.087 C 
HETATM    3  C3  UNL     1      18.105  19.016  10.999  1.00  0.00    -0.015 C 
HETATM    4  C4  UNL     1      16.948  19.289  11.940  1.00  0.00    -0.022 C 
HETATM    5  C5  UNL     1      15.774  19.847  11.195  1.00  0.00     0.020 C 
HETATM    6  C6  UNL     1      17.484  20.412  12.789  1.00  0.00     0.013 C 
HETATM    7  C7  UNL     1      16.601  20.631  13.930  1.00  0.00     0.002 C 
HETATM    8  C8  UNL     1      15.518  19.632  14.147  1.00  0.00     0.013 C 
HETATM    9  C9  UNL     1      15.991  18.170  14.003  1.00  0.00    -0.003 C 
HETATM   10  C18 UNL     1      16.654  18.006  12.701  1.00  0.00     0.009 C 
HETATM   11  C19 UNL     1      16.192  17.010  11.699  1.00  0.00     0.011 C 
HETATM   12  C20 UNL     1      16.677  17.269  10.275  1.00  0.00     0.034 C 
ENDROOT
BRANCH   9  13
HETATM   13  C10 UNL     1      17.088  18.125  15.059  1.00  0.00     0.175 C 
BRANCH  13  14
HETATM   14  O1  UNL     1      18.288  17.626  14.678  1.00  0.00    -0.400 OA
ATOM     15  H1  UNL     1      18.790  17.161  15.336  1.00  0.00     0.209 HD
ENDBRANCH  13  14
ENDBRANCH   9  13
BRANCH   9  16
HETATM   16  C11 UNL     1      14.921  17.238  14.434  1.00  0.00     0.016 C 
HETATM   17  C12 UNL     1      15.179  15.851  13.809  1.00  0.00     0.021 C 
HETATM   18  C13 UNL     1      13.529  17.639  13.991  1.00  0.00     0.018 C 
HETATM   19  C14 UNL     1      12.527  17.850  15.103  1.00  0.00     0.044 C 
HETATM   20  C15 UNL     1      12.520  16.698  16.078  1.00  0.00     0.225 C 
HETATM   21  O4  UNL     1      13.688  15.959  15.886  1.00  0.00    -0.345 OA
HETATM   22  C17 UNL     1      14.805  16.890  15.870  1.00  0.00     0.267 C 
BRANCH  20  23
HETATM   23  C16 UNL     1      11.386  15.766  15.845  1.00  0.00     0.203 C 
HETATM   24  O2  UNL     1      11.535  14.626  15.338  1.00  0.00    -0.646 OA
HETATM   25  O3  UNL     1      10.081  16.126  16.188  1.00  0.00    -0.646 OA
ENDBRANCH  20  23
BRANCH  22  26
HETATM   26  O5  UNL     1      14.429  17.785  16.793  1.00  0.00    -0.370 OA
ATOM     27  H5  UNL     1      13.665  17.655  17.342  1.00  0.00     0.212 HD
ENDBRANCH  22  26
ENDBRANCH   9  16
TORSDOF 5
ENDMDL
MODEL 4
REMARK VINA RESULT: -6.402171327      0.910      1.063
REMARK  5 active torsions:
REMARK  status: ('A' for Active; 'I' for Inactive)
REMARK    1  A    between atoms: C9_9  and  C10_10 
REMARK    2  A    between atoms: C9_9  and  C11_13 
REMARK    3  A    between atoms: C10_10  and  O1_11 
REMARK    4  A    between atoms: C15_17  and  C16_18 
REMARK    5  A    between atoms: C17_22  and  O5_23 
ROOT
HETATM    1  C1  UNL     1      14.164  13.877  19.619  1.00  0.00     0.043 C 
HETATM    2  C2  UNL     1      13.931  15.002  18.654  1.00  0.00    -0.087 C 
HETATM    3  C3  UNL     1      13.009  14.857  17.737  1.00  0.00    -0.015 C 
HETATM    4  C4  UNL     1      12.838  16.040  16.802  1.00  0.00    -0.022 C 
HETATM    5  C5  UNL     1      12.205  17.196  17.516  1.00  0.00     0.020 C 
HETATM    6  C6  UNL     1      11.808  15.529  15.828  1.00  0.00     0.013 C 
HETATM    7  C7  UNL     1      11.710  16.442  14.693  1.00  0.00     0.002 C 
HETATM    8  C8  UNL     1      12.727  17.526  14.609  1.00  0.00     0.013 C 
HETATM    9  C9  UNL     1      14.166  17.045  14.892  1.00  0.00    -0.003 C 
HETATM   10  C18 UNL     1      14.192  16.348  16.186  1.00  0.00     0.009 C 
HETATM   11  C19 UNL     1      15.079  16.781  17.299  1.00  0.00     0.011 C 
HETATM   12  C20 UNL     1      14.673  16.261  18.675  1.00  0.00     0.034 C 
ENDROOT
BRANCH   9  13
HETATM   13  C10 UNL     1      14.320  15.974  13.819  1.00  0.00     0.175 C 
BRANCH  13  14
HETATM   14  O1  UNL     1      14.788  14.768  14.217  1.00  0.00    -0.400 OA
ATOM     15  H1  UNL     1      15.058  14.688  15.124  1.00  0.00     0.209 HD
ENDBRANCH  13  14
ENDBRANCH   9  13
BRANCH   9  16
HETATM   16  C11 UNL     1      15.139  18.122  14.589  1.00  0.00     0.016 C 
HETATM   17  C12 UNL     1      14.503  19.486  14.928  1.00  0.00     0.021 C 
HETATM   18  C13 UNL     1      15.543  18.204  13.131  1.00  0.00     0.018 C 
HETATM   19  C14 UNL     1      17.021  18.048  12.855  1.00  0.00     0.044 C 
HETATM   20  C15 UNL     1      17.855  18.939  13.743  1.00  0.00     0.225 C 
HETATM   21  O4  UNL     1      17.056  19.362  14.807  1.00  0.00    -0.345 OA
HETATM   22  C17 UNL     1      16.400  18.191  15.364  1.00  0.00     0.267 C 
BRANCH  20  23
HETATM   23  C16 UNL     1      18.314  20.166  13.043  1.00  0.00     0.203 C 
HETATM   24  O2  UNL     1      17.520  21.035  12.600  1.00  0.00    -0.646 OA
HETATM   25  O3  UNL     1      19.674  20.411  12.844  1.00  0.00    -0.646 OA
ENDBRANCH  20  23
BRANCH  22  26
HETATM   26  O5  UNL     1      17.358  17.262  15.252  1.00  0.00    -0.370 OA
ATOM     27  H5  UNL     1      17.807  16.903  16.009  1.00  0.00     0.212 HD
ENDBRANCH  22  26
ENDBRANCH   9  16
TORSDOF 5
ENDMDL
MODEL 5
REMARK VINA RESULT: -6.386861260      2.114      6.906
REMARK  5 active torsions:
REMARK  status: ('A' for Active; 'I' for Inactive)
REMARK    1  A    between atoms: C9_9  and  C10_10 
REMARK    2  A    between atoms: C9_9  and  C11_13 
REMARK    3  A    between atoms: C10_10  and  O1_11 
REMARK    4  A    between atoms: C15_17  and  C16_18 
REMARK    5  A    between atoms: C17_22  and  O5_23 
ROOT
HETATM    1  C1  UNL     1      21.762  19.674  12.710  1.00  0.00     0.043 C 
HETATM    2  C2  UNL     1      20.350  19.245  12.439  1.00  0.00    -0.087 C 
HETATM    3  C3  UNL     1      19.566  20.059  11.779  1.00  0.00    -0.015 C 
HETATM    4  C4  UNL     1      18.156  19.550  11.547  1.00  0.00    -0.022 C 
HETATM    5  C5  UNL     1      18.149  18.436  10.544  1.00  0.00     0.020 C 
HETATM    6  C6  UNL     1      17.498  20.727  10.877  1.00  0.00     0.013 C 
HETATM    7  C7  UNL     1      16.055  20.516  10.815  1.00  0.00     0.002 C 
HETATM    8  C8  UNL     1      15.512  19.349  11.565  1.00  0.00     0.013 C 
HETATM    9  C9  UNL     1      16.098  19.201  12.985  1.00  0.00    -0.003 C 
HETATM   10  C18 UNL     1      17.566  19.180  12.898  1.00  0.00     0.009 C 
HETATM   11  C19 UNL     1      18.372  18.045  13.421  1.00  0.00     0.011 C 
HETATM   12  C20 UNL     1      19.791  17.964  12.866  1.00  0.00     0.034 C 
ENDROOT
BRANCH   9  13
HETATM   13  C10 UNL     1      15.718  20.549  13.587  1.00  0.00     0.175 C 
BRANCH  13  14
HETATM   14  O1  UNL     1      16.558  21.067  14.513  1.00  0.00    -0.400 OA
ATOM     15  H1  UNL     1      16.232  21.793  15.032  1.00  0.00     0.209 HD
ENDBRANCH  13  14
ENDBRANCH   9  13
BRANCH   9  16
HETATM   16  C11 UNL     1      15.366  18.155  13.738  1.00  0.00     0.016 C 
HETATM   17  C12 UNL     1      15.541  16.801  13.020  1.00  0.00     0.021 C 
HETATM   18  C13 UNL     1      13.872  18.385  13.832  1.00  0.00     0.018 C 
HETATM   19  C14 UNL     1      13.315  18.490  15.234  1.00  0.00     0.044 C 
HETATM   20  C15 UNL     1      13.787  17.357  16.112  1.00  0.00     0.225 C 
HETATM   21  O4  UNL     1      14.887  16.759  15.494  1.00  0.00    -0.345 OA
HETATM   22  C17 UNL     1      15.810  17.813  15.111  1.00  0.00     0.267 C 
BRANCH  20  23
HETATM   23  C16 UNL     1      12.759  16.296  16.269  1.00  0.00     0.203 C 
HETATM   24  O2  UNL     1      12.610  15.364  15.438  1.00  0.00    -0.646 OA
HETATM   25  O3  UNL     1      11.899  16.290  17.368  1.00  0.00    -0.646 OA
ENDBRANCH  20  23
BRANCH  22  26
HETATM   26  O5  UNL     1      15.689  18.669  16.133  1.00  0.00    -0.370 OA
ATOM     27  H5  UNL     1      14.969  18.621  16.751  1.00  0.00     0.212 HD
ENDBRANCH  22  26
ENDBRANCH   9  16
TORSDOF 5
ENDMDL
