MODEL 1
REMARK VINA RESULT: -6.875556003      0.000      0.000
REMARK  8 active torsions:
REMARK  status: ('A' for Active; 'I' for Inactive)
REMARK    1  A    between atoms: C4_4  and  O1_5 
REMARK    2  A    between atoms: C5_7  and  C6_8 
REMARK    3  A    between atoms: C6_8  and  C7_9 
REMARK    4  A    between atoms: C7_9  and  C8_10 
REMARK    5  A    between atoms: C8_10  and  O2_12 
REMARK    6  A    between atoms: C8_10  and  C10_14 
REMARK    7  A    between atoms: C13_18  and  O4_19 
REMARK    8  A    between atoms: C18_25  and  O5_26 
ROOT
HETATM    1  C1  UNL     1      15.027  16.501  19.762  1.00  0.00     0.036 C 
HETATM    2  C2  UNL     1      15.463  16.665  18.357  1.00  0.00    -0.025 C 
HETATM    3  C3  UNL     1      14.589  16.789  17.357  1.00  0.00    -0.049 C 
HETATM    4  C4  UNL     1      15.142  16.944  16.025  1.00  0.00     0.152 C 
HETATM    5  C5  UNL     1      14.203  17.580  14.983  1.00  0.00     0.027 C 
HETATM    6  C14 UNL     1      12.800  17.168  15.339  1.00  0.00    -0.037 C 
HETATM    7  C15 UNL     1      11.674  17.609  14.498  1.00  0.00     0.015 C 
HETATM    8  C16 UNL     1      12.776  15.639  15.335  1.00  0.00     0.012 C 
HETATM    9  C17 UNL     1      11.910  15.075  16.423  1.00  0.00     0.033 C 
HETATM   10  C18 UNL     1      12.561  15.382  17.766  1.00  0.00     0.126 C 
HETATM   11  C19 UNL     1      13.161  16.755  17.720  1.00  0.00     0.046 C 
HETATM   12  C20 UNL     1      12.422  17.622  16.765  1.00  0.00     0.021 C 
ENDROOT
BRANCH   5  13
HETATM   13  C6  UNL     1      14.498  19.035  15.032  1.00  0.00     0.011 C 
BRANCH  13  14
HETATM   14  C7  UNL     1      14.706  19.805  13.804  1.00  0.00     0.043 C 
BRANCH  14  15
HETATM   15  C8  UNL     1      16.127  20.072  13.388  1.00  0.00     0.086 C 
HETATM   16  C9  UNL     1      16.262  21.408  12.679  1.00  0.00     0.051 C 
BRANCH  15  17
HETATM   17  O2  UNL     1      17.026  20.117  14.435  1.00  0.00    -0.385 OA
ATOM     18  H2  UNL     1      16.733  20.630  15.179  1.00  0.00     0.211 HD
ENDBRANCH  15  17
BRANCH  15  19
HETATM   19  C10 UNL     1      16.597  19.019  12.455  1.00  0.00     0.036 A 
HETATM   20  C11 UNL     1      16.298  18.953  11.106  1.00  0.00     0.039 A 
HETATM   21  C12 UNL     1      16.923  17.833  10.596  1.00  0.00     0.145 A 
HETATM   22  O3  UNL     1      17.568  17.251  11.596  1.00  0.00    -0.300 OA
HETATM   23  C13 UNL     1      17.396  17.927  12.706  1.00  0.00     0.192 A 
BRANCH  23  24
HETATM   24  O4  UNL     1      17.921  17.626  13.975  1.00  0.00    -0.340 OA
ATOM     25  H4  UNL     1      18.232  16.764  14.223  1.00  0.00     0.220 HD
ENDBRANCH  23  24
ENDBRANCH  15  19
ENDBRANCH  14  15
ENDBRANCH  13  14
ENDBRANCH   5  13
BRANCH   4  26
HETATM   26  O1  UNL     1      16.309  17.743  16.157  1.00  0.00    -0.391 OA
ATOM     27  H1  UNL     1      16.162  18.528  15.643  1.00  0.00     0.210 HD
ENDBRANCH   4  26
BRANCH  10  28
HETATM   28  O5  UNL     1      11.536  15.266  18.716  1.00  0.00    -0.395 OA
ATOM     29  H5  UNL     1      11.340  16.154  18.990  1.00  0.00     0.210 HD
ENDBRANCH  10  28
TORSDOF 8
ENDMDL
MODEL 2
REMARK VINA RESULT: -6.784012828      2.623      5.611
REMARK  8 active torsions:
REMARK  status: ('A' for Active; 'I' for Inactive)
REMARK    1  A    between atoms: C4_4  and  O1_5 
REMARK    2  A    between atoms: C5_7  and  C6_8 
REMARK    3  A    between atoms: C6_8  and  C7_9 
REMARK    4  A    between atoms: C7_9  and  C8_10 
REMARK    5  A    between atoms: C8_10  and  O2_12 
REMARK    6  A    between atoms: C8_10  and  C10_14 
REMARK    7  A    between atoms: C13_18  and  O4_19 
REMARK    8  A    between atoms: C18_25  and  O5_26 
ROOT
HETATM    1  C1  UNL     1      10.406  15.382  16.010  1.00  0.00     0.036 C 
HETATM    2  C2  UNL     1      11.725  15.282  15.348  1.00  0.00    -0.025 C 
HETATM    3  C3  UNL     1      12.449  16.362  15.049  1.00  0.00    -0.049 C 
HETATM    4  C4  UNL     1      13.725  16.132  14.401  1.00  0.00     0.152 C 
HETATM    5  C5  UNL     1      14.748  17.277  14.519  1.00  0.00     0.027 C 
HETATM    6  C14 UNL     1      13.972  18.565  14.558  1.00  0.00    -0.037 C 
HETATM    7  C15 UNL     1      14.689  19.849  14.643  1.00  0.00     0.015 C 
HETATM    8  C16 UNL     1      13.139  18.615  13.275  1.00  0.00     0.012 C 
HETATM    9  C17 UNL     1      11.780  19.213  13.496  1.00  0.00     0.033 C 
HETATM   10  C18 UNL     1      10.970  18.263  14.368  1.00  0.00     0.126 C 
HETATM   11  C19 UNL     1      11.866  17.667  15.412  1.00  0.00     0.046 C 
HETATM   12  C20 UNL     1      12.981  18.594  15.741  1.00  0.00     0.021 C 
ENDROOT
BRANCH   5  13
HETATM   13  C6  UNL     1      15.555  16.954  15.724  1.00  0.00     0.011 C 
BRANCH  13  14
HETATM   14  C7  UNL     1      15.160  17.438  17.049  1.00  0.00     0.043 C 
BRANCH  14  15
HETATM   15  C8  UNL     1      14.876  16.406  18.105  1.00  0.00     0.086 C 
HETATM   16  C9  UNL     1      13.447  16.500  18.611  1.00  0.00     0.051 C 
BRANCH  15  17
HETATM   17  O2  UNL     1      15.031  15.101  17.680  1.00  0.00    -0.385 OA
ATOM     18  H2  UNL     1      15.819  14.678  18.001  1.00  0.00     0.211 HD
ENDBRANCH  15  17
BRANCH  15  19
HETATM   19  C10 UNL     1      15.777  16.596  19.267  1.00  0.00     0.036 A 
HETATM   20  C11 UNL     1      15.386  16.580  20.595  1.00  0.00     0.039 A 
HETATM   21  C12 UNL     1      16.513  16.791  21.362  1.00  0.00     0.145 A 
HETATM   22  O3  UNL     1      17.536  16.928  20.532  1.00  0.00    -0.300 OA
HETATM   23  C13 UNL     1      17.135  16.818  19.289  1.00  0.00     0.192 A 
BRANCH  23  24
HETATM   24  O4  UNL     1      17.924  16.904  18.129  1.00  0.00    -0.340 OA
ATOM     25  H4  UNL     1      17.893  17.639  17.528  1.00  0.00     0.220 HD
ENDBRANCH  23  24
ENDBRANCH  15  19
ENDBRANCH  14  15
ENDBRANCH  13  14
ENDBRANCH   5  13
BRANCH   4  26
HETATM   26  O1  UNL     1      14.269  14.953  14.977  1.00  0.00    -0.391 OA
ATOM     27  H1  UNL     1      13.538  14.371  15.151  1.00  0.00     0.210 HD
ENDBRANCH   4  26
BRANCH  10  28
HETATM   28  O5  UNL     1       9.939  19.041  14.914  1.00  0.00    -0.395 OA
ATOM     29  H5  UNL     1       9.395  18.436  15.405  1.00  0.00     0.210 HD
ENDBRANCH  10  28
TORSDOF 8
ENDMDL
MODEL 3
REMARK VINA RESULT: -6.783110622      2.799      4.098
REMARK  8 active torsions:
REMARK  status: ('A' for Active; 'I' for Inactive)
REMARK    1  A    between atoms: C4_4  and  O1_5 
REMARK    2  A    between atoms: C5_7  and  C6_8 
REMARK    3  A    between atoms: C6_8  and  C7_9 
REMARK    4  A    between atoms: C7_9  and  C8_10 
REMARK    5  A    between atoms: C8_10  and  O2_12 
REMARK    6  A    between atoms: C8_10  and  C10_14 
REMARK    7  A    between atoms: C13_18  and  O4_19 
REMARK    8  A    between atoms: C18_25  and  O5_26 
ROOT
HETATM    1  C1  UNL     1      15.292  16.914  19.047  1.00  0.00     0.036 C 
HETATM    2  C2  UNL     1      15.442  16.787  17.581  1.00  0.00    -0.025 C 
HETATM    3  C3  UNL     1      14.392  16.804  16.759  1.00  0.00    -0.049 C 
HETATM    4  C4  UNL     1      14.671  16.672  15.342  1.00  0.00     0.152 C 
HETATM    5  C5  UNL     1      13.572  17.188  14.395  1.00  0.00     0.027 C 
HETATM    6  C14 UNL     1      12.252  16.964  15.083  1.00  0.00    -0.037 C 
HETATM    7  C15 UNL     1      11.001  17.340  14.402  1.00  0.00     0.015 C 
HETATM    8  C16 UNL     1      12.157  15.466  15.375  1.00  0.00     0.012 C 
HETATM    9  C17 UNL     1      11.503  15.179  16.696  1.00  0.00     0.033 C 
HETATM   10  C18 UNL     1      12.425  15.665  17.807  1.00  0.00     0.126 C 
HETATM   11  C19 UNL     1      13.066  16.953  17.386  1.00  0.00     0.046 C 
HETATM   12  C20 UNL     1      12.190  17.695  16.441  1.00  0.00     0.021 C 
ENDROOT
BRANCH   5  13
HETATM   13  C6  UNL     1      13.937  18.599  14.109  1.00  0.00     0.011 C 
BRANCH  13  14
HETATM   14  C7  UNL     1      13.314  19.331  13.003  1.00  0.00     0.043 C 
BRANCH  14  15
HETATM   15  C8  UNL     1      13.016  20.789  13.221  1.00  0.00     0.086 C 
HETATM   16  C9  UNL     1      14.218  21.529  13.782  1.00  0.00     0.051 C 
BRANCH  15  17
HETATM   17  O2  UNL     1      12.663  21.473  12.075  1.00  0.00    -0.385 OA
ATOM     18  H2  UNL     1      11.776  21.815  12.082  1.00  0.00     0.211 HD
ENDBRANCH  15  17
BRANCH  15  19
HETATM   19  C10 UNL     1      11.900  20.948  14.185  1.00  0.00     0.036 A 
HETATM   20  C11 UNL     1      12.036  21.300  15.517  1.00  0.00     0.039 A 
HETATM   21  C12 UNL     1      10.772  21.343  16.066  1.00  0.00     0.145 A 
HETATM   22  O3  UNL     1       9.914  21.030  15.108  1.00  0.00    -0.300 OA
HETATM   23  C13 UNL     1      10.548  20.791  13.986  1.00  0.00     0.192 A 
BRANCH  23  24
HETATM   24  O4  UNL     1       9.984  20.431  12.749  1.00  0.00    -0.340 OA
ATOM     25  H4  UNL     1       9.455  19.652  12.622  1.00  0.00     0.220 HD
ENDBRANCH  23  24
ENDBRANCH  15  19
ENDBRANCH  14  15
ENDBRANCH  13  14
ENDBRANCH   5  13
BRANCH   4  26
HETATM   26  O1  UNL     1      15.876  17.382  15.096  1.00  0.00    -0.391 OA
ATOM     27  H1  UNL     1      15.926  18.071  15.748  1.00  0.00     0.210 HD
ENDBRANCH   4  26
BRANCH  10  28
HETATM   28  O5  UNL     1      11.608  15.806  18.938  1.00  0.00    -0.395 OA
ATOM     29  H5  UNL     1      11.996  16.507  19.447  1.00  0.00     0.210 HD
ENDBRANCH  10  28
TORSDOF 8
ENDMDL
MODEL 4
REMARK VINA RESULT: -6.762128233      0.951      1.048
REMARK  8 active torsions:
REMARK  status: ('A' for Active; 'I' for Inactive)
REMARK    1  A    between atoms: C4_4  and  O1_5 
REMARK    2  A    between atoms: C5_7  and  C6_8 
REMARK    3  A    between atoms: C6_8  and  C7_9 
REMARK    4  A    between atoms: C7_9  and  C8_10 
REMARK    5  A    between atoms: C8_10  and  O2_12 
REMARK    6  A    between atoms: C8_10  and  C10_14 
REMARK    7  A    between atoms: C13_18  and  O4_19 
REMARK    8  A    between atoms: C18_25  and  O5_26 
ROOT
HETATM    1  C1  UNL     1      14.969  16.501  20.204  1.00  0.00     0.036 C 
HETATM    2  C2  UNL     1      15.617  16.511  18.873  1.00  0.00    -0.025 C 
HETATM    3  C3  UNL     1      14.920  16.689  17.750  1.00  0.00    -0.049 C 
HETATM    4  C4  UNL     1      15.670  16.679  16.509  1.00  0.00     0.152 C 
HETATM    5  C5  UNL     1      14.989  17.368  15.313  1.00  0.00     0.027 C 
HETATM    6  C14 UNL     1      13.505  17.177  15.475  1.00  0.00    -0.037 C 
HETATM    7  C15 UNL     1      12.583  17.712  14.458  1.00  0.00     0.015 C 
HETATM    8  C16 UNL     1      13.260  15.668  15.535  1.00  0.00     0.012 C 
HETATM    9  C17 UNL     1      12.178  15.300  16.508  1.00  0.00     0.033 C 
HETATM   10  C18 UNL     1      12.671  15.602  17.917  1.00  0.00     0.126 C 
HETATM   11  C19 UNL     1      13.465  16.874  17.899  1.00  0.00     0.046 C 
HETATM   12  C20 UNL     1      13.000  17.770  16.808  1.00  0.00     0.021 C 
ENDROOT
BRANCH   5  13
HETATM   13  C6  UNL     1      15.481  18.769  15.339  1.00  0.00     0.011 C 
BRANCH  13  14
HETATM   14  C7  UNL     1      15.927  19.437  14.114  1.00  0.00     0.043 C 
BRANCH  14  15
HETATM   15  C8  UNL     1      17.349  19.209  13.681  1.00  0.00     0.086 C 
HETATM   16  C9  UNL     1      18.080  20.519  13.444  1.00  0.00     0.051 C 
BRANCH  15  17
HETATM   17  O2  UNL     1      18.117  18.517  14.597  1.00  0.00    -0.385 OA
ATOM     18  H2  UNL     1      18.273  18.985  15.408  1.00  0.00     0.211 HD
ENDBRANCH  15  17
BRANCH  15  19
HETATM   19  C10 UNL     1      17.384  18.439  12.413  1.00  0.00     0.036 A 
HETATM   20  C11 UNL     1      16.410  18.471  11.430  1.00  0.00     0.039 A 
HETATM   21  C12 UNL     1      16.813  17.624  10.419  1.00  0.00     0.145 A 
HETATM   22  O3  UNL     1      17.978  17.105  10.779  1.00  0.00    -0.300 OA
HETATM   23  C13 UNL     1      18.342  17.567  11.950  1.00  0.00     0.192 A 
BRANCH  23  24
HETATM   24  O4  UNL     1      19.513  17.253  12.662  1.00  0.00    -0.340 OA
ATOM     25  H4  UNL     1      20.330  17.009  12.245  1.00  0.00     0.220 HD
ENDBRANCH  23  24
ENDBRANCH  15  19
ENDBRANCH  14  15
ENDBRANCH  13  14
ENDBRANCH   5  13
BRANCH   4  26
HETATM   26  O1  UNL     1      16.910  17.317  16.777  1.00  0.00    -0.391 OA
ATOM     27  H1  UNL     1      17.182  17.736  15.968  1.00  0.00     0.210 HD
ENDBRANCH   4  26
BRANCH  10  28
HETATM   28  O5  UNL     1      11.517  15.690  18.709  1.00  0.00    -0.395 OA
ATOM     29  H5  UNL     1      11.149  16.547  18.528  1.00  0.00     0.210 HD
ENDBRANCH  10  28
TORSDOF 8
ENDMDL
MODEL 5
REMARK VINA RESULT: -6.623781296      2.891      4.624
REMARK  8 active torsions:
REMARK  status: ('A' for Active; 'I' for Inactive)
REMARK    1  A    between atoms: C4_4  and  O1_5 
REMARK    2  A    between atoms: C5_7  and  C6_8 
REMARK    3  A    between atoms: C6_8  and  C7_9 
REMARK    4  A    between atoms: C7_9  and  C8_10 
REMARK    5  A    between atoms: C8_10  and  O2_12 
REMARK    6  A    between atoms: C8_10  and  C10_14 
REMARK    7  A    between atoms: C13_18  and  O4_19 
REMARK    8  A    between atoms: C18_25  and  O5_26 
ROOT
HETATM    1  C1  UNL     1      17.145  18.034  19.202  1.00  0.00     0.036 C 
HETATM    2  C2  UNL     1      16.618  17.623  17.883  1.00  0.00    -0.025 C 
HETATM    3  C3  UNL     1      15.435  17.020  17.751  1.00  0.00    -0.049 C 
HETATM    4  C4  UNL     1      15.030  16.667  16.404  1.00  0.00     0.152 C 
HETATM    5  C5  UNL     1      13.519  16.455  16.197  1.00  0.00     0.027 C 
HETATM    6  C14 UNL     1      12.966  15.903  17.483  1.00  0.00    -0.037 C 
HETATM    7  C15 UNL     1      11.534  15.573  17.581  1.00  0.00     0.015 C 
HETATM    8  C16 UNL     1      13.732  14.611  17.772  1.00  0.00     0.012 C 
HETATM    9  C17 UNL     1      14.008  14.422  19.235  1.00  0.00     0.033 C 
HETATM   10  C18 UNL     1      14.998  15.490  19.683  1.00  0.00     0.126 C 
HETATM   11  C19 UNL     1      14.676  16.781  18.991  1.00  0.00     0.046 C 
HETATM   12  C20 UNL     1      13.227  16.858  18.667  1.00  0.00     0.021 C 
ENDROOT
BRANCH   5  13
HETATM   13  C6  UNL     1      12.997  17.778  15.767  1.00  0.00     0.011 C 
BRANCH  13  14
HETATM   14  C7  UNL     1      11.861  17.881  14.848  1.00  0.00     0.043 C 
BRANCH  14  15
HETATM   15  C8  UNL     1      11.864  19.024  13.870  1.00  0.00     0.086 C 
HETATM   16  C9  UNL     1      13.154  19.073  13.071  1.00  0.00     0.051 C 
BRANCH  15  17
HETATM   17  O2  UNL     1      10.851  18.971  12.933  1.00  0.00    -0.385 OA
ATOM     18  H2  UNL     1      10.913  19.631  12.253  1.00  0.00     0.211 HD
ENDBRANCH  15  17
BRANCH  15  19
HETATM   19  C10 UNL     1      11.728  20.315  14.586  1.00  0.00     0.036 A 
HETATM   20  C11 UNL     1      12.687  21.313  14.627  1.00  0.00     0.039 A 
HETATM   21  C12 UNL     1      12.180  22.345  15.388  1.00  0.00     0.145 A 
HETATM   22  O3  UNL     1      10.970  21.984  15.789  1.00  0.00    -0.300 OA
HETATM   23  C13 UNL     1      10.674  20.791  15.332  1.00  0.00     0.192 A 
BRANCH  23  24
HETATM   24  O4  UNL     1       9.485  20.070  15.541  1.00  0.00    -0.340 OA
ATOM     25  H4  UNL     1       9.045  20.019  16.381  1.00  0.00     0.220 HD
ENDBRANCH  23  24
ENDBRANCH  15  19
ENDBRANCH  14  15
ENDBRANCH  13  14
ENDBRANCH   5  13
BRANCH   4  26
HETATM   26  O1  UNL     1      15.480  17.712  15.555  1.00  0.00    -0.391 OA
ATOM     27  H1  UNL     1      16.116  18.214  16.052  1.00  0.00     0.210 HD
ENDBRANCH   4  26
BRANCH  10  28
HETATM   28  O5  UNL     1      14.862  15.567  21.076  1.00  0.00    -0.395 OA
ATOM     29  H5  UNL     1      15.110  16.455  21.307  1.00  0.00     0.210 HD
ENDBRANCH  10  28
TORSDOF 8
ENDMDL
