MODEL 1
REMARK VINA RESULT: -6.397194954      0.000      0.000
REMARK  6 active torsions:
REMARK  status: ('A' for Active; 'I' for Inactive)
REMARK    1  A    between atoms: C5_5  and  C6_6 
REMARK    2  A    between atoms: C6_6  and  S1_7 
REMARK    3  A    between atoms: C9_12  and  O2_13 
REMARK    4  A    between atoms: C11_16  and  C12_17 
REMARK    5  A    between atoms: C12_17  and  O3_18 
REMARK    6  A    between atoms: C13_20  and  O4_21 
ROOT
HETATM    1  C1  UNL     1      16.497  17.846  15.431  1.00  0.00     0.018 C 
HETATM    2  C2  UNL     1      15.135  18.062  14.766  1.00  0.00    -0.010 C 
HETATM    3  C3  UNL     1      15.004  19.586  14.615  1.00  0.00     0.015 C 
HETATM    4  C4  UNL     1      16.330  20.044  13.993  1.00  0.00     0.034 C 
HETATM    5  C5  UNL     1      16.489  19.404  12.656  1.00  0.00     0.132 C 
HETATM    6  O1  UNL     1      16.278  18.057  12.635  1.00  0.00    -0.379 OA
HETATM    7  C7  UNL     1      15.200  17.578  13.309  1.00  0.00     0.133 C 
HETATM    8  C8  UNL     1      15.310  16.083  13.391  1.00  0.00     0.065 C 
HETATM    9  C9  UNL     1      14.102  15.471  13.967  1.00  0.00     0.126 C 
HETATM   10  C10 UNL     1      13.246  16.384  14.837  1.00  0.00     0.032 C 
HETATM   11  C11 UNL     1      12.336  15.593  15.683  1.00  0.00     0.045 C 
HETATM   12  C13 UNL     1      12.434  15.697  17.157  1.00  0.00     0.124 C 
HETATM   13  C14 UNL     1      13.425  16.622  17.736  1.00  0.00     0.033 C 
HETATM   14  C15 UNL     1      14.588  16.818  16.800  1.00  0.00     0.013 C 
HETATM   15  C16 UNL     1      14.033  17.450  15.536  1.00  0.00    -0.028 C 
HETATM   16  C17 UNL     1      13.100  18.556  15.981  1.00  0.00     0.016 C 
ENDROOT
BRANCH   5  17
HETATM   17  C6  UNL     1      15.686  20.152  11.583  1.00  0.00     0.118 C 
BRANCH  17  18
HETATM   18  S1  UNL     1      16.634  20.141  10.024  1.00  0.00    -0.083 SA
HETATM   19  S2  UNL     1      16.410  18.283   9.025  1.00  0.00    -0.013 SA
ENDBRANCH  17  18
ENDBRANCH   5  17
BRANCH   9  20
HETATM   20  O2  UNL     1      14.399  14.293  14.693  1.00  0.00    -0.395 OA
ATOM     21  H2  UNL     1      13.738  14.103  15.349  1.00  0.00     0.210 HD
ENDBRANCH   9  20
BRANCH  11  22
HETATM   22  C12 UNL     1      10.860  15.737  15.258  1.00  0.00     0.171 C 
BRANCH  22  23
HETATM   23  O3  UNL     1      10.029  15.762  16.364  1.00  0.00    -0.400 OA
ATOM     24  H3  UNL     1      10.339  15.166  17.035  1.00  0.00     0.209 HD
ENDBRANCH  22  23
ENDBRANCH  11  22
BRANCH  12  25
HETATM   25  O4  UNL     1      12.594  14.432  17.781  1.00  0.00    -0.395 OA
ATOM     26  H4  UNL     1      12.247  14.416  18.665  1.00  0.00     0.210 HD
ENDBRANCH  12  25
TORSDOF 6
ENDMDL
MODEL 2
REMARK VINA RESULT: -5.810479712      2.378      3.405
REMARK  6 active torsions:
REMARK  status: ('A' for Active; 'I' for Inactive)
REMARK    1  A    between atoms: C5_5  and  C6_6 
REMARK    2  A    between atoms: C6_6  and  S1_7 
REMARK    3  A    between atoms: C9_12  and  O2_13 
REMARK    4  A    between atoms: C11_16  and  C12_17 
REMARK    5  A    between atoms: C12_17  and  O3_18 
REMARK    6  A    between atoms: C13_20  and  O4_21 
ROOT
HETATM    1  C1  UNL     1      14.804  19.104  14.758  1.00  0.00     0.018 C 
HETATM    2  C2  UNL     1      15.240  17.644  14.902  1.00  0.00    -0.010 C 
HETATM    3  C3  UNL     1      15.146  17.060  13.483  1.00  0.00     0.015 C 
HETATM    4  C4  UNL     1      15.867  18.072  12.582  1.00  0.00     0.034 C 
HETATM    5  C5  UNL     1      17.293  18.174  13.006  1.00  0.00     0.132 C 
HETATM    6  O1  UNL     1      17.483  18.357  14.344  1.00  0.00    -0.379 OA
HETATM    7  C7  UNL     1      16.748  17.593  15.194  1.00  0.00     0.133 C 
HETATM    8  C8  UNL     1      16.902  18.137  16.585  1.00  0.00     0.065 C 
HETATM    9  C9  UNL     1      16.265  17.272  17.590  1.00  0.00     0.126 C 
HETATM   10  C10 UNL     1      15.164  16.355  17.074  1.00  0.00     0.032 C 
HETATM   11  C11 UNL     1      14.329  15.868  18.186  1.00  0.00     0.045 C 
HETATM   12  C13 UNL     1      12.882  16.185  18.205  1.00  0.00     0.124 C 
HETATM   13  C14 UNL     1      12.311  16.954  17.084  1.00  0.00     0.033 C 
HETATM   14  C15 UNL     1      13.357  17.834  16.451  1.00  0.00     0.013 C 
HETATM   15  C16 UNL     1      14.427  16.913  15.894  1.00  0.00    -0.028 C 
HETATM   16  C17 UNL     1      13.703  15.794  15.176  1.00  0.00     0.016 C 
ENDROOT
BRANCH   5  17
HETATM   17  C6  UNL     1      18.126  17.019  12.435  1.00  0.00     0.118 C 
BRANCH  17  18
HETATM   18  S1  UNL     1      19.847  17.585  12.220  1.00  0.00    -0.083 SA
HETATM   19  S2  UNL     1      21.179  15.935  12.186  1.00  0.00    -0.013 SA
ENDBRANCH  17  18
ENDBRANCH   5  17
BRANCH   9  20
HETATM   20  O2  UNL     1      15.767  18.013  18.688  1.00  0.00    -0.395 OA
ATOM     21  H2  UNL     1      16.453  18.497  19.132  1.00  0.00     0.210 HD
ENDBRANCH   9  20
BRANCH  11  22
HETATM   22  C12 UNL     1      14.525  14.362  18.457  1.00  0.00     0.171 C 
BRANCH  22  23
HETATM   23  O3  UNL     1      13.333  13.769  18.832  1.00  0.00    -0.400 OA
ATOM     24  H3  UNL     1      13.466  12.857  19.063  1.00  0.00     0.209 HD
ENDBRANCH  22  23
ENDBRANCH  11  22
BRANCH  12  25
HETATM   25  O4  UNL     1      12.478  16.804  19.417  1.00  0.00    -0.395 OA
ATOM     26  H4  UNL     1      12.530  16.215  20.160  1.00  0.00     0.210 HD
ENDBRANCH  12  25
TORSDOF 6
ENDMDL
MODEL 3
REMARK VINA RESULT: -5.789531341      3.253      5.896
REMARK  6 active torsions:
REMARK  status: ('A' for Active; 'I' for Inactive)
REMARK    1  A    between atoms: C5_5  and  C6_6 
REMARK    2  A    between atoms: C6_6  and  S1_7 
REMARK    3  A    between atoms: C9_12  and  O2_13 
REMARK    4  A    between atoms: C11_16  and  C12_17 
REMARK    5  A    between atoms: C12_17  and  O3_18 
REMARK    6  A    between atoms: C13_20  and  O4_21 
ROOT
HETATM    1  C1  UNL     1      12.943  17.413  16.693  1.00  0.00     0.018 C 
HETATM    2  C2  UNL     1      12.923  17.288  15.168  1.00  0.00    -0.010 C 
HETATM    3  C3  UNL     1      12.320  15.902  14.890  1.00  0.00     0.015 C 
HETATM    4  C4  UNL     1      11.058  15.831  15.760  1.00  0.00     0.034 C 
HETATM    5  C5  UNL     1      10.111  16.901  15.334  1.00  0.00     0.132 C 
HETATM    6  O1  UNL     1      10.662  18.143  15.220  1.00  0.00    -0.379 OA
HETATM    7  C7  UNL     1      11.864  18.243  14.595  1.00  0.00     0.133 C 
HETATM    8  C8  UNL     1      12.410  19.623  14.820  1.00  0.00     0.065 C 
HETATM    9  C9  UNL     1      13.636  19.866  14.044  1.00  0.00     0.126 C 
HETATM   10  C10 UNL     1      14.410  18.623  13.622  1.00  0.00     0.032 C 
HETATM   11  C11 UNL     1      15.791  18.975  13.243  1.00  0.00     0.045 C 
HETATM   12  C13 UNL     1      16.925  18.387  13.992  1.00  0.00     0.124 C 
HETATM   13  C14 UNL     1      16.637  17.434  15.080  1.00  0.00     0.033 C 
HETATM   14  C15 UNL     1      15.280  17.698  15.678  1.00  0.00     0.013 C 
HETATM   15  C16 UNL     1      14.262  17.476  14.574  1.00  0.00    -0.028 C 
HETATM   16  C17 UNL     1      14.653  16.190  13.878  1.00  0.00     0.016 C 
ENDROOT
BRANCH   5  17
HETATM   17  C6  UNL     1       9.320  16.480  14.089  1.00  0.00     0.118 C 
BRANCH  17  18
HETATM   18  S1  UNL     1       8.518  17.955  13.373  1.00  0.00    -0.083 SA
HETATM   19  S2  UNL     1       8.087  17.649  11.319  1.00  0.00    -0.013 SA
ENDBRANCH  17  18
ENDBRANCH   5  17
BRANCH   9  20
HETATM   20  O2  UNL     1      14.518  20.751  14.708  1.00  0.00    -0.395 OA
ATOM     21  H2  UNL     1      14.057  21.340  15.294  1.00  0.00     0.210 HD
ENDBRANCH   9  20
BRANCH  11  22
HETATM   22  C12 UNL     1      16.045  18.823  11.729  1.00  0.00     0.171 C 
BRANCH  22  23
HETATM   23  O3  UNL     1      17.308  18.311  11.490  1.00  0.00    -0.400 OA
ATOM     24  H3  UNL     1      17.564  18.450  10.586  1.00  0.00     0.209 HD
ENDBRANCH  22  23
ENDBRANCH  11  22
BRANCH  12  25
HETATM   25  O4  UNL     1      17.813  19.374  14.494  1.00  0.00    -0.395 OA
ATOM     26  H4  UNL     1      18.228  19.875  13.801  1.00  0.00     0.210 HD
ENDBRANCH  12  25
TORSDOF 6
ENDMDL
MODEL 4
REMARK VINA RESULT: -5.708505726      3.519      6.152
REMARK  6 active torsions:
REMARK  status: ('A' for Active; 'I' for Inactive)
REMARK    1  A    between atoms: C5_5  and  C6_6 
REMARK    2  A    between atoms: C6_6  and  S1_7 
REMARK    3  A    between atoms: C9_12  and  O2_13 
REMARK    4  A    between atoms: C11_16  and  C12_17 
REMARK    5  A    between atoms: C12_17  and  O3_18 
REMARK    6  A    between atoms: C13_20  and  O4_21 
ROOT
HETATM    1  C1  UNL     1      13.893  16.801  13.866  1.00  0.00     0.018 C 
HETATM    2  C2  UNL     1      14.358  18.258  13.818  1.00  0.00    -0.010 C 
HETATM    3  C3  UNL     1      13.252  19.004  13.054  1.00  0.00     0.015 C 
HETATM    4  C4  UNL     1      11.939  18.557  13.711  1.00  0.00     0.034 C 
HETATM    5  C5  UNL     1      11.945  18.970  15.144  1.00  0.00     0.132 C 
HETATM    6  O1  UNL     1      13.074  18.638  15.832  1.00  0.00    -0.379 OA
HETATM    7  C7  UNL     1      14.270  18.865  15.227  1.00  0.00     0.133 C 
HETATM    8  C8  UNL     1      15.347  18.186  16.021  1.00  0.00     0.065 C 
HETATM    9  C9  UNL     1      16.692  18.515  15.522  1.00  0.00     0.126 C 
HETATM   10  C10 UNL     1      16.766  18.982  14.073  1.00  0.00     0.032 C 
HETATM   11  C11 UNL     1      18.144  18.872  13.562  1.00  0.00     0.045 C 
HETATM   12  C13 UNL     1      18.423  17.995  12.401  1.00  0.00     0.124 C 
HETATM   13  C14 UNL     1      17.301  17.280  11.768  1.00  0.00     0.033 C 
HETATM   14  C15 UNL     1      16.193  17.036  12.759  1.00  0.00     0.013 C 
HETATM   15  C16 UNL     1      15.694  18.399  13.204  1.00  0.00    -0.028 C 
HETATM   16  C17 UNL     1      15.550  19.237  11.951  1.00  0.00     0.016 C 
ENDROOT
BRANCH   5  17
HETATM   17  C6  UNL     1      11.562  20.447  15.298  1.00  0.00     0.118 C 
BRANCH  17  18
HETATM   18  S1  UNL     1       9.838  20.670  14.741  1.00  0.00    -0.083 SA
HETATM   19  S2  UNL     1       9.488  22.685  14.179  1.00  0.00    -0.013 SA
ENDBRANCH  17  18
ENDBRANCH   5  17
BRANCH   9  20
HETATM   20  O2  UNL     1      17.602  17.448  15.707  1.00  0.00    -0.395 OA
ATOM     21  H2  UNL     1      18.242  17.638  16.382  1.00  0.00     0.210 HD
ENDBRANCH   9  20
BRANCH  11  22
HETATM   22  C12 UNL     1      18.800  20.249  13.331  1.00  0.00     0.171 C 
BRANCH  22  23
HETATM   23  O3  UNL     1      20.179  20.146  13.340  1.00  0.00    -0.400 OA
ATOM     24  H3  UNL     1      20.530  20.374  14.193  1.00  0.00     0.209 HD
ENDBRANCH  22  23
ENDBRANCH  11  22
BRANCH  12  25
HETATM   25  O4  UNL     1      19.452  17.054  12.669  1.00  0.00    -0.395 OA
ATOM     26  H4  UNL     1      19.110  16.196  12.890  1.00  0.00     0.210 HD
ENDBRANCH  12  25
TORSDOF 6
ENDMDL
MODEL 5
REMARK VINA RESULT: -5.648309157      3.707      6.490
REMARK  6 active torsions:
REMARK  status: ('A' for Active; 'I' for Inactive)
REMARK    1  A    between atoms: C5_5  and  C6_6 
REMARK    2  A    between atoms: C6_6  and  S1_7 
REMARK    3  A    between atoms: C9_12  and  O2_13 
REMARK    4  A    between atoms: C11_16  and  C12_17 
REMARK    5  A    between atoms: C12_17  and  O3_18 
REMARK    6  A    between atoms: C13_20  and  O4_21 
ROOT
HETATM    1  C1  UNL     1      15.486  16.434  13.496  1.00  0.00     0.018 C 
HETATM    2  C2  UNL     1      14.834  17.680  14.102  1.00  0.00    -0.010 C 
HETATM    3  C3  UNL     1      13.338  17.340  14.195  1.00  0.00     0.015 C 
HETATM    4  C4  UNL     1      13.280  15.953  14.850  1.00  0.00     0.034 C 
HETATM    5  C5  UNL     1      13.879  16.032  16.214  1.00  0.00     0.132 C 
HETATM    6  O1  UNL     1      15.095  16.647  16.273  1.00  0.00    -0.379 OA
HETATM    7  C7  UNL     1      15.250  17.803  15.577  1.00  0.00     0.133 C 
HETATM    8  C8  UNL     1      16.709  18.155  15.550  1.00  0.00     0.065 C 
HETATM    9  C9  UNL     1      16.947  19.478  14.950  1.00  0.00     0.126 C 
HETATM   10  C10 UNL     1      15.855  19.990  14.019  1.00  0.00     0.032 C 
HETATM   11  C11 UNL     1      16.367  21.078  13.167  1.00  0.00     0.045 C 
HETATM   12  C13 UNL     1      16.363  20.916  11.695  1.00  0.00     0.124 C 
HETATM   13  C14 UNL     1      15.812  19.674  11.121  1.00  0.00     0.033 C 
HETATM   14  C15 UNL     1      15.940  18.531  12.094  1.00  0.00     0.013 C 
HETATM   15  C16 UNL     1      15.113  18.896  13.313  1.00  0.00    -0.028 C 
HETATM   16  C17 UNL     1      13.796  19.434  12.796  1.00  0.00     0.016 C 
ENDROOT
BRANCH   5  17
HETATM   17  C6  UNL     1      12.875  16.593  17.229  1.00  0.00     0.118 C 
BRANCH  17  18
HETATM   18  S1  UNL     1      12.330  15.241  18.327  1.00  0.00    -0.083 SA
HETATM   19  S2  UNL     1      14.001  14.267  19.199  1.00  0.00    -0.013 SA
ENDBRANCH  17  18
ENDBRANCH   5  17
BRANCH   9  20
HETATM   20  O2  UNL     1      18.190  19.540  14.277  1.00  0.00    -0.395 OA
ATOM     21  H2  UNL     1      18.867  19.933  14.815  1.00  0.00     0.210 HD
ENDBRANCH   9  20
BRANCH  11  22
HETATM   22  C12 UNL     1      15.760  22.449  13.531  1.00  0.00     0.171 C 
BRANCH  22  23
HETATM   23  O3  UNL     1      14.738  22.307  14.453  1.00  0.00    -0.400 OA
ATOM     24  H3  UNL     1      14.473  23.151  14.797  1.00  0.00     0.209 HD
ENDBRANCH  22  23
ENDBRANCH  11  22
BRANCH  12  25
HETATM   25  O4  UNL     1      17.643  21.136  11.122  1.00  0.00    -0.395 OA
ATOM     26  H4  UNL     1      18.220  21.622  11.699  1.00  0.00     0.210 HD
ENDBRANCH  12  25
TORSDOF 6
ENDMDL
