MODEL 1
REMARK VINA RESULT: -6.392651074      0.000      0.000
REMARK  4 active torsions:
REMARK  status: ('A' for Active; 'I' for Inactive)
REMARK    1  A    between atoms: C3_3  and  C4_4 
REMARK    2  A    between atoms: C4_4  and  S1_5 
REMARK    3  A    between atoms: S1_5  and  C5_6 
REMARK    4  A    between atoms: N3_12  and  C7_14 
ROOT
HETATM    1  C5  UNL     1      14.943  -5.722  21.269  1.00  0.00     0.130 A 
HETATM    2  N1  UNL     1      14.745  -7.018  21.106  1.00  0.00    -0.286 N 
ATOM      3  H1  UNL     1      13.826  -7.419  21.294  1.00  0.00     0.188 HD
HETATM    4  N2  UNL     1      15.694  -7.768  20.716  1.00  0.00    -0.279 N 
ATOM      5  H2  UNL     1      15.545  -8.770  20.590  1.00  0.00     0.189 HD
HETATM    6  C6  UNL     1      16.889  -7.223  20.475  1.00  0.00     0.162 A 
HETATM    7  N3  UNL     1      18.000  -7.792  20.070  1.00  0.00    -0.365 N 
ATOM      8  H3  UNL     1      18.857  -7.258  19.921  1.00  0.00     0.162 HD
HETATM    9  S2  UNL     1      16.584  -5.568  20.838  1.00  0.00    -0.027 SA
ENDROOT
BRANCH   1  10
HETATM   10  S1  UNL     1      13.836  -4.410  21.797  1.00  0.00    -0.103 SA
BRANCH  10  11
HETATM   11  C4  UNL     1      14.712  -3.115  22.673  1.00  0.00     0.086 C 
BRANCH  11  12
HETATM   12  C3  UNL     1      14.712  -3.446  24.140  1.00  0.00    -0.005 A 
HETATM   13  C1  UNL     1      16.091  -3.387  24.814  1.00  0.00     0.006 A 
HETATM   14  C2  UNL     1      15.395  -4.705  24.609  1.00  0.00     0.006 A 
ENDBRANCH  11  12
ENDBRANCH  10  11
ENDBRANCH   1  10
BRANCH   7  15
HETATM   15  C7  UNL     1      17.938  -9.218  19.848  1.00  0.00     0.083 A 
HETATM   16  C8  UNL     1      19.171 -10.006  19.639  1.00  0.00     0.027 A 
HETATM   17  C9  UNL     1      18.443 -10.056  20.998  1.00  0.00     0.027 A 
ENDBRANCH   7  15
TORSDOF 4
ENDMDL
MODEL 2
REMARK VINA RESULT: -6.230672824      2.188      3.084
REMARK  4 active torsions:
REMARK  status: ('A' for Active; 'I' for Inactive)
REMARK    1  A    between atoms: C3_3  and  C4_4 
REMARK    2  A    between atoms: C4_4  and  S1_5 
REMARK    3  A    between atoms: S1_5  and  C5_6 
REMARK    4  A    between atoms: N3_12  and  C7_14 
ROOT
HETATM    1  C5  UNL     1      14.977  -5.591  21.431  1.00  0.00     0.130 A 
HETATM    2  N1  UNL     1      14.733  -6.876  21.245  1.00  0.00    -0.286 N 
ATOM      3  H1  UNL     1      13.803  -7.249  21.436  1.00  0.00     0.188 HD
HETATM    4  N2  UNL     1      15.651  -7.650  20.830  1.00  0.00    -0.279 N 
ATOM      5  H2  UNL     1      15.467  -8.643  20.685  1.00  0.00     0.189 HD
HETATM    6  C6  UNL     1      16.861  -7.142  20.585  1.00  0.00     0.162 A 
HETATM    7  N3  UNL     1      17.948  -7.739  20.156  1.00  0.00    -0.365 N 
ATOM      8  H3  UNL     1      18.820  -7.232  20.007  1.00  0.00     0.162 HD
HETATM    9  S2  UNL     1      16.618  -5.484  20.983  1.00  0.00    -0.027 SA
ENDROOT
BRANCH   1  10
HETATM   10  S1  UNL     1      13.922  -4.253  21.998  1.00  0.00    -0.103 SA
BRANCH  10  11
HETATM   11  C4  UNL     1      12.195  -4.571  21.642  1.00  0.00     0.086 C 
BRANCH  11  12
HETATM   12  C3  UNL     1      11.931  -4.222  20.203  1.00  0.00    -0.005 A 
HETATM   13  C1  UNL     1      10.801  -3.205  19.983  1.00  0.00     0.006 A 
HETATM   14  C2  UNL     1      10.628  -4.642  19.573  1.00  0.00     0.006 A 
ENDBRANCH  11  12
ENDBRANCH  10  11
ENDBRANCH   1  10
BRANCH   7  15
HETATM   15  C7  UNL     1      17.835  -9.158  19.907  1.00  0.00     0.083 A 
HETATM   16  C8  UNL     1      19.040  -9.995  19.732  1.00  0.00     0.027 A 
HETATM   17  C9  UNL     1      18.257 -10.035  21.060  1.00  0.00     0.027 A 
ENDBRANCH   7  15
TORSDOF 4
ENDMDL
MODEL 3
REMARK VINA RESULT: -6.210560337      5.907      7.001
REMARK  4 active torsions:
REMARK  status: ('A' for Active; 'I' for Inactive)
REMARK    1  A    between atoms: C3_3  and  C4_4 
REMARK    2  A    between atoms: C4_4  and  S1_5 
REMARK    3  A    between atoms: S1_5  and  C5_6 
REMARK    4  A    between atoms: N3_12  and  C7_14 
ROOT
HETATM    1  C5  UNL     1      11.277  -2.324  22.875  1.00  0.00     0.130 A 
HETATM    2  N1  UNL     1      11.968  -1.248  23.203  1.00  0.00    -0.286 N 
ATOM      3  H1  UNL     1      11.668  -0.672  23.991  1.00  0.00     0.188 HD
HETATM    4  N2  UNL     1      13.005  -0.924  22.543  1.00  0.00    -0.279 N 
ATOM      5  H2  UNL     1      13.541  -0.093  22.793  1.00  0.00     0.189 HD
HETATM    6  C6  UNL     1      13.380  -1.691  21.517  1.00  0.00     0.162 A 
HETATM    7  N3  UNL     1      14.401  -1.558  20.703  1.00  0.00    -0.365 N 
ATOM      8  H3  UNL     1      14.581  -2.221  19.948  1.00  0.00     0.162 HD
HETATM    9  S2  UNL     1      12.164  -2.910  21.543  1.00  0.00    -0.027 SA
ENDROOT
BRANCH   1  10
HETATM   10  S1  UNL     1       9.795  -3.046  23.588  1.00  0.00    -0.103 SA
BRANCH  10  11
HETATM   11  C4  UNL     1       9.577  -4.751  23.083  1.00  0.00     0.086 C 
BRANCH  11  12
HETATM   12  C3  UNL     1      10.228  -5.640  24.106  1.00  0.00    -0.005 A 
HETATM   13  C1  UNL     1      11.639  -6.122  23.737  1.00  0.00     0.006 A 
HETATM   14  C2  UNL     1      10.485  -7.086  23.766  1.00  0.00     0.006 A 
ENDBRANCH  11  12
ENDBRANCH  10  11
ENDBRANCH   1  10
BRANCH   7  15
HETATM   15  C7  UNL     1      15.255  -0.416  20.939  1.00  0.00     0.083 A 
HETATM   16  C8  UNL     1      16.711  -0.497  20.698  1.00  0.00     0.027 A 
HETATM   17  C9  UNL     1      15.799   0.232  19.689  1.00  0.00     0.027 A 
ENDBRANCH   7  15
TORSDOF 4
ENDMDL
MODEL 4
REMARK VINA RESULT: -6.203458422      4.813      6.363
REMARK  4 active torsions:
REMARK  status: ('A' for Active; 'I' for Inactive)
REMARK    1  A    between atoms: C3_3  and  C4_4 
REMARK    2  A    between atoms: C4_4  and  S1_5 
REMARK    3  A    between atoms: S1_5  and  C5_6 
REMARK    4  A    between atoms: N3_12  and  C7_14 
ROOT
HETATM    1  C5  UNL     1      12.414  -1.681  22.309  1.00  0.00     0.130 A 
HETATM    2  N1  UNL     1      13.490  -0.932  22.146  1.00  0.00    -0.286 N 
ATOM      3  H1  UNL     1      13.410  -0.021  21.693  1.00  0.00     0.188 HD
HETATM    4  N2  UNL     1      14.624  -1.341  22.548  1.00  0.00    -0.279 N 
ATOM      5  H2  UNL     1      15.457  -0.766  22.423  1.00  0.00     0.189 HD
HETATM    6  C6  UNL     1      14.706  -2.536  23.138  1.00  0.00     0.162 A 
HETATM    7  N3  UNL     1      15.753  -3.157  23.628  1.00  0.00    -0.365 N 
ATOM      8  H3  UNL     1      15.682  -4.079  24.059  1.00  0.00     0.162 HD
HETATM    9  S2  UNL     1      13.063  -3.051  23.087  1.00  0.00    -0.027 SA
ENDROOT
BRANCH   1  10
HETATM   10  S1  UNL     1      10.697  -1.404  21.863  1.00  0.00    -0.103 SA
BRANCH  10  11
HETATM   11  C4  UNL     1       9.916  -2.902  21.264  1.00  0.00     0.086 C 
BRANCH  11  12
HETATM   12  C3  UNL     1      10.557  -3.286  19.959  1.00  0.00    -0.005 A 
HETATM   13  C1  UNL     1      10.177  -4.682  19.442  1.00  0.00     0.006 A 
HETATM   14  C2  UNL     1      11.569  -4.403  19.939  1.00  0.00     0.006 A 
ENDBRANCH  11  12
ENDBRANCH  10  11
ENDBRANCH   1  10
BRANCH   7  15
HETATM   15  C7  UNL     1      17.012  -2.456  23.520  1.00  0.00     0.083 A 
HETATM   16  C8  UNL     1      18.265  -3.071  24.008  1.00  0.00     0.027 A 
HETATM   17  C9  UNL     1      17.964  -3.026  22.496  1.00  0.00     0.027 A 
ENDBRANCH   7  15
TORSDOF 4
ENDMDL
MODEL 5
REMARK VINA RESULT: -6.063652483      3.932      7.411
REMARK  4 active torsions:
REMARK  status: ('A' for Active; 'I' for Inactive)
REMARK    1  A    between atoms: C3_3  and  C4_4 
REMARK    2  A    between atoms: C4_4  and  S1_5 
REMARK    3  A    between atoms: S1_5  and  C5_6 
REMARK    4  A    between atoms: N3_12  and  C7_14 
ROOT
HETATM    1  C5  UNL     1      15.364  -2.369  22.185  1.00  0.00     0.130 A 
HETATM    2  N1  UNL     1      14.773  -2.375  23.366  1.00  0.00    -0.286 N 
ATOM      3  H1  UNL     1      15.289  -2.683  24.191  1.00  0.00     0.188 HD
HETATM    4  N2  UNL     1      13.564  -1.999  23.481  1.00  0.00    -0.279 N 
ATOM      5  H2  UNL     1      13.103  -2.003  24.391  1.00  0.00     0.189 HD
HETATM    6  C6  UNL     1      12.907  -1.599  22.390  1.00  0.00     0.162 A 
HETATM    7  N3  UNL     1      11.672  -1.174  22.266  1.00  0.00    -0.365 N 
ATOM      8  H3  UNL     1      11.284  -0.894  21.365  1.00  0.00     0.162 HD
HETATM    9  S2  UNL     1      14.117  -1.790  21.179  1.00  0.00    -0.027 SA
ENDROOT
BRANCH   1  10
HETATM   10  S1  UNL     1      17.027  -2.829  21.689  1.00  0.00    -0.103 SA
BRANCH  10  11
HETATM   11  C4  UNL     1      17.301  -4.594  21.837  1.00  0.00     0.086 C 
BRANCH  11  12
HETATM   12  C3  UNL     1      16.015  -5.306  21.519  1.00  0.00    -0.005 A 
HETATM   13  C1  UNL     1      15.467  -6.183  22.655  1.00  0.00     0.006 A 
HETATM   14  C2  UNL     1      16.017  -6.808  21.403  1.00  0.00     0.006 A 
ENDBRANCH  11  12
ENDBRANCH  10  11
ENDBRANCH   1  10
BRANCH   7  15
HETATM   15  C7  UNL     1      10.894  -1.125  23.483  1.00  0.00     0.083 A 
HETATM   16  C8  UNL     1       9.449  -0.817  23.446  1.00  0.00     0.027 A 
HETATM   17  C9  UNL     1       9.925  -2.270  23.656  1.00  0.00     0.027 A 
ENDBRANCH   7  15
TORSDOF 4
ENDMDL
