MODEL 1
REMARK VINA RESULT: -7.418066707      0.000      0.000
REMARK  4 active torsions:
REMARK  status: ('A' for Active; 'I' for Inactive)
REMARK    1  A    between atoms: C2_2  and  S1_3 
REMARK    2  A    between atoms: C2_2  and  C8_15 
REMARK    3  A    between atoms: S1_3  and  C3_4 
REMARK    4  A    between atoms: C4_7  and  C5_8 
ROOT
HETATM    1  C3  UNL     1      15.919  -6.403  21.024  1.00  0.00     0.161 A 
HETATM    2  N1  UNL     1      17.170  -6.712  20.568  1.00  0.00    -0.324 N 
ATOM      3  H1  UNL     1      17.965  -6.072  20.563  1.00  0.00     0.169 HD
HETATM    4  C4  UNL     1      17.200  -7.977  20.130  1.00  0.00     0.102 A 
HETATM    5  N2  UNL     1      15.965  -8.478  20.306  1.00  0.00    -0.287 N 
ATOM      6  H2  UNL     1      15.660  -9.422  20.071  1.00  0.00     0.188 HD
HETATM    7  N3  UNL     1      15.215  -7.531  20.839  1.00  0.00    -0.278 N 
ATOM      8  H3  UNL     1      14.229  -7.641  21.078  1.00  0.00     0.189 HD
ENDROOT
BRANCH   1   9
HETATM    9  S1  UNL     1      15.445  -4.824  21.695  1.00  0.00    -0.082 SA
BRANCH   9  10
HETATM   10  C2  UNL     1      16.226  -4.408  23.235  1.00  0.00     0.096 C 
HETATM   11  C1  UNL     1      15.214  -4.179  24.346  1.00  0.00     0.028 C 
BRANCH  10  12
HETATM   12  C8  UNL     1      17.281  -3.391  23.175  1.00  0.00    -0.004 C 
HETATM   13  N4  UNL     1      17.765  -2.750  24.166  1.00  0.00    -0.395 N 
HETATM   14  C9  UNL     1      18.773  -1.835  23.759  1.00  0.00     0.119 C 
ATOM     15  H4  UNL     1      17.467  -2.880  25.133  1.00  0.00     0.159 HD
HETATM   16  C10 UNL     1      18.488  -1.597  22.283  1.00  0.00     0.025 C 
HETATM   17  C11 UNL     1      17.941  -2.964  21.889  1.00  0.00     0.055 C 
ENDBRANCH  10  12
ENDBRANCH   9  10
ENDBRANCH   1   9
BRANCH   4  18
HETATM   18  C5  UNL     1      18.392  -8.696  19.551  1.00  0.00     0.055 A 
HETATM   19  C6  UNL     1      19.716  -8.524  20.193  1.00  0.00     0.013 A 
HETATM   20  C7  UNL     1      18.945  -9.747  20.483  1.00  0.00     0.013 A 
ENDBRANCH   4  18
TORSDOF 4
ENDMDL
MODEL 2
REMARK VINA RESULT: -7.394435287      2.642      3.942
REMARK  4 active torsions:
REMARK  status: ('A' for Active; 'I' for Inactive)
REMARK    1  A    between atoms: C2_2  and  S1_3 
REMARK    2  A    between atoms: C2_2  and  C8_15 
REMARK    3  A    between atoms: S1_3  and  C3_4 
REMARK    4  A    between atoms: C4_7  and  C5_8 
ROOT
HETATM    1  C3  UNL     1      16.021  -6.289  21.359  1.00  0.00     0.161 A 
HETATM    2  N1  UNL     1      17.230  -6.682  20.856  1.00  0.00    -0.324 N 
ATOM      3  H1  UNL     1      18.095  -6.145  20.927  1.00  0.00     0.169 HD
HETATM    4  C4  UNL     1      17.114  -7.875  20.258  1.00  0.00     0.102 A 
HETATM    5  N2  UNL     1      15.827  -8.244  20.379  1.00  0.00    -0.287 N 
ATOM      6  H2  UNL     1      15.414  -9.108  20.026  1.00  0.00     0.188 HD
HETATM    7  N3  UNL     1      15.190  -7.292  21.036  1.00  0.00    -0.278 N 
ATOM      8  H3  UNL     1      14.197  -7.316  21.267  1.00  0.00     0.189 HD
ENDROOT
BRANCH   1   9
HETATM    9  S1  UNL     1      15.732  -4.765  22.233  1.00  0.00    -0.082 SA
BRANCH   9  10
HETATM   10  C2  UNL     1      14.576  -4.889  23.576  1.00  0.00     0.096 C 
HETATM   11  C1  UNL     1      15.045  -5.861  24.646  1.00  0.00     0.028 C 
BRANCH  10  12
HETATM   12  C8  UNL     1      13.166  -5.049  23.206  1.00  0.00    -0.004 C 
HETATM   13  N4  UNL     1      12.515  -4.317  22.388  1.00  0.00    -0.395 N 
HETATM   14  C9  UNL     1      11.166  -4.746  22.257  1.00  0.00     0.119 C 
ATOM     15  H4  UNL     1      12.914  -3.522  21.888  1.00  0.00     0.159 HD
HETATM   16  C10 UNL     1      10.902  -5.542  23.527  1.00  0.00     0.025 C 
HETATM   17  C11 UNL     1      12.285  -6.135  23.767  1.00  0.00     0.055 C 
ENDBRANCH  10  12
ENDBRANCH   9  10
ENDBRANCH   1   9
BRANCH   4  18
HETATM   18  C5  UNL     1      18.217  -8.647  19.581  1.00  0.00     0.055 A 
HETATM   19  C6  UNL     1      19.584  -8.597  20.151  1.00  0.00     0.013 A 
HETATM   20  C7  UNL     1      18.744  -9.775  20.436  1.00  0.00     0.013 A 
ENDBRANCH   4  18
TORSDOF 4
ENDMDL
MODEL 3
REMARK VINA RESULT: -7.260501652      2.695      3.678
REMARK  4 active torsions:
REMARK  status: ('A' for Active; 'I' for Inactive)
REMARK    1  A    between atoms: C2_2  and  S1_3 
REMARK    2  A    between atoms: C2_2  and  C8_15 
REMARK    3  A    between atoms: S1_3  and  C3_4 
REMARK    4  A    between atoms: C4_7  and  C5_8 
ROOT
HETATM    1  C3  UNL     1      16.142  -6.374  21.300  1.00  0.00     0.161 A 
HETATM    2  N1  UNL     1      17.339  -6.819  20.811  1.00  0.00    -0.324 N 
ATOM      3  H1  UNL     1      18.226  -6.321  20.895  1.00  0.00     0.169 HD
HETATM    4  C4  UNL     1      17.177  -8.002  20.206  1.00  0.00     0.102 A 
HETATM    5  N2  UNL     1      15.873  -8.315  20.309  1.00  0.00    -0.287 N 
ATOM      6  H2  UNL     1      15.427  -9.157  19.947  1.00  0.00     0.188 HD
HETATM    7  N3  UNL     1      15.271  -7.338  20.962  1.00  0.00    -0.278 N 
ATOM      8  H3  UNL     1      14.275  -7.317  21.180  1.00  0.00     0.189 HD
ENDROOT
BRANCH   1   9
HETATM    9  S1  UNL     1      15.910  -4.842  22.177  1.00  0.00    -0.082 SA
BRANCH   9  10
HETATM   10  C2  UNL     1      14.360  -4.705  23.033  1.00  0.00     0.096 C 
HETATM   11  C1  UNL     1      14.163  -5.827  24.040  1.00  0.00     0.028 C 
BRANCH  10  12
HETATM   12  C8  UNL     1      13.180  -4.440  22.203  1.00  0.00    -0.004 C 
HETATM   13  N4  UNL     1      11.963  -4.573  22.561  1.00  0.00    -0.395 N 
HETATM   14  C9  UNL     1      11.066  -4.233  21.512  1.00  0.00     0.119 C 
ATOM     15  H4  UNL     1      11.669  -4.885  23.486  1.00  0.00     0.159 HD
HETATM   16  C10 UNL     1      11.900  -4.374  20.246  1.00  0.00     0.025 C 
HETATM   17  C11 UNL     1      13.268  -3.961  20.776  1.00  0.00     0.055 C 
ENDBRANCH  10  12
ENDBRANCH   9  10
ENDBRANCH   1   9
BRANCH   4  18
HETATM   18  C5  UNL     1      18.253  -8.821  19.540  1.00  0.00     0.055 A 
HETATM   19  C6  UNL     1      19.652  -8.687  20.009  1.00  0.00     0.013 A 
HETATM   20  C7  UNL     1      18.862  -9.844  20.469  1.00  0.00     0.013 A 
ENDBRANCH   4  18
TORSDOF 4
ENDMDL
MODEL 4
REMARK VINA RESULT: -7.218161521      2.303      3.210
REMARK  4 active torsions:
REMARK  status: ('A' for Active; 'I' for Inactive)
REMARK    1  A    between atoms: C2_2  and  S1_3 
REMARK    2  A    between atoms: C2_2  and  C8_15 
REMARK    3  A    between atoms: S1_3  and  C3_4 
REMARK    4  A    between atoms: C4_7  and  C5_8 
ROOT
HETATM    1  C3  UNL     1      16.200  -6.026  21.555  1.00  0.00     0.161 A 
HETATM    2  N1  UNL     1      17.260  -6.649  20.957  1.00  0.00    -0.324 N 
ATOM      3  H1  UNL     1      18.226  -6.320  20.991  1.00  0.00     0.169 HD
HETATM    4  C4  UNL     1      16.846  -7.752  20.321  1.00  0.00     0.102 A 
HETATM    5  N2  UNL     1      15.518  -7.835  20.514  1.00  0.00    -0.287 N 
ATOM      6  H2  UNL     1      14.904  -8.566  20.156  1.00  0.00     0.188 HD
HETATM    7  N3  UNL     1      15.149  -6.802  21.249  1.00  0.00    -0.278 N 
ATOM      8  H3  UNL     1      14.191  -6.618  21.546  1.00  0.00     0.189 HD
ENDROOT
BRANCH   1   9
HETATM    9  S1  UNL     1      16.310  -4.525  22.506  1.00  0.00    -0.082 SA
BRANCH   9  10
HETATM   10  C2  UNL     1      15.076  -4.358  23.773  1.00  0.00     0.096 C 
HETATM   11  C1  UNL     1      14.853  -5.659  24.527  1.00  0.00     0.028 C 
BRANCH  10  12
HETATM   12  C8  UNL     1      13.837  -3.676  23.387  1.00  0.00    -0.004 C 
HETATM   13  N4  UNL     1      13.611  -2.423  23.471  1.00  0.00    -0.395 N 
HETATM   14  C9  UNL     1      12.307  -2.092  23.013  1.00  0.00     0.119 C 
ATOM     15  H4  UNL     1      14.284  -1.742  23.824  1.00  0.00     0.159 HD
HETATM   16  C10 UNL     1      11.530  -3.396  23.121  1.00  0.00     0.025 C 
HETATM   17  C11 UNL     1      12.640  -4.398  22.824  1.00  0.00     0.055 C 
ENDBRANCH  10  12
ENDBRANCH   9  10
ENDBRANCH   1   9
BRANCH   4  18
HETATM   18  C5  UNL     1      17.708  -8.712  19.542  1.00  0.00     0.055 A 
HETATM   19  C6  UNL     1      19.149  -8.815  19.870  1.00  0.00     0.013 A 
HETATM   20  C7  UNL     1      18.231  -9.845  20.392  1.00  0.00     0.013 A 
ENDBRANCH   4  18
TORSDOF 4
ENDMDL
MODEL 5
REMARK VINA RESULT: -7.098057551      0.977      1.275
REMARK  4 active torsions:
REMARK  status: ('A' for Active; 'I' for Inactive)
REMARK    1  A    between atoms: C2_2  and  S1_3 
REMARK    2  A    between atoms: C2_2  and  C8_15 
REMARK    3  A    between atoms: S1_3  and  C3_4 
REMARK    4  A    between atoms: C4_7  and  C5_8 
ROOT
HETATM    1  C3  UNL     1      15.990  -6.674  21.290  1.00  0.00     0.161 A 
HETATM    2  N1  UNL     1      17.273  -6.914  20.883  1.00  0.00    -0.324 N 
ATOM      3  H1  UNL     1      18.078  -6.331  21.115  1.00  0.00     0.169 HD
HETATM    4  C4  UNL     1      17.320  -8.026  20.138  1.00  0.00     0.102 A 
HETATM    5  N2  UNL     1      16.062  -8.497  20.069  1.00  0.00    -0.287 N 
ATOM      6  H2  UNL     1      15.762  -9.335  19.571  1.00  0.00     0.188 HD
HETATM    7  N3  UNL     1      15.284  -7.684  20.758  1.00  0.00    -0.278 N 
ATOM      8  H3  UNL     1      14.278  -7.806  20.871  1.00  0.00     0.189 HD
ENDROOT
BRANCH   1   9
HETATM    9  S1  UNL     1      15.486  -5.298  22.300  1.00  0.00    -0.082 SA
BRANCH   9  10
HETATM   10  C2  UNL     1      16.041  -3.712  21.723  1.00  0.00     0.096 C 
HETATM   11  C1  UNL     1      16.149  -3.661  20.207  1.00  0.00     0.028 C 
BRANCH  10  12
HETATM   12  C8  UNL     1      17.196  -3.135  22.419  1.00  0.00    -0.004 C 
HETATM   13  N4  UNL     1      17.603  -3.449  23.587  1.00  0.00    -0.395 N 
HETATM   14  C9  UNL     1      18.750  -2.698  23.964  1.00  0.00     0.119 C 
ATOM     15  H4  UNL     1      17.161  -4.153  24.178  1.00  0.00     0.159 HD
HETATM   16  C10 UNL     1      18.700  -1.466  23.071  1.00  0.00     0.025 C 
HETATM   17  C11 UNL     1      18.071  -2.066  21.818  1.00  0.00     0.055 C 
ENDBRANCH  10  12
ENDBRANCH   9  10
ENDBRANCH   1   9
BRANCH   4  18
HETATM   18  C5  UNL     1      18.547  -8.627  19.503  1.00  0.00     0.055 A 
HETATM   19  C6  UNL     1      19.852  -8.492  20.192  1.00  0.00     0.013 A 
HETATM   20  C7  UNL     1      19.119  -9.767  20.310  1.00  0.00     0.013 A 
ENDBRANCH   4  18
TORSDOF 4
ENDMDL
