MODEL 1
REMARK VINA RESULT: -7.810922330      0.000      0.000
REMARK  4 active torsions:
REMARK  status: ('A' for Active; 'I' for Inactive)
REMARK    1  A    between atoms: C1_1  and  N1_2 
REMARK    2  A    between atoms: C1_1  and  C9_12 
REMARK    3  A    between atoms: N1_2  and  C2_5 
REMARK    4  A    between atoms: C10_15  and  C11_16 
ROOT
HETATM    1  C1  UNL     1      15.478  -5.233  20.173  1.00  0.00     0.319 C 
ENDROOT
BRANCH   1   2
HETATM    2  N1  UNL     1      14.257  -5.068  20.941  1.00  0.00    -0.063 N 
ATOM      3  H12 UNL     1      13.483  -4.707  20.382  1.00  0.00     0.278 HD
ATOM      4  H11 UNL     1      13.830  -5.957  21.203  1.00  0.00     0.278 HD
BRANCH   2   5
HETATM    5  C2  UNL     1      14.558  -4.252  22.058  1.00  0.00     0.191 C 
HETATM    6  C3  UNL     1      15.905  -4.533  22.687  1.00  0.00     0.038 C 
HETATM    7  C4  UNL     1      15.690  -4.387  24.173  1.00  0.00    -0.012 C 
HETATM    8  C5  UNL     1      15.131  -5.703  24.671  1.00  0.00     0.005 C 
HETATM    9  C8  UNL     1      14.405  -3.545  24.235  1.00  0.00     0.011 C 
HETATM   10  C6  UNL     1      13.806  -5.770  23.899  1.00  0.00     0.007 C 
HETATM   11  C7  UNL     1      13.630  -4.430  23.237  1.00  0.00     0.016 C 
ENDBRANCH   2   5
ENDBRANCH   1   2
BRANCH   1  12
HETATM   12  C9  UNL     1      15.970  -6.612  20.138  1.00  0.00     0.174 A 
HETATM   13  N2  UNL     1      17.181  -7.056  19.751  1.00  0.00    -0.325 N 
HETATM   14  C10 UNL     1      17.221  -8.401  19.874  1.00  0.00     0.108 A 
ATOM     15  H2  UNL     1      17.945  -6.470  19.417  1.00  0.00     0.169 HD
HETATM   16  N3  UNL     1      16.020  -8.741  20.338  1.00  0.00    -0.247 N 
HETATM   17  O1  UNL     1      15.288  -7.668  20.490  1.00  0.00    -0.221 OA
ATOM     18  H3  UNL     1      15.718  -9.693  20.544  1.00  0.00     0.196 HD
BRANCH  14  19
HETATM   19  C11 UNL     1      18.394  -9.228  19.538  1.00  0.00     0.055 A 
HETATM   20  C12 UNL     1      19.758  -8.757  19.961  1.00  0.00     0.013 A 
HETATM   21  C13 UNL     1      19.091  -9.884  20.740  1.00  0.00     0.013 A 
ENDBRANCH  14  19
ENDBRANCH   1  12
TORSDOF 4
ENDMDL
MODEL 2
REMARK VINA RESULT: -7.794759676      2.234      3.204
REMARK  4 active torsions:
REMARK  status: ('A' for Active; 'I' for Inactive)
REMARK    1  A    between atoms: C1_1  and  N1_2 
REMARK    2  A    between atoms: C1_1  and  C9_12 
REMARK    3  A    between atoms: N1_2  and  C2_5 
REMARK    4  A    between atoms: C10_15  and  C11_16 
ROOT
HETATM    1  C1  UNL     1      15.824  -5.574  22.587  1.00  0.00     0.319 C 
ENDROOT
BRANCH   1   2
HETATM    2  N1  UNL     1      15.594  -4.270  21.993  1.00  0.00    -0.063 N 
ATOM      3  H12 UNL     1      15.071  -4.319  21.118  1.00  0.00     0.278 HD
ATOM      4  H11 UNL     1      14.925  -3.707  22.518  1.00  0.00     0.278 HD
BRANCH   2   5
HETATM    5  C2  UNL     1      16.851  -3.635  21.848  1.00  0.00     0.191 C 
HETATM    6  C3  UNL     1      17.008  -2.373  22.667  1.00  0.00     0.038 C 
HETATM    7  C4  UNL     1      17.792  -1.424  21.795  1.00  0.00    -0.012 C 
HETATM    8  C5  UNL     1      16.802  -0.755  20.866  1.00  0.00     0.005 C 
HETATM    9  C8  UNL     1      18.453  -2.380  20.787  1.00  0.00     0.011 C 
HETATM   10  C6  UNL     1      16.274  -1.963  20.079  1.00  0.00     0.007 C 
HETATM   11  C7  UNL     1      17.147  -3.131  20.455  1.00  0.00     0.016 C 
ENDBRANCH   2   5
ENDBRANCH   1   2
BRANCH   1  12
HETATM   12  C9  UNL     1      16.084  -6.630  21.606  1.00  0.00     0.174 A 
HETATM   13  N2  UNL     1      17.259  -6.979  21.048  1.00  0.00    -0.325 N 
HETATM   14  C10 UNL     1      17.057  -8.005  20.192  1.00  0.00     0.108 A 
ATOM     15  H2  UNL     1      18.158  -6.538  21.240  1.00  0.00     0.169 HD
HETATM   16  N3  UNL     1      15.751  -8.255  20.255  1.00  0.00    -0.247 N 
HETATM   17  O1  UNL     1      15.186  -7.430  21.099  1.00  0.00    -0.221 OA
ATOM     18  H3  UNL     1      15.264  -8.979  19.726  1.00  0.00     0.196 HD
BRANCH  14  19
HETATM   19  C11 UNL     1      18.124  -8.645  19.401  1.00  0.00     0.055 A 
HETATM   20  C12 UNL     1      19.514  -8.700  19.969  1.00  0.00     0.013 A 
HETATM   21  C13 UNL     1      18.661  -9.962  19.982  1.00  0.00     0.013 A 
ENDBRANCH  14  19
ENDBRANCH   1  12
TORSDOF 4
ENDMDL
MODEL 3
REMARK VINA RESULT: -7.695906484      0.980      1.724
REMARK  4 active torsions:
REMARK  status: ('A' for Active; 'I' for Inactive)
REMARK    1  A    between atoms: C1_1  and  N1_2 
REMARK    2  A    between atoms: C1_1  and  C9_12 
REMARK    3  A    between atoms: N1_2  and  C2_5 
REMARK    4  A    between atoms: C10_15  and  C11_16 
ROOT
HETATM    1  C1  UNL     1      15.200  -5.498  20.684  1.00  0.00     0.319 C 
ENDROOT
BRANCH   1   2
HETATM    2  N1  UNL     1      14.656  -5.373  22.024  1.00  0.00    -0.063 N 
ATOM      3  H12 UNL     1      13.875  -4.717  22.075  1.00  0.00     0.278 HD
ATOM      4  H11 UNL     1      14.152  -6.207  22.328  1.00  0.00     0.278 HD
BRANCH   2   5
HETATM    5  C2  UNL     1      15.721  -5.028  22.890  1.00  0.00     0.191 C 
HETATM    6  C3  UNL     1      15.319  -4.887  24.343  1.00  0.00     0.038 C 
HETATM    7  C4  UNL     1      16.124  -3.726  24.869  1.00  0.00    -0.012 C 
HETATM    8  C5  UNL     1      15.380  -2.462  24.491  1.00  0.00     0.005 C 
HETATM    9  C8  UNL     1      17.273  -3.637  23.850  1.00  0.00     0.011 C 
HETATM   10  C6  UNL     1      15.419  -2.546  22.959  1.00  0.00     0.007 C 
HETATM   11  C7  UNL     1      16.347  -3.681  22.617  1.00  0.00     0.016 C 
ENDBRANCH   2   5
ENDBRANCH   1   2
BRANCH   1  12
HETATM   12  C9  UNL     1      15.832  -6.794  20.424  1.00  0.00     0.174 A 
HETATM   13  N2  UNL     1      17.101  -7.042  20.049  1.00  0.00    -0.325 N 
HETATM   14  C10 UNL     1      17.272  -8.376  19.917  1.00  0.00     0.108 A 
ATOM     15  H2  UNL     1      17.818  -6.336  19.890  1.00  0.00     0.169 HD
HETATM   16  N3  UNL     1      16.089  -8.907  20.219  1.00  0.00    -0.247 N 
HETATM   17  O1  UNL     1      15.244  -7.955  20.518  1.00  0.00    -0.221 OA
ATOM     18  H3  UNL     1      15.875  -9.904  20.218  1.00  0.00     0.196 HD
BRANCH  14  19
HETATM   19  C11 UNL     1      18.541  -9.012  19.518  1.00  0.00     0.055 A 
HETATM   20  C12 UNL     1      19.824  -8.511  20.120  1.00  0.00     0.013 A 
HETATM   21  C13 UNL     1      19.235  -9.823  20.622  1.00  0.00     0.013 A 
ENDBRANCH  14  19
ENDBRANCH   1  12
TORSDOF 4
ENDMDL
MODEL 4
REMARK VINA RESULT: -7.682205370      1.524      6.154
REMARK  4 active torsions:
REMARK  status: ('A' for Active; 'I' for Inactive)
REMARK    1  A    between atoms: C1_1  and  N1_2 
REMARK    2  A    between atoms: C1_1  and  C9_12 
REMARK    3  A    between atoms: N1_2  and  C2_5 
REMARK    4  A    between atoms: C10_15  and  C11_16 
ROOT
HETATM    1  C1  UNL     1      15.793  -6.728  20.417  1.00  0.00     0.319 C 
ENDROOT
BRANCH   1   2
HETATM    2  N1  UNL     1      15.937  -8.172  20.370  1.00  0.00    -0.063 N 
ATOM      3  H12 UNL     1      15.303  -8.655  21.007  1.00  0.00     0.278 HD
ATOM      4  H11 UNL     1      15.589  -8.577  19.500  1.00  0.00     0.278 HD
BRANCH   2   5
HETATM    5  C2  UNL     1      17.298  -8.477  20.612  1.00  0.00     0.191 C 
HETATM    6  C3  UNL     1      18.173  -8.438  19.377  1.00  0.00     0.038 C 
HETATM    7  C4  UNL     1      19.147  -9.577  19.541  1.00  0.00    -0.012 C 
HETATM    8  C5  UNL     1      18.448 -10.832  19.064  1.00  0.00     0.005 C 
HETATM    9  C8  UNL     1      19.092  -9.837  21.057  1.00  0.00     0.011 C 
HETATM   10  C6  UNL     1      17.284 -10.918  20.062  1.00  0.00     0.007 C 
HETATM   11  C7  UNL     1      17.551  -9.878  21.117  1.00  0.00     0.016 C 
ENDBRANCH   2   5
ENDBRANCH   1   2
BRANCH   1  12
HETATM   12  C9  UNL     1      15.365  -6.223  21.723  1.00  0.00     0.174 A 
HETATM   13  N2  UNL     1      16.007  -5.360  22.534  1.00  0.00    -0.325 N 
HETATM   14  C10 UNL     1      15.265  -5.159  23.645  1.00  0.00     0.108 A 
ATOM     15  H2  UNL     1      16.910  -4.929  22.341  1.00  0.00     0.169 HD
HETATM   16  N3  UNL     1      14.180  -5.912  23.476  1.00  0.00    -0.247 N 
HETATM   17  O1  UNL     1      14.254  -6.538  22.331  1.00  0.00    -0.221 OA
ATOM     18  H3  UNL     1      13.408  -5.989  24.140  1.00  0.00     0.196 HD
BRANCH  14  19
HETATM   19  C11 UNL     1      15.659  -4.272  24.755  1.00  0.00     0.055 A 
HETATM   20  C12 UNL     1      16.855  -3.378  24.579  1.00  0.00     0.013 A 
HETATM   21  C13 UNL     1      15.460  -2.772  24.489  1.00  0.00     0.013 A 
ENDBRANCH  14  19
ENDBRANCH   1  12
TORSDOF 4
ENDMDL
MODEL 5
REMARK VINA RESULT: -7.639306300      2.333      6.051
REMARK  4 active torsions:
REMARK  status: ('A' for Active; 'I' for Inactive)
REMARK    1  A    between atoms: C1_1  and  N1_2 
REMARK    2  A    between atoms: C1_1  and  C9_12 
REMARK    3  A    between atoms: N1_2  and  C2_5 
REMARK    4  A    between atoms: C10_15  and  C11_16 
ROOT
HETATM    1  C1  UNL     1      15.822  -6.894  21.547  1.00  0.00     0.319 C 
ENDROOT
BRANCH   1   2
HETATM    2  N1  UNL     1      16.068  -7.858  20.490  1.00  0.00    -0.063 N 
ATOM      3  H12 UNL     1      15.407  -8.635  20.501  1.00  0.00     0.278 HD
ATOM      4  H11 UNL     1      15.837  -7.498  19.564  1.00  0.00     0.278 HD
BRANCH   2   5
HETATM    5  C2  UNL     1      17.415  -8.279  20.597  1.00  0.00     0.191 C 
HETATM    6  C3  UNL     1      18.124  -8.435  19.268  1.00  0.00     0.038 C 
HETATM    7  C4  UNL     1      19.003  -9.650  19.425  1.00  0.00    -0.012 C 
HETATM    8  C5  UNL     1      18.136 -10.863  19.158  1.00  0.00     0.005 C 
HETATM    9  C8  UNL     1      19.119  -9.774  20.954  1.00  0.00     0.011 C 
HETATM   10  C6  UNL     1      17.107 -10.743  20.292  1.00  0.00     0.007 C 
HETATM   11  C7  UNL     1      17.601  -9.651  21.202  1.00  0.00     0.016 C 
ENDBRANCH   2   5
ENDBRANCH   1   2
BRANCH   1  12
HETATM   12  C9  UNL     1      16.113  -5.511  21.163  1.00  0.00     0.174 A 
HETATM   13  N2  UNL     1      17.210  -4.782  21.441  1.00  0.00    -0.325 N 
HETATM   14  C10 UNL     1      17.076  -3.552  20.898  1.00  0.00     0.108 A 
ATOM     15  H2  UNL     1      18.015  -5.106  21.977  1.00  0.00     0.169 HD
HETATM   16  N3  UNL     1      15.888  -3.568  20.298  1.00  0.00    -0.247 N 
HETATM   17  O1  UNL     1      15.328  -4.738  20.463  1.00  0.00    -0.221 OA
ATOM     18  H3  UNL     1      15.477  -2.787  19.786  1.00  0.00     0.196 HD
BRANCH  14  19
HETATM   19  C11 UNL     1      18.088  -2.486  21.004  1.00  0.00     0.055 A 
HETATM   20  C12 UNL     1      17.631  -1.054  21.046  1.00  0.00     0.013 A 
HETATM   21  C13 UNL     1      18.090  -1.722  22.337  1.00  0.00     0.013 A 
ENDBRANCH  14  19
ENDBRANCH   1  12
TORSDOF 4
ENDMDL
