MODEL 1
REMARK VINA RESULT: -6.695211303      0.000      0.000
REMARK  17 active torsions:
REMARK  status: ('A' for Active; 'I' for Inactive)
REMARK    1  A    between atoms: C2_2  and  C4_4 
REMARK    2  A    between atoms: C4_4  and  N1_5 
REMARK    3  A    between atoms: C4_4  and  C21_59 
REMARK       I    between atoms: N1_5  and  C5_7 
REMARK    4  A    between atoms: C5_7  and  C6_9 
REMARK    5  A    between atoms: C6_9  and  N2_10 
REMARK    6  A    between atoms: C6_9  and  C7_14 
REMARK    7  A    between atoms: C7_14  and  O2_15 
REMARK    8  A    between atoms: C7_14  and  N3_17 
REMARK    9  A    between atoms: N3_17  and  C8_18 
REMARK   10  A    between atoms: N3_17  and  S1_55 
REMARK   11  A    between atoms: C9_22  and  N5_23 
REMARK   12  A    between atoms: C12_28  and  N7_29 
REMARK   13  A    between atoms: C13_34  and  N9_35 
REMARK   14  A    between atoms: C15_37  and  N10_38 
REMARK   15  A    between atoms: C16_42  and  O3_43 
REMARK   16  A    between atoms: C19_49  and  O4_50 
REMARK   17  A    between atoms: C20_52  and  O5_53 
ROOT
HETATM    1  C8  UNL     1      24.383 -14.189  -8.464  1.00  0.00     0.338 C 
HETATM    2  N4  UNL     1      23.623 -15.056  -7.632  1.00  0.00    -0.026 N 
ATOM      3  H41 UNL     1      23.282 -15.886  -8.118  1.00  0.00     0.282 HD
ATOM      4  H42 UNL     1      22.711 -14.675  -7.377  1.00  0.00     0.282 HD
HETATM    5  C9  UNL     1      24.458 -15.363  -6.486  1.00  0.00     0.327 C 
HETATM    6  C19 UNL     1      25.307 -14.168  -6.258  1.00  0.00     0.201 C 
HETATM    7  C20 UNL     1      25.293 -13.421  -7.562  1.00  0.00     0.202 C 
ENDROOT
BRANCH   5   8
HETATM    8  N5  UNL     1      23.711 -15.831  -5.363  1.00  0.00    -0.295 N 
HETATM    9  C10 UNL     1      24.174 -16.648  -4.401  1.00  0.00     0.187 A 
HETATM   10  N6  UNL     1      23.188 -16.883  -3.489  1.00  0.00    -0.346 N 
HETATM   11  C11 UNL     1      22.097 -16.202  -3.893  1.00  0.00     0.123 A 
ATOM     12  H6  UNL     1      23.262 -17.467  -2.655  1.00  0.00     0.167 HD
HETATM   13  C12 UNL     1      20.823 -16.043  -3.405  1.00  0.00     0.145 A 
HETATM   14  C18 UNL     1      22.446 -15.559  -5.054  1.00  0.00     0.156 A 
HETATM   15  N8  UNL     1      19.969 -15.268  -4.081  1.00  0.00    -0.175 N 
HETATM   16  C13 UNL     1      20.278 -14.620  -5.226  1.00  0.00     0.683 A 
ATOM     17  H8  UNL     1      19.025 -15.158  -3.709  1.00  0.00     0.186 HD
HETATM   18  N11 UNL     1      21.533 -14.799  -5.673  1.00  0.00    -0.174 N 
ATOM     19  H11 UNL     1      21.806 -14.327  -6.535  1.00  0.00     0.186 HD
BRANCH  13  20
HETATM   20  N7  UNL     1      20.468 -16.639  -2.314  1.00  0.00    -0.383 N 
ATOM     21  H72 UNL     1      21.113 -17.251  -1.812  1.00  0.00     0.157 HD
ATOM     22  H71 UNL     1      19.531 -16.502  -1.938  1.00  0.00     0.157 HD
ENDBRANCH  13  20
BRANCH  16  23
HETATM   23  N9  UNL     1      19.331 -13.801  -5.907  1.00  0.00    -0.213 N 
HETATM   24  C14 UNL     1      18.347 -14.338  -6.850  1.00  0.00     0.176 C 
HETATM   25  C15 UNL     1      17.973 -13.167  -7.717  1.00  0.00     0.232 C 
HETATM   26  C16 UNL     1      18.074 -12.017  -6.745  1.00  0.00     0.168 C 
HETATM   27  C17 UNL     1      19.200 -12.383  -5.779  1.00  0.00     0.175 C 
BRANCH  25  28
HETATM   28  N10 UNL     1      16.611 -13.361  -8.201  1.00  0.00    -0.071 N 
ATOM     29 3H10 UNL     1      16.425 -14.327  -8.466  1.00  0.00     0.274 HD
ATOM     30 2H10 UNL     1      15.917 -13.283  -7.457  1.00  0.00     0.274 HD
ATOM     31 1H10 UNL     1      16.440 -12.706  -8.964  1.00  0.00     0.274 HD
ENDBRANCH  25  28
BRANCH  26  32
HETATM   32  O3  UNL     1      16.905 -11.919  -5.984  1.00  0.00    -0.392 OA
ATOM     33  H3  UNL     1      17.002 -12.395  -5.167  1.00  0.00     0.210 HD
ENDBRANCH  26  32
ENDBRANCH  16  23
ENDBRANCH   5   8
BRANCH   6  34
HETATM   34  O4  UNL     1      24.855 -13.307  -5.264  1.00  0.00    -0.389 OA
ATOM     35  H4  UNL     1      24.591 -12.447  -5.569  1.00  0.00     0.210 HD
ENDBRANCH   6  34
BRANCH   1  36
HETATM   36  N3  UNL     1      23.594 -13.382  -9.389  1.00  0.00    -0.204 N 
BRANCH  36  37
HETATM   37  C7  UNL     1      24.202 -12.814 -10.520  1.00  0.00     0.172 C 
BRANCH  37  38
HETATM   38  C6  UNL     1      24.175 -11.446 -11.050  1.00  0.00     0.349 C 
BRANCH  38  39
HETATM   39  C5  UNL     1      24.245 -10.423  -9.971  1.00  0.00     0.257 C 
HETATM   40  N1  UNL     1      23.066  -9.867  -9.445  1.00  0.00    -0.344 N 
ATOM     41  H1  UNL     1      22.176 -10.185  -9.830  1.00  0.00     0.163 HD
HETATM   42  O1  UNL     1      25.347 -10.028  -9.502  1.00  0.00    -0.271 OA
BRANCH  40  43
HETATM   43  C4  UNL     1      23.033  -8.874  -8.396  1.00  0.00     0.189 C 
BRANCH  43  44
HETATM   44  C2  UNL     1      21.753  -8.050  -8.449  1.00  0.00     0.010 C 
HETATM   45  C1  UNL     1      20.970  -8.499  -9.653  1.00  0.00     0.012 C 
HETATM   46  C3  UNL     1      22.094  -6.605  -8.589  1.00  0.00     0.012 C 
ENDBRANCH  43  44
BRANCH  43  47
HETATM   47  C21 UNL     1      23.059  -9.505  -7.044  1.00  0.00     0.197 C 
HETATM   48  O9  UNL     1      24.151  -9.692  -6.450  1.00  0.00    -0.646 OA
HETATM   49  O10 UNL     1      21.879  -9.885  -6.441  1.00  0.00    -0.646 OA
ENDBRANCH  43  47
ENDBRANCH  40  43
ENDBRANCH  38  39
BRANCH  38  50
HETATM   50  N2  UNL     1      23.033 -11.123 -11.868  1.00  0.00    -0.059 N 
ATOM     51  H23 UNL     1      22.223 -10.824 -11.325  1.00  0.00     0.275 HD
ATOM     52  H22 UNL     1      23.156 -10.265 -12.405  1.00  0.00     0.275 HD
ATOM     53  H21 UNL     1      22.841 -11.936 -12.453  1.00  0.00     0.275 HD
ENDBRANCH  38  50
ENDBRANCH  37  38
BRANCH  37  54
HETATM   54  O2  UNL     1      24.941 -13.592 -11.281  1.00  0.00    -0.347 OA
ATOM     55  H2  UNL     1      25.009 -14.463 -10.906  1.00  0.00     0.219 HD
ENDBRANCH  37  54
ENDBRANCH  36  37
BRANCH  36  56
HETATM   56  S1  UNL     1      21.933 -13.192  -9.072  1.00  0.00     0.214 S 
HETATM   57  O6  UNL     1      21.172 -14.494  -8.976  1.00  0.00    -0.578 OA
HETATM   58  O7  UNL     1      21.758 -12.454  -7.726  1.00  0.00    -0.578 OA
HETATM   59  O8  UNL     1      21.121 -12.231 -10.178  1.00  0.00    -0.578 OA
ENDBRANCH  36  56
ENDBRANCH   1  36
BRANCH   7  60
HETATM   60  O5  UNL     1      24.965 -12.114  -7.329  1.00  0.00    -0.389 OA
ATOM     61  H5  UNL     1      25.653 -11.557  -6.984  1.00  0.00     0.210 HD
ENDBRANCH   7  60
TORSDOF 17
ENDMDL
MODEL 2
REMARK VINA RESULT: -6.674835678      2.396      5.303
REMARK  17 active torsions:
REMARK  status: ('A' for Active; 'I' for Inactive)
REMARK    1  A    between atoms: C2_2  and  C4_4 
REMARK    2  A    between atoms: C4_4  and  N1_5 
REMARK    3  A    between atoms: C4_4  and  C21_59 
REMARK       I    between atoms: N1_5  and  C5_7 
REMARK    4  A    between atoms: C5_7  and  C6_9 
REMARK    5  A    between atoms: C6_9  and  N2_10 
REMARK    6  A    between atoms: C6_9  and  C7_14 
REMARK    7  A    between atoms: C7_14  and  O2_15 
REMARK    8  A    between atoms: C7_14  and  N3_17 
REMARK    9  A    between atoms: N3_17  and  C8_18 
REMARK   10  A    between atoms: N3_17  and  S1_55 
REMARK   11  A    between atoms: C9_22  and  N5_23 
REMARK   12  A    between atoms: C12_28  and  N7_29 
REMARK   13  A    between atoms: C13_34  and  N9_35 
REMARK   14  A    between atoms: C15_37  and  N10_38 
REMARK   15  A    between atoms: C16_42  and  O3_43 
REMARK   16  A    between atoms: C19_49  and  O4_50 
REMARK   17  A    between atoms: C20_52  and  O5_53 
ROOT
HETATM    1  C8  UNL     1      19.879 -11.104  -9.531  1.00  0.00     0.338 C 
HETATM    2  N4  UNL     1      18.773 -11.903  -9.131  1.00  0.00    -0.026 N 
ATOM      3  H41 UNL     1      17.941 -11.358  -8.908  1.00  0.00     0.282 HD
ATOM      4  H42 UNL     1      18.895 -12.331  -8.213  1.00  0.00     0.282 HD
HETATM    5  C9  UNL     1      18.559 -12.870 -10.192  1.00  0.00     0.327 C 
HETATM    6  C19 UNL     1      19.893 -13.143 -10.781  1.00  0.00     0.201 C 
HETATM    7  C20 UNL     1      20.746 -11.971 -10.385  1.00  0.00     0.202 C 
ENDROOT
BRANCH   5   8
HETATM    8  N5  UNL     1      17.811 -14.008  -9.764  1.00  0.00    -0.295 N 
HETATM    9  C10 UNL     1      16.864 -14.637 -10.482  1.00  0.00     0.187 A 
HETATM   10  N6  UNL     1      16.364 -15.681  -9.761  1.00  0.00    -0.346 N 
HETATM   11  C11 UNL     1      17.011 -15.698  -8.579  1.00  0.00     0.123 A 
ATOM     12  H6  UNL     1      15.635 -16.329 -10.062  1.00  0.00     0.167 HD
HETATM   13  C12 UNL     1      16.953 -16.492  -7.459  1.00  0.00     0.145 A 
HETATM   14  C18 UNL     1      17.901 -14.654  -8.605  1.00  0.00     0.156 A 
HETATM   15  N8  UNL     1      17.767 -16.217  -6.435  1.00  0.00    -0.175 N 
HETATM   16  C13 UNL     1      18.655 -15.198  -6.427  1.00  0.00     0.683 A 
ATOM     17  H8  UNL     1      17.715 -16.813  -5.609  1.00  0.00     0.186 HD
HETATM   18  N11 UNL     1      18.683 -14.443  -7.538  1.00  0.00    -0.174 N 
ATOM     19  H11 UNL     1      19.340 -13.664  -7.571  1.00  0.00     0.186 HD
BRANCH  13  20
HETATM   20  N7  UNL     1      16.122 -17.481  -7.408  1.00  0.00    -0.383 N 
ATOM     21  H72 UNL     1      16.437 -18.443  -7.533  1.00  0.00     0.157 HD
ATOM     22  H71 UNL     1      15.132 -17.308  -7.240  1.00  0.00     0.157 HD
ENDBRANCH  13  20
BRANCH  16  23
HETATM   23  N9  UNL     1      19.504 -14.949  -5.309  1.00  0.00    -0.213 N 
HETATM   24  C14 UNL     1      20.583 -15.857  -4.910  1.00  0.00     0.176 C 
HETATM   25  C15 UNL     1      20.822 -15.547  -3.458  1.00  0.00     0.232 C 
HETATM   26  C16 UNL     1      20.533 -14.066  -3.404  1.00  0.00     0.168 C 
HETATM   27  C17 UNL     1      19.437 -13.816  -4.439  1.00  0.00     0.175 C 
BRANCH  25  28
HETATM   28  N10 UNL     1      22.213 -15.849  -3.140  1.00  0.00    -0.071 N 
ATOM     29 3H10 UNL     1      22.536 -16.710  -3.579  1.00  0.00     0.274 HD
ATOM     30 2H10 UNL     1      22.865 -15.208  -3.591  1.00  0.00     0.274 HD
ATOM     31 1H10 UNL     1      22.320 -15.864  -2.125  1.00  0.00     0.274 HD
ENDBRANCH  25  28
BRANCH  26  32
HETATM   32  O3  UNL     1      21.653 -13.338  -3.819  1.00  0.00    -0.392 OA
ATOM     33  H3  UNL     1      21.629 -12.461  -3.455  1.00  0.00     0.210 HD
ENDBRANCH  26  32
ENDBRANCH  16  23
ENDBRANCH   5   8
BRANCH   6  34
HETATM   34  O4  UNL     1      20.512 -14.301 -10.320  1.00  0.00    -0.389 OA
ATOM     35  H4  UNL     1      21.458 -14.309 -10.402  1.00  0.00     0.210 HD
ENDBRANCH   6  34
BRANCH   1  36
HETATM   36  N3  UNL     1      20.564 -10.418  -8.441  1.00  0.00    -0.204 N 
BRANCH  36  37
HETATM   37  C7  UNL     1      21.079  -9.126  -8.638  1.00  0.00     0.172 C 
BRANCH  37  38
HETATM   38  C6  UNL     1      22.432  -8.665  -8.971  1.00  0.00     0.349 C 
BRANCH  38  39
HETATM   39  C5  UNL     1      23.440  -9.755  -8.866  1.00  0.00     0.257 C 
HETATM   40  N1  UNL     1      24.068 -10.021  -7.637  1.00  0.00    -0.344 N 
ATOM     41  H1  UNL     1      23.812  -9.444  -6.835  1.00  0.00     0.163 HD
HETATM   42  O1  UNL     1      23.760 -10.462  -9.860  1.00  0.00    -0.271 OA
BRANCH  40  43
HETATM   43  C4  UNL     1      25.054 -11.058  -7.435  1.00  0.00     0.189 C 
BRANCH  43  44
HETATM   44  C2  UNL     1      26.467 -10.533  -7.650  1.00  0.00     0.010 C 
HETATM   45  C1  UNL     1      26.377  -9.043  -7.839  1.00  0.00     0.012 C 
HETATM   46  C3  UNL     1      27.053 -11.155  -8.872  1.00  0.00     0.012 C 
ENDBRANCH  43  44
BRANCH  43  47
HETATM   47  C21 UNL     1      25.018 -11.583  -6.039  1.00  0.00     0.197 C 
HETATM   48  O9  UNL     1      25.811 -11.137  -5.171  1.00  0.00    -0.646 OA
HETATM   49  O10 UNL     1      24.111 -12.563  -5.696  1.00  0.00    -0.646 OA
ENDBRANCH  43  47
ENDBRANCH  40  43
ENDBRANCH  38  39
BRANCH  38  50
HETATM   50  N2  UNL     1      22.918  -7.558  -8.186  1.00  0.00    -0.059 N 
ATOM     51  H23 UNL     1      22.613  -7.594  -7.213  1.00  0.00     0.275 HD
ATOM     52  H22 UNL     1      23.922  -7.603  -8.010  1.00  0.00     0.275 HD
ATOM     53  H21 UNL     1      22.634  -6.702  -8.662  1.00  0.00     0.275 HD
ENDBRANCH  38  50
ENDBRANCH  37  38
BRANCH  37  54
HETATM   54  O2  UNL     1      20.257  -8.107  -8.519  1.00  0.00    -0.347 OA
ATOM     55  H2  UNL     1      19.623  -8.101  -9.227  1.00  0.00     0.219 HD
ENDBRANCH  37  54
ENDBRANCH  36  37
BRANCH  36  56
HETATM   56  S1  UNL     1      20.676 -11.210  -6.939  1.00  0.00     0.214 S 
HETATM   57  O6  UNL     1      21.526 -10.484  -5.923  1.00  0.00    -0.578 OA
HETATM   58  O7  UNL     1      19.259 -11.352  -6.339  1.00  0.00    -0.578 OA
HETATM   59  O8  UNL     1      21.249 -12.781  -7.024  1.00  0.00    -0.578 OA
ENDBRANCH  36  56
ENDBRANCH   1  36
BRANCH   7  60
HETATM   60  O5  UNL     1      21.904 -12.427  -9.819  1.00  0.00    -0.389 OA
ATOM     61  H5  UNL     1      22.707 -11.996 -10.086  1.00  0.00     0.210 HD
ENDBRANCH   7  60
TORSDOF 17
ENDMDL
MODEL 3
REMARK VINA RESULT: -6.620391146      2.639      5.566
REMARK  17 active torsions:
REMARK  status: ('A' for Active; 'I' for Inactive)
REMARK    1  A    between atoms: C2_2  and  C4_4 
REMARK    2  A    between atoms: C4_4  and  N1_5 
REMARK    3  A    between atoms: C4_4  and  C21_59 
REMARK       I    between atoms: N1_5  and  C5_7 
REMARK    4  A    between atoms: C5_7  and  C6_9 
REMARK    5  A    between atoms: C6_9  and  N2_10 
REMARK    6  A    between atoms: C6_9  and  C7_14 
REMARK    7  A    between atoms: C7_14  and  O2_15 
REMARK    8  A    between atoms: C7_14  and  N3_17 
REMARK    9  A    between atoms: N3_17  and  C8_18 
REMARK   10  A    between atoms: N3_17  and  S1_55 
REMARK   11  A    between atoms: C9_22  and  N5_23 
REMARK   12  A    between atoms: C12_28  and  N7_29 
REMARK   13  A    between atoms: C13_34  and  N9_35 
REMARK   14  A    between atoms: C15_37  and  N10_38 
REMARK   15  A    between atoms: C16_42  and  O3_43 
REMARK   16  A    between atoms: C19_49  and  O4_50 
REMARK   17  A    between atoms: C20_52  and  O5_53 
ROOT
HETATM    1  C8  UNL     1      20.178 -10.755  -8.746  1.00  0.00     0.338 C 
HETATM    2  N4  UNL     1      19.114 -11.622  -8.375  1.00  0.00    -0.026 N 
ATOM      3  H41 UNL     1      18.396 -11.162  -7.814  1.00  0.00     0.282 HD
ATOM      4  H42 UNL     1      19.386 -12.322  -7.684  1.00  0.00     0.282 HD
HETATM    5  C9  UNL     1      18.602 -12.196  -9.605  1.00  0.00     0.327 C 
HETATM    6  C19 UNL     1      19.757 -12.289 -10.532  1.00  0.00     0.201 C 
HETATM    7  C20 UNL     1      20.772 -11.318  -9.996  1.00  0.00     0.202 C 
ENDROOT
BRANCH   5   8
HETATM    8  N5  UNL     1      17.864 -13.399  -9.392  1.00  0.00    -0.295 N 
HETATM    9  C10 UNL     1      16.942 -13.908 -10.227  1.00  0.00     0.187 A 
HETATM   10  N6  UNL     1      16.443 -15.065  -9.705  1.00  0.00    -0.346 N 
HETATM   11  C11 UNL     1      17.066 -15.274  -8.527  1.00  0.00     0.123 A 
ATOM     12  H6  UNL     1      15.730 -15.661 -10.126  1.00  0.00     0.167 HD
HETATM   13  C12 UNL     1      16.998 -16.246  -7.559  1.00  0.00     0.145 A 
HETATM   14  C18 UNL     1      17.940 -14.231  -8.357  1.00  0.00     0.156 A 
HETATM   15  N8  UNL     1      17.786 -16.139  -6.486  1.00  0.00    -0.175 N 
HETATM   16  C13 UNL     1      18.658 -15.126  -6.285  1.00  0.00     0.683 A 
ATOM     17  H8  UNL     1      17.726 -16.867  -5.773  1.00  0.00     0.186 HD
HETATM   18  N11 UNL     1      18.698 -14.194  -7.252  1.00  0.00    -0.174 N 
ATOM     19  H11 UNL     1      19.342 -13.412  -7.139  1.00  0.00     0.186 HD
BRANCH  13  20
HETATM   20  N7  UNL     1      16.181 -17.239  -7.695  1.00  0.00    -0.383 N 
ATOM     21  H72 UNL     1      16.177 -17.809  -8.542  1.00  0.00     0.157 HD
ATOM     22  H71 UNL     1      15.526 -17.468  -6.948  1.00  0.00     0.157 HD
ENDBRANCH  13  20
BRANCH  16  23
HETATM   23  N9  UNL     1      19.481 -15.059  -5.123  1.00  0.00    -0.213 N 
HETATM   24  C14 UNL     1      19.675 -13.827  -4.355  1.00  0.00     0.176 C 
HETATM   25  C15 UNL     1      20.973 -14.036  -3.623  1.00  0.00     0.232 C 
HETATM   26  C16 UNL     1      20.944 -15.522  -3.359  1.00  0.00     0.168 C 
HETATM   27  C17 UNL     1      20.214 -16.144  -4.549  1.00  0.00     0.175 C 
BRANCH  25  28
HETATM   28  N10 UNL     1      20.944 -13.258  -2.390  1.00  0.00    -0.071 N 
ATOM     29 3H10 UNL     1      21.417 -12.360  -2.484  1.00  0.00     0.274 HD
ATOM     30 2H10 UNL     1      20.013 -12.903  -2.173  1.00  0.00     0.274 HD
ATOM     31 1H10 UNL     1      21.331 -13.826  -1.636  1.00  0.00     0.274 HD
ENDBRANCH  25  28
BRANCH  26  32
HETATM   32  O3  UNL     1      20.176 -15.800  -2.225  1.00  0.00    -0.392 OA
ATOM     33  H3  UNL     1      19.290 -16.037  -2.475  1.00  0.00     0.210 HD
ENDBRANCH  26  32
ENDBRANCH  16  23
ENDBRANCH   5   8
BRANCH   6  34
HETATM   34  O4  UNL     1      20.356 -13.542 -10.600  1.00  0.00    -0.389 OA
ATOM     35  H4  UNL     1      20.353 -13.942 -11.461  1.00  0.00     0.210 HD
ENDBRANCH   6  34
BRANCH   1  36
HETATM   36  N3  UNL     1      21.131 -10.463  -7.680  1.00  0.00    -0.204 N 
BRANCH  36  37
HETATM   37  C7  UNL     1      21.294 -11.368  -6.618  1.00  0.00     0.172 C 
BRANCH  37  38
HETATM   38  C6  UNL     1      22.102 -12.588  -6.503  1.00  0.00     0.349 C 
BRANCH  38  39
HETATM   39  C5  UNL     1      23.556 -12.291  -6.386  1.00  0.00     0.257 C 
HETATM   40  N1  UNL     1      24.224 -11.613  -7.420  1.00  0.00    -0.344 N 
ATOM     41  H1  UNL     1      23.682 -11.341  -8.241  1.00  0.00     0.163 HD
HETATM   42  O1  UNL     1      24.225 -12.635  -5.374  1.00  0.00    -0.271 OA
BRANCH  40  43
HETATM   43  C4  UNL     1      25.629 -11.277  -7.397  1.00  0.00     0.189 C 
BRANCH  43  44
HETATM   44  C2  UNL     1      26.203 -11.183  -8.805  1.00  0.00     0.010 C 
HETATM   45  C1  UNL     1      25.308 -11.978  -9.717  1.00  0.00     0.012 C 
HETATM   46  C3  UNL     1      27.576 -11.765  -8.825  1.00  0.00     0.012 C 
ENDBRANCH  43  44
BRANCH  43  47
HETATM   47  C21 UNL     1      25.863  -9.943  -6.769  1.00  0.00     0.197 C 
HETATM   48  O9  UNL     1      25.787  -9.805  -5.523  1.00  0.00    -0.646 OA
HETATM   49  O10 UNL     1      26.165  -8.855  -7.560  1.00  0.00    -0.646 OA
ENDBRANCH  43  47
ENDBRANCH  40  43
ENDBRANCH  38  39
BRANCH  38  50
HETATM   50  N2  UNL     1      21.946 -13.537  -7.577  1.00  0.00    -0.059 N 
ATOM     51  H23 UNL     1      22.825 -13.969  -7.859  1.00  0.00     0.275 HD
ATOM     52  H22 UNL     1      21.466 -14.390  -7.289  1.00  0.00     0.275 HD
ATOM     53  H21 UNL     1      21.476 -13.052  -8.341  1.00  0.00     0.275 HD
ENDBRANCH  38  50
ENDBRANCH  37  38
BRANCH  37  54
HETATM   54  O2  UNL     1      20.636 -11.140  -5.503  1.00  0.00    -0.347 OA
ATOM     55  H2  UNL     1      19.770 -10.795  -5.688  1.00  0.00     0.219 HD
ENDBRANCH  37  54
ENDBRANCH  36  37
BRANCH  36  56
HETATM   56  S1  UNL     1      22.047  -9.034  -7.791  1.00  0.00     0.214 S 
HETATM   57  O6  UNL     1      22.790  -8.679  -6.524  1.00  0.00    -0.578 OA
HETATM   58  O7  UNL     1      23.098  -9.196  -8.912  1.00  0.00    -0.578 OA
HETATM   59  O8  UNL     1      21.170  -7.680  -8.239  1.00  0.00    -0.578 OA
ENDBRANCH  36  56
ENDBRANCH   1  36
BRANCH   7  60
HETATM   60  O5  UNL     1      21.978 -11.949  -9.872  1.00  0.00    -0.389 OA
ATOM     61  H5  UNL     1      22.743 -11.467 -10.161  1.00  0.00     0.210 HD
ENDBRANCH   7  60
TORSDOF 17
ENDMDL
MODEL 4
REMARK VINA RESULT: -6.567794541      2.375      5.596
REMARK  17 active torsions:
REMARK  status: ('A' for Active; 'I' for Inactive)
REMARK    1  A    between atoms: C2_2  and  C4_4 
REMARK    2  A    between atoms: C4_4  and  N1_5 
REMARK    3  A    between atoms: C4_4  and  C21_59 
REMARK       I    between atoms: N1_5  and  C5_7 
REMARK    4  A    between atoms: C5_7  and  C6_9 
REMARK    5  A    between atoms: C6_9  and  N2_10 
REMARK    6  A    between atoms: C6_9  and  C7_14 
REMARK    7  A    between atoms: C7_14  and  O2_15 
REMARK    8  A    between atoms: C7_14  and  N3_17 
REMARK    9  A    between atoms: N3_17  and  C8_18 
REMARK   10  A    between atoms: N3_17  and  S1_55 
REMARK   11  A    between atoms: C9_22  and  N5_23 
REMARK   12  A    between atoms: C12_28  and  N7_29 
REMARK   13  A    between atoms: C13_34  and  N9_35 
REMARK   14  A    between atoms: C15_37  and  N10_38 
REMARK   15  A    between atoms: C16_42  and  O3_43 
REMARK   16  A    between atoms: C19_49  and  O4_50 
REMARK   17  A    between atoms: C20_52  and  O5_53 
ROOT
HETATM    1  C8  UNL     1      19.465 -11.352  -9.076  1.00  0.00     0.338 C 
HETATM    2  N4  UNL     1      18.412 -12.226  -8.688  1.00  0.00    -0.026 N 
ATOM      3  H41 UNL     1      17.580 -11.735  -8.361  1.00  0.00     0.282 HD
ATOM      4  H42 UNL     1      18.607 -12.735  -7.825  1.00  0.00     0.282 HD
HETATM    5  C9  UNL     1      18.159 -13.094  -9.822  1.00  0.00     0.327 C 
HETATM    6  C19 UNL     1      19.459 -13.262 -10.517  1.00  0.00     0.201 C 
HETATM    7  C20 UNL     1      20.301 -12.101 -10.063  1.00  0.00     0.202 C 
ENDROOT
BRANCH   5   8
HETATM    8  N5  UNL     1      17.476 -14.295  -9.462  1.00  0.00    -0.295 N 
HETATM    9  C10 UNL     1      16.455 -14.847 -10.140  1.00  0.00     0.187 A 
HETATM   10  N6  UNL     1      16.051 -15.987  -9.508  1.00  0.00    -0.346 N 
HETATM   11  C11 UNL     1      16.835 -16.142  -8.422  1.00  0.00     0.123 A 
ATOM     12  H6  UNL     1      15.296 -16.607  -9.803  1.00  0.00     0.167 HD
HETATM   13  C12 UNL     1      16.917 -17.074  -7.417  1.00  0.00     0.145 A 
HETATM   14  C18 UNL     1      17.708 -15.083  -8.416  1.00  0.00     0.156 A 
HETATM   15  N8  UNL     1      17.845 -16.915  -6.469  1.00  0.00    -0.175 N 
HETATM   16  C13 UNL     1      18.721 -15.886  -6.431  1.00  0.00     0.683 A 
ATOM     17  H8  UNL     1      17.896 -17.613  -5.727  1.00  0.00     0.186 HD
HETATM   18  N11 UNL     1      18.611 -14.994  -7.430  1.00  0.00    -0.174 N 
ATOM     19  H11 UNL     1      19.253 -14.201  -7.438  1.00  0.00     0.186 HD
BRANCH  13  20
HETATM   20  N7  UNL     1      16.105 -18.080  -7.399  1.00  0.00    -0.383 N 
ATOM     21  H72 UNL     1      16.130 -18.793  -8.128  1.00  0.00     0.157 HD
ATOM     22  H71 UNL     1      15.424 -18.174  -6.645  1.00  0.00     0.157 HD
ENDBRANCH  13  20
BRANCH  16  23
HETATM   23  N9  UNL     1      19.695 -15.763  -5.398  1.00  0.00    -0.213 N 
HETATM   24  C14 UNL     1      21.050 -16.309  -5.513  1.00  0.00     0.176 C 
HETATM   25  C15 UNL     1      21.517 -16.468  -4.092  1.00  0.00     0.232 C 
HETATM   26  C16 UNL     1      20.836 -15.306  -3.409  1.00  0.00     0.168 C 
HETATM   27  C17 UNL     1      19.507 -15.113  -4.139  1.00  0.00     0.175 C 
BRANCH  25  28
HETATM   28  N10 UNL     1      22.970 -16.350  -4.062  1.00  0.00    -0.071 N 
ATOM     29 3H10 UNL     1      23.391 -16.894  -3.309  1.00  0.00     0.274 HD
ATOM     30 2H10 UNL     1      23.417 -16.825  -4.846  1.00  0.00     0.274 HD
ATOM     31 1H10 UNL     1      23.216 -15.361  -4.013  1.00  0.00     0.274 HD
ENDBRANCH  25  28
BRANCH  26  32
HETATM   32  O3  UNL     1      21.574 -14.133  -3.597  1.00  0.00    -0.392 OA
ATOM     33  H3  UNL     1      22.389 -14.174  -3.110  1.00  0.00     0.210 HD
ENDBRANCH  26  32
ENDBRANCH  16  23
ENDBRANCH   5   8
BRANCH   6  34
HETATM   34  O4  UNL     1      20.143 -14.434 -10.210  1.00  0.00    -0.389 OA
ATOM     35  H4  UNL     1      21.070 -14.423 -10.417  1.00  0.00     0.210 HD
ENDBRANCH   6  34
BRANCH   1  36
HETATM   36  N3  UNL     1      20.199 -10.749  -7.969  1.00  0.00    -0.204 N 
BRANCH  36  37
HETATM   37  C7  UNL     1      20.888  -9.540  -8.159  1.00  0.00     0.172 C 
BRANCH  37  38
HETATM   38  C6  UNL     1      22.314  -9.212  -8.043  1.00  0.00     0.349 C 
BRANCH  38  39
HETATM   39  C5  UNL     1      23.188 -10.360  -8.408  1.00  0.00     0.257 C 
HETATM   40  N1  UNL     1      23.565 -11.299  -7.433  1.00  0.00    -0.344 N 
ATOM     41  H1  UNL     1      23.224 -11.161  -6.481  1.00  0.00     0.163 HD
HETATM   42  O1  UNL     1      23.613 -10.524  -9.584  1.00  0.00    -0.271 OA
BRANCH  40  43
HETATM   43  C4  UNL     1      24.405 -12.447  -7.690  1.00  0.00     0.189 C 
BRANCH  43  44
HETATM   44  C2  UNL     1      25.738 -12.336  -6.963  1.00  0.00     0.010 C 
HETATM   45  C1  UNL     1      25.678 -11.118  -6.081  1.00  0.00     0.012 C 
HETATM   46  C3  UNL     1      26.839 -12.177  -7.957  1.00  0.00     0.012 C 
ENDBRANCH  43  44
BRANCH  43  47
HETATM   47  C21 UNL     1      23.774 -13.708  -7.201  1.00  0.00     0.197 C 
HETATM   48  O9  UNL     1      23.280 -14.528  -8.014  1.00  0.00    -0.646 OA
HETATM   49  O10 UNL     1      23.732 -13.975  -5.849  1.00  0.00    -0.646 OA
ENDBRANCH  43  47
ENDBRANCH  40  43
ENDBRANCH  38  39
BRANCH  38  50
HETATM   50  N2  UNL     1      22.738  -8.749  -6.746  1.00  0.00    -0.059 N 
ATOM     51  H23 UNL     1      23.303  -9.433  -6.242  1.00  0.00     0.275 HD
ATOM     52  H22 UNL     1      23.439  -8.010  -6.795  1.00  0.00     0.275 HD
ATOM     53  H21 UNL     1      21.900  -8.471  -6.236  1.00  0.00     0.275 HD
ENDBRANCH  38  50
ENDBRANCH  37  38
BRANCH  37  54
HETATM   54  O2  UNL     1      20.193  -8.478  -8.504  1.00  0.00    -0.347 OA
ATOM     55  H2  UNL     1      20.138  -8.405  -9.450  1.00  0.00     0.219 HD
ENDBRANCH  37  54
ENDBRANCH  36  37
BRANCH  36  56
HETATM   56  S1  UNL     1      20.153 -11.528  -6.457  1.00  0.00     0.214 S 
HETATM   57  O6  UNL     1      18.769 -11.633  -5.860  1.00  0.00    -0.578 OA
HETATM   58  O7  UNL     1      20.698 -12.965  -6.615  1.00  0.00    -0.578 OA
HETATM   59  O8  UNL     1      21.138 -10.839  -5.291  1.00  0.00    -0.578 OA
ENDBRANCH  36  56
ENDBRANCH   1  36
BRANCH   7  60
HETATM   60  O5  UNL     1      21.507 -12.567  -9.617  1.00  0.00    -0.389 OA
ATOM     61  H5  UNL     1      21.870 -13.315 -10.075  1.00  0.00     0.210 HD
ENDBRANCH   7  60
TORSDOF 17
ENDMDL
MODEL 5
REMARK VINA RESULT: -6.566822677      2.855      6.564
REMARK  17 active torsions:
REMARK  status: ('A' for Active; 'I' for Inactive)
REMARK    1  A    between atoms: C2_2  and  C4_4 
REMARK    2  A    between atoms: C4_4  and  N1_5 
REMARK    3  A    between atoms: C4_4  and  C21_59 
REMARK       I    between atoms: N1_5  and  C5_7 
REMARK    4  A    between atoms: C5_7  and  C6_9 
REMARK    5  A    between atoms: C6_9  and  N2_10 
REMARK    6  A    between atoms: C6_9  and  C7_14 
REMARK    7  A    between atoms: C7_14  and  O2_15 
REMARK    8  A    between atoms: C7_14  and  N3_17 
REMARK    9  A    between atoms: N3_17  and  C8_18 
REMARK   10  A    between atoms: N3_17  and  S1_55 
REMARK   11  A    between atoms: C9_22  and  N5_23 
REMARK   12  A    between atoms: C12_28  and  N7_29 
REMARK   13  A    between atoms: C13_34  and  N9_35 
REMARK   14  A    between atoms: C15_37  and  N10_38 
REMARK   15  A    between atoms: C16_42  and  O3_43 
REMARK   16  A    between atoms: C19_49  and  O4_50 
REMARK   17  A    between atoms: C20_52  and  O5_53 
ROOT
HETATM    1  C8  UNL     1      18.395 -14.451  -5.487  1.00  0.00     0.338 C 
HETATM    2  N4  UNL     1      18.049 -14.986  -6.759  1.00  0.00    -0.026 N 
ATOM      3  H41 UNL     1      17.985 -16.003  -6.765  1.00  0.00     0.282 HD
ATOM      4  H42 UNL     1      18.797 -14.902  -7.449  1.00  0.00     0.282 HD
HETATM    5  C9  UNL     1      16.820 -14.329  -7.161  1.00  0.00     0.327 C 
HETATM    6  C19 UNL     1      16.863 -12.968  -6.571  1.00  0.00     0.201 C 
HETATM    7  C20 UNL     1      17.861 -13.056  -5.450  1.00  0.00     0.202 C 
ENDROOT
BRANCH   5   8
HETATM    8  N5  UNL     1      16.585 -14.400  -8.568  1.00  0.00    -0.295 N 
HETATM    9  C10 UNL     1      15.382 -14.522  -9.154  1.00  0.00     0.187 A 
HETATM   10  N6  UNL     1      15.537 -14.558 -10.509  1.00  0.00    -0.346 N 
HETATM   11  C11 UNL     1      16.857 -14.458 -10.764  1.00  0.00     0.123 A 
ATOM     12  H6  UNL     1      14.792 -14.645 -11.201  1.00  0.00     0.167 HD
HETATM   13  C12 UNL     1      17.619 -14.434 -11.906  1.00  0.00     0.145 A 
HETATM   14  C18 UNL     1      17.484 -14.361  -9.548  1.00  0.00     0.156 A 
HETATM   15  N8  UNL     1      18.946 -14.318 -11.790  1.00  0.00    -0.175 N 
HETATM   16  C13 UNL     1      19.596 -14.220 -10.609  1.00  0.00     0.683 A 
ATOM     17  H8  UNL     1      19.502 -14.302 -12.645  1.00  0.00     0.186 HD
HETATM   18  N11 UNL     1      18.818 -14.247  -9.514  1.00  0.00    -0.174 N 
ATOM     19  H11 UNL     1      19.271 -14.177  -8.603  1.00  0.00     0.186 HD
BRANCH  13  20
HETATM   20  N7  UNL     1      17.053 -14.525 -13.065  1.00  0.00    -0.383 N 
ATOM     21  H72 UNL     1      16.290 -13.903 -13.331  1.00  0.00     0.157 HD
ATOM     22  H71 UNL     1      17.368 -15.228 -13.734  1.00  0.00     0.157 HD
ENDBRANCH  13  20
BRANCH  16  23
HETATM   23  N9  UNL     1      21.015 -14.095 -10.539  1.00  0.00    -0.213 N 
HETATM   24  C14 UNL     1      21.693 -12.806 -10.383  1.00  0.00     0.176 C 
HETATM   25  C15 UNL     1      23.082 -13.041 -10.909  1.00  0.00     0.232 C 
HETATM   26  C16 UNL     1      23.320 -14.481 -10.523  1.00  0.00     0.168 C 
HETATM   27  C17 UNL     1      21.957 -15.168 -10.607  1.00  0.00     0.175 C 
BRANCH  25  28
HETATM   28  N10 UNL     1      23.999 -12.131 -10.232  1.00  0.00    -0.071 N 
ATOM     29 3H10 UNL     1      24.578 -11.604 -10.885  1.00  0.00     0.274 HD
ATOM     30 2H10 UNL     1      23.518 -11.342  -9.802  1.00  0.00     0.274 HD
ATOM     31 1H10 UNL     1      24.552 -12.664  -9.562  1.00  0.00     0.274 HD
ENDBRANCH  25  28
BRANCH  26  32
HETATM   32  O3  UNL     1      23.733 -14.565  -9.190  1.00  0.00    -0.392 OA
ATOM     33  H3  UNL     1      24.677 -14.472  -9.130  1.00  0.00     0.210 HD
ENDBRANCH  26  32
ENDBRANCH  16  23
ENDBRANCH   5   8
BRANCH   6  34
HETATM   34  O4  UNL     1      17.279 -11.964  -7.439  1.00  0.00    -0.389 OA
ATOM     35  H4  UNL     1      17.452 -11.125  -7.028  1.00  0.00     0.210 HD
ENDBRANCH   6  34
BRANCH   1  36
HETATM   36  N3  UNL     1      19.802 -14.590  -5.127  1.00  0.00    -0.204 N 
BRANCH  36  37
HETATM   37  C7  UNL     1      20.793 -13.988  -5.920  1.00  0.00     0.172 C 
BRANCH  37  38
HETATM   38  C6  UNL     1      22.068 -13.357  -5.560  1.00  0.00     0.349 C 
BRANCH  38  39
HETATM   39  C5  UNL     1      22.496 -12.343  -6.562  1.00  0.00     0.257 C 
HETATM   40  N1  UNL     1      21.729 -11.183  -6.767  1.00  0.00    -0.344 N 
ATOM     41  H1  UNL     1      20.881 -11.069  -6.212  1.00  0.00     0.163 HD
HETATM   42  O1  UNL     1      23.543 -12.491  -7.251  1.00  0.00    -0.271 OA
BRANCH  40  43
HETATM   43  C4  UNL     1      22.065 -10.143  -7.711  1.00  0.00     0.189 C 
BRANCH  43  44
HETATM   44  C2  UNL     1      20.822  -9.409  -8.197  1.00  0.00     0.010 C 
HETATM   45  C1  UNL     1      19.802 -10.446  -8.586  1.00  0.00     0.012 C 
HETATM   46  C3  UNL     1      21.164  -8.578  -9.387  1.00  0.00     0.012 C 
ENDBRANCH  43  44
BRANCH  43  47
HETATM   47  C21 UNL     1      22.940  -9.103  -7.093  1.00  0.00     0.197 C 
HETATM   48  O9  UNL     1      22.660  -8.626  -5.965  1.00  0.00    -0.646 OA
HETATM   49  O10 UNL     1      24.061  -8.663  -7.762  1.00  0.00    -0.646 OA
ENDBRANCH  43  47
ENDBRANCH  40  43
ENDBRANCH  38  39
BRANCH  38  50
HETATM   50  N2  UNL     1      23.173 -14.262  -5.371  1.00  0.00    -0.059 N 
ATOM     51  H23 UNL     1      23.928 -14.118  -6.041  1.00  0.00     0.275 HD
ATOM     52  H22 UNL     1      23.709 -14.067  -4.525  1.00  0.00     0.275 HD
ATOM     53  H21 UNL     1      22.795 -15.209  -5.393  1.00  0.00     0.275 HD
ENDBRANCH  38  50
ENDBRANCH  37  38
BRANCH  37  54
HETATM   54  O2  UNL     1      20.606 -13.951  -7.221  1.00  0.00    -0.347 OA
ATOM     55  H2  UNL     1      21.303 -13.463  -7.646  1.00  0.00     0.219 HD
ENDBRANCH  37  54
ENDBRANCH  36  37
BRANCH  36  56
HETATM   56  S1  UNL     1      20.187 -15.458  -3.715  1.00  0.00     0.214 S 
HETATM   57  O6  UNL     1      20.447 -14.587  -2.509  1.00  0.00    -0.578 OA
HETATM   58  O7  UNL     1      19.008 -16.394  -3.363  1.00  0.00    -0.578 OA
HETATM   59  O8  UNL     1      21.499 -16.487  -3.868  1.00  0.00    -0.578 OA
ENDBRANCH  36  56
ENDBRANCH   1  36
BRANCH   7  60
HETATM   60  O5  UNL     1      18.774 -12.047  -5.580  1.00  0.00    -0.389 OA
ATOM     61  H5  UNL     1      19.593 -12.266  -6.009  1.00  0.00     0.210 HD
ENDBRANCH   7  60
TORSDOF 17
ENDMDL
