MODEL 1
REMARK VINA RESULT: -6.803396698      0.000      0.000
REMARK  17 active torsions:
REMARK  status: ('A' for Active; 'I' for Inactive)
REMARK    1  A    between atoms: N1_1  and  C1_5 
REMARK    2  A    between atoms: C1_5  and  N2_6 
REMARK    3  A    between atoms: C1_5  and  C2_10 
REMARK    4  A    between atoms: C3_13  and  C4_14 
REMARK    5  A    between atoms: C4_14  and  N4_15 
REMARK       I    between atoms: N4_15  and  C5_17 
REMARK    6  A    between atoms: C5_17  and  C6_19 
REMARK    7  A    between atoms: C6_19  and  N5_20 
REMARK    8  A    between atoms: C8_27  and  N8_28 
REMARK    9  A    between atoms: N8_28  and  C9_30 
REMARK   10  A    between atoms: C9_30  and  O3_31 
REMARK   11  A    between atoms: C9_30  and  C10_33 
REMARK   12  A    between atoms: C10_33  and  C11_34 
REMARK   13  A    between atoms: C11_34  and  O4_35 
REMARK   14  A    between atoms: N10_38  and  O5_39 
REMARK   15  A    between atoms: C15_49  and  C16_50 
REMARK   16  A    between atoms: C16_50  and  N12_51 
REMARK   17  A    between atoms: C22_61  and  O10_62 
ROOT
HETATM    1  N4  UNL     1      22.242 -12.584  -9.948  1.00  0.00    -0.354 N 
ATOM      2  H4  UNL     1      22.132 -13.362  -9.297  1.00  0.00     0.162 HD
HETATM    3  C5  UNL     1      21.212 -12.308 -10.930  1.00  0.00     0.237 C 
HETATM    4  O1  UNL     1      21.370 -11.352 -11.715  1.00  0.00    -0.272 OA
ENDROOT
BRANCH   3   5
HETATM    5  C6  UNL     1      19.999 -13.137 -11.002  1.00  0.00     0.255 C 
BRANCH   5   6
HETATM    6  N5  UNL     1      19.190 -12.929  -9.793  1.00  0.00    -0.242 N 
HETATM    7  N6  UNL     1      18.374 -11.918  -9.722  1.00  0.00    -0.246 N 
HETATM    8  C7  UNL     1      17.635 -11.742  -8.595  1.00  0.00     0.340 A 
ATOM      9  H6  UNL     1      18.290 -11.267 -10.502  1.00  0.00     0.192 HD
HETATM   10  O2  UNL     1      16.857 -10.761  -8.554  1.00  0.00    -0.245 OA
HETATM   11  N7  UNL     1      17.751 -12.599  -7.578  1.00  0.00    -0.289 N 
HETATM   12  C8  UNL     1      18.564 -13.649  -7.586  1.00  0.00     0.182 A 
ATOM     13  H7  UNL     1      17.181 -12.437  -6.747  1.00  0.00     0.172 HD
HETATM   14  C14 UNL     1      19.306 -13.784  -8.780  1.00  0.00     0.306 A 
HETATM   15  O8  UNL     1      20.089 -14.763  -8.834  1.00  0.00    -0.262 OA
BRANCH  12  16
HETATM   16  N8  UNL     1      18.685 -14.532  -6.527  1.00  0.00    -0.320 N 
ATOM     17  H8  UNL     1      18.406 -15.478  -6.788  1.00  0.00     0.169 HD
BRANCH  16  18
HETATM   18  C9  UNL     1      19.085 -14.460  -5.211  1.00  0.00     0.156 C 
BRANCH  18  19
HETATM   19  O3  UNL     1      18.348 -13.564  -4.526  1.00  0.00    -0.347 OA
ATOM     20  H3  UNL     1      17.419 -13.747  -4.609  1.00  0.00     0.219 HD
ENDBRANCH  18  19
BRANCH  18  21
HETATM   21  C10 UNL     1      20.109 -15.122  -4.404  1.00  0.00     0.218 C 
HETATM   22  N9  UNL     1      21.228 -15.511  -5.350  1.00  0.00    -0.076 NA
HETATM   23  N10 UNL     1      21.784 -14.381  -5.895  1.00  0.00    -0.111 N 
HETATM   24  C12 UNL     1      21.835 -13.141  -5.230  1.00  0.00     0.365 C 
HETATM   25  O6  UNL     1      22.373 -12.111  -5.780  1.00  0.00    -0.243 OA
HETATM   26  N11 UNL     1      21.287 -13.006  -3.928  1.00  0.00    -0.274 N 
HETATM   27  C13 UNL     1      20.709 -14.235  -3.413  1.00  0.00     0.262 C 
ATOM     28  H11 UNL     1      21.298 -12.131  -3.404  1.00  0.00     0.173 HD
HETATM   29  O7  UNL     1      20.738 -14.498  -2.207  1.00  0.00    -0.270 OA
BRANCH  21  30
HETATM   30  C11 UNL     1      19.700 -16.422  -3.802  1.00  0.00     0.211 C 
BRANCH  30  31
HETATM   31  O4  UNL     1      18.348 -16.662  -4.152  1.00  0.00    -0.398 OA
ATOM     32  H4  UNL     1      17.973 -17.242  -3.500  1.00  0.00     0.209 HD
ENDBRANCH  30  31
ENDBRANCH  21  30
BRANCH  23  33
HETATM   33  O5  UNL     1      22.326 -14.455  -7.167  1.00  0.00    -0.267 OA
ATOM     34  H5  UNL     1      23.271 -14.490  -7.257  1.00  0.00     0.246 HD
ENDBRANCH  23  33
ENDBRANCH  18  21
ENDBRANCH  16  18
ENDBRANCH  12  16
ENDBRANCH   5   6
ENDBRANCH   3   5
BRANCH   1  35
HETATM   35  C4  UNL     1      23.413 -11.764  -9.893  1.00  0.00     0.180 C 
BRANCH  35  36
HETATM   36  C3  UNL     1      24.216 -11.824  -8.687  1.00  0.00     0.042 A 
HETATM   37  N3  UNL     1      24.623 -12.982  -8.159  1.00  0.00    -0.355 N 
HETATM   38  C2  UNL     1      25.377 -13.094  -7.031  1.00  0.00     0.105 A 
ATOM     39  H3  UNL     1      24.351 -13.842  -8.634  1.00  0.00     0.166 HD
HETATM   40  C22 UNL     1      25.737 -11.942  -6.398  1.00  0.00     0.143 A 
HETATM   41  C21 UNL     1      25.322 -10.698  -6.932  1.00  0.00     0.220 A 
HETATM   42  C15 UNL     1      24.567 -10.603  -8.065  1.00  0.00     0.051 A 
HETATM   43  O9  UNL     1      25.722  -9.711  -6.265  1.00  0.00    -0.284 OA
BRANCH  38  44
HETATM   44  C1  UNL     1      25.787 -14.456  -6.618  1.00  0.00     0.430 C 
BRANCH  44  45
HETATM   45  N1  UNL     1      25.124 -14.790  -5.379  1.00  0.00    -0.045 N 
ATOM     46  H13 UNL     1      24.757 -13.977  -4.885  1.00  0.00     0.277 HD
ATOM     47  H12 UNL     1      24.234 -15.269  -5.513  1.00  0.00     0.277 HD
ATOM     48  H11 UNL     1      25.794 -15.328  -4.829  1.00  0.00     0.277 HD
ENDBRANCH  44  45
BRANCH  44  49
HETATM   49  N2  UNL     1      27.209 -14.509  -6.350  1.00  0.00    -0.045 N 
ATOM     50  H23 UNL     1      27.693 -13.636  -6.562  1.00  0.00     0.277 HD
ATOM     51  H22 UNL     1      27.432 -14.538  -5.355  1.00  0.00     0.277 HD
ATOM     52  H21 UNL     1      27.571 -15.308  -6.869  1.00  0.00     0.277 HD
ENDBRANCH  44  49
ENDBRANCH  38  44
BRANCH  40  53
HETATM   53  O10 UNL     1      26.488 -11.957  -5.248  1.00  0.00    -0.355 OA
ATOM     54  H10 UNL     1      26.695 -11.158  -4.778  1.00  0.00     0.218 HD
ENDBRANCH  40  53
BRANCH  42  55
HETATM   55  C16 UNL     1      24.134  -9.379  -8.699  1.00  0.00     0.077 C 
BRANCH  55  56
HETATM   56  N12 UNL     1      23.265  -8.502  -7.961  1.00  0.00    -0.288 NA
HETATM   57  C17 UNL     1      22.898  -7.397  -8.844  1.00  0.00     0.122 C 
HETATM   58  C18 UNL     1      21.607  -6.740  -8.503  1.00  0.00     0.247 C 
HETATM   59  N13 UNL     1      20.503  -7.613  -8.907  1.00  0.00    -0.073 N 
HETATM   60  C19 UNL     1      21.063  -8.951  -8.883  1.00  0.00     0.247 C 
ATOM     61 2H13 UNL     1      19.661  -7.505  -8.342  1.00  0.00     0.277 HD
ATOM     62 1H13 UNL     1      20.077  -7.357  -9.798  1.00  0.00     0.277 HD
HETATM   63  C20 UNL     1      21.970  -9.176  -7.698  1.00  0.00     0.122 C 
ENDBRANCH  55  56
ENDBRANCH  42  55
ENDBRANCH  35  36
ENDBRANCH   1  35
TORSDOF 17
ENDMDL
MODEL 2
REMARK VINA RESULT: -6.798909653      2.886      7.690
REMARK  17 active torsions:
REMARK  status: ('A' for Active; 'I' for Inactive)
REMARK    1  A    between atoms: N1_1  and  C1_5 
REMARK    2  A    between atoms: C1_5  and  N2_6 
REMARK    3  A    between atoms: C1_5  and  C2_10 
REMARK    4  A    between atoms: C3_13  and  C4_14 
REMARK    5  A    between atoms: C4_14  and  N4_15 
REMARK       I    between atoms: N4_15  and  C5_17 
REMARK    6  A    between atoms: C5_17  and  C6_19 
REMARK    7  A    between atoms: C6_19  and  N5_20 
REMARK    8  A    between atoms: C8_27  and  N8_28 
REMARK    9  A    between atoms: N8_28  and  C9_30 
REMARK   10  A    between atoms: C9_30  and  O3_31 
REMARK   11  A    between atoms: C9_30  and  C10_33 
REMARK   12  A    between atoms: C10_33  and  C11_34 
REMARK   13  A    between atoms: C11_34  and  O4_35 
REMARK   14  A    between atoms: N10_38  and  O5_39 
REMARK   15  A    between atoms: C15_49  and  C16_50 
REMARK   16  A    between atoms: C16_50  and  N12_51 
REMARK   17  A    between atoms: C22_61  and  O10_62 
ROOT
HETATM    1  N4  UNL     1      19.625 -16.295  -7.820  1.00  0.00    -0.354 N 
ATOM      2  H4  UNL     1      20.006 -15.349  -7.839  1.00  0.00     0.162 HD
HETATM    3  C5  UNL     1      20.357 -17.360  -7.165  1.00  0.00     0.237 C 
HETATM    4  O1  UNL     1      19.871 -18.509  -7.157  1.00  0.00    -0.272 OA
ENDROOT
BRANCH   3   5
HETATM    5  C6  UNL     1      21.652 -17.097  -6.517  1.00  0.00     0.255 C 
BRANCH   5   6
HETATM    6  N5  UNL     1      21.583 -15.825  -5.783  1.00  0.00    -0.242 N 
HETATM    7  N6  UNL     1      21.101 -15.796  -4.576  1.00  0.00    -0.246 N 
HETATM    8  C7  UNL     1      21.045 -14.610  -3.914  1.00  0.00     0.340 A 
ATOM      9  H6  UNL     1      20.769 -16.652  -4.132  1.00  0.00     0.192 HD
HETATM   10  O2  UNL     1      20.577 -14.610  -2.753  1.00  0.00    -0.245 OA
HETATM   11  N7  UNL     1      21.482 -13.494  -4.503  1.00  0.00    -0.289 N 
HETATM   12  C8  UNL     1      21.984 -13.455  -5.733  1.00  0.00     0.182 A 
ATOM     13  H7  UNL     1      21.425 -12.621  -3.979  1.00  0.00     0.172 HD
HETATM   14  C14 UNL     1      22.018 -14.714  -6.372  1.00  0.00     0.306 A 
HETATM   15  O8  UNL     1      22.486 -14.727  -7.537  1.00  0.00    -0.262 OA
BRANCH  12  16
HETATM   16  N8  UNL     1      22.430 -12.295  -6.341  1.00  0.00    -0.320 N 
ATOM     17  H8  UNL     1      23.415 -12.356  -6.599  1.00  0.00     0.169 HD
BRANCH  16  18
HETATM   18  C9  UNL     1      21.884 -11.079  -6.688  1.00  0.00     0.156 C 
BRANCH  18  19
HETATM   19  O3  UNL     1      21.014 -10.650  -5.751  1.00  0.00    -0.347 OA
ATOM     20  H3  UNL     1      20.304 -11.270  -5.632  1.00  0.00     0.219 HD
ENDBRANCH  18  19
BRANCH  18  21
HETATM   21  C10 UNL     1      22.030 -10.164  -7.819  1.00  0.00     0.218 C 
HETATM   22  N9  UNL     1      22.522 -10.992  -8.990  1.00  0.00    -0.076 NA
HETATM   23  N10 UNL     1      21.575 -11.928  -9.322  1.00  0.00    -0.111 N 
HETATM   24  C12 UNL     1      20.192 -11.734  -9.139  1.00  0.00     0.365 C 
HETATM   25  O6  UNL     1      19.342 -12.639  -9.473  1.00  0.00    -0.243 OA
HETATM   26  N11 UNL     1      19.709 -10.524  -8.577  1.00  0.00    -0.274 N 
HETATM   27  C13 UNL     1      20.762  -9.581  -8.242  1.00  0.00     0.262 C 
ATOM     28  H11 UNL     1      18.719 -10.334  -8.424  1.00  0.00     0.173 HD
HETATM   29  O7  UNL     1      20.577  -8.362  -8.321  1.00  0.00    -0.270 OA
BRANCH  21  30
HETATM   30  C11 UNL     1      23.088  -9.127  -7.664  1.00  0.00     0.211 C 
BRANCH  30  31
HETATM   31  O4  UNL     1      23.705  -9.315  -6.401  1.00  0.00    -0.398 OA
ATOM     32  H4  UNL     1      24.636  -9.439  -6.544  1.00  0.00     0.209 HD
ENDBRANCH  30  31
ENDBRANCH  21  30
BRANCH  23  33
HETATM   33  O5  UNL     1      21.992 -13.130  -9.867  1.00  0.00    -0.267 OA
ATOM     34  H5  UNL     1      22.690 -13.120 -10.512  1.00  0.00     0.246 HD
ENDBRANCH  23  33
ENDBRANCH  18  21
ENDBRANCH  16  18
ENDBRANCH  12  16
ENDBRANCH   5   6
ENDBRANCH   3   5
BRANCH   1  35
HETATM   35  C4  UNL     1      18.367 -16.573  -8.442  1.00  0.00     0.180 C 
BRANCH  35  36
HETATM   36  C3  UNL     1      18.131 -16.008  -9.757  1.00  0.00     0.042 A 
HETATM   37  N3  UNL     1      19.059 -16.029 -10.718  1.00  0.00    -0.355 N 
HETATM   38  C2  UNL     1      18.890 -15.515 -11.967  1.00  0.00     0.105 A 
ATOM     39  H3  UNL     1      19.957 -16.461 -10.501  1.00  0.00     0.166 HD
HETATM   40  C22 UNL     1      17.689 -14.937 -12.252  1.00  0.00     0.143 A 
HETATM   41  C21 UNL     1      16.684 -14.898 -11.256  1.00  0.00     0.220 A 
HETATM   42  C15 UNL     1      16.870 -15.419 -10.008  1.00  0.00     0.051 A 
HETATM   43  O9  UNL     1      15.623 -14.347 -11.640  1.00  0.00    -0.284 OA
BRANCH  38  44
HETATM   44  C1  UNL     1      20.007 -15.676 -12.927  1.00  0.00     0.430 C 
BRANCH  44  45
HETATM   45  N1  UNL     1      20.601 -14.384 -13.177  1.00  0.00    -0.045 N 
ATOM     46  H13 UNL     1      21.344 -14.408 -13.875  1.00  0.00     0.277 HD
ATOM     47  H12 UNL     1      19.981 -13.743 -13.674  1.00  0.00     0.277 HD
ATOM     48  H11 UNL     1      20.909 -14.028 -12.272  1.00  0.00     0.277 HD
ENDBRANCH  44  45
BRANCH  44  49
HETATM   49  N2  UNL     1      19.525 -16.159 -14.204  1.00  0.00    -0.045 N 
ATOM     50  H23 UNL     1      19.420 -15.422 -14.902  1.00  0.00     0.277 HD
ATOM     51  H22 UNL     1      20.212 -16.717 -14.711  1.00  0.00     0.277 HD
ATOM     52  H21 UNL     1      18.657 -16.660 -14.014  1.00  0.00     0.277 HD
ENDBRANCH  44  49
ENDBRANCH  38  44
BRANCH  40  53
HETATM   53  O10 UNL     1      17.432 -14.383 -13.482  1.00  0.00    -0.355 OA
ATOM     54  H10 UNL     1      16.574 -14.448 -13.887  1.00  0.00     0.218 HD
ENDBRANCH  40  53
BRANCH  42  55
HETATM   55  C16 UNL     1      15.889 -15.458  -8.947  1.00  0.00     0.077 C 
BRANCH  55  56
HETATM   56  N12 UNL     1      15.308 -14.216  -8.513  1.00  0.00    -0.288 NA
HETATM   57  C17 UNL     1      14.379 -14.518  -7.427  1.00  0.00     0.122 C 
HETATM   58  C18 UNL     1      14.142 -13.387  -6.489  1.00  0.00     0.247 C 
HETATM   59  N13 UNL     1      15.314 -13.225  -5.627  1.00  0.00    -0.073 N 
HETATM   60  C19 UNL     1      16.418 -13.761  -6.400  1.00  0.00     0.247 C 
ATOM     61 2H13 UNL     1      15.460 -12.269  -5.301  1.00  0.00     0.277 HD
ATOM     62 1H13 UNL     1      15.211 -13.647  -4.704  1.00  0.00     0.277 HD
HETATM   63  C20 UNL     1      16.341 -13.376  -7.857  1.00  0.00     0.122 C 
ENDBRANCH  55  56
ENDBRANCH  42  55
ENDBRANCH  35  36
ENDBRANCH   1  35
TORSDOF 17
ENDMDL
MODEL 3
REMARK VINA RESULT: -6.733342681      1.715      5.421
REMARK  17 active torsions:
REMARK  status: ('A' for Active; 'I' for Inactive)
REMARK    1  A    between atoms: N1_1  and  C1_5 
REMARK    2  A    between atoms: C1_5  and  N2_6 
REMARK    3  A    between atoms: C1_5  and  C2_10 
REMARK    4  A    between atoms: C3_13  and  C4_14 
REMARK    5  A    between atoms: C4_14  and  N4_15 
REMARK       I    between atoms: N4_15  and  C5_17 
REMARK    6  A    between atoms: C5_17  and  C6_19 
REMARK    7  A    between atoms: C6_19  and  N5_20 
REMARK    8  A    between atoms: C8_27  and  N8_28 
REMARK    9  A    between atoms: N8_28  and  C9_30 
REMARK   10  A    between atoms: C9_30  and  O3_31 
REMARK   11  A    between atoms: C9_30  and  C10_33 
REMARK   12  A    between atoms: C10_33  and  C11_34 
REMARK   13  A    between atoms: C11_34  and  O4_35 
REMARK   14  A    between atoms: N10_38  and  O5_39 
REMARK   15  A    between atoms: C15_49  and  C16_50 
REMARK   16  A    between atoms: C16_50  and  N12_51 
REMARK   17  A    between atoms: C22_61  and  O10_62 
ROOT
HETATM    1  N4  UNL     1      21.892 -13.419 -10.162  1.00  0.00    -0.354 N 
ATOM      2  H4  UNL     1      21.893 -14.353  -9.753  1.00  0.00     0.162 HD
HETATM    3  C5  UNL     1      23.109 -12.632 -10.178  1.00  0.00     0.237 C 
HETATM    4  O1  UNL     1      23.084 -11.492 -10.682  1.00  0.00    -0.272 OA
ENDROOT
BRANCH   3   5
HETATM    5  C6  UNL     1      24.358 -13.166  -9.610  1.00  0.00     0.255 C 
BRANCH   5   6
HETATM    6  N5  UNL     1      24.249 -13.219  -8.146  1.00  0.00    -0.242 N 
HETATM    7  N6  UNL     1      24.800 -12.293  -7.418  1.00  0.00    -0.246 N 
HETATM    8  C7  UNL     1      24.688 -12.360  -6.065  1.00  0.00     0.340 A 
ATOM      9  H6  UNL     1      25.310 -11.526  -7.857  1.00  0.00     0.192 HD
HETATM   10  O2  UNL     1      25.229 -11.456  -5.388  1.00  0.00    -0.245 OA
HETATM   11  N7  UNL     1      24.021 -13.368  -5.498  1.00  0.00    -0.289 N 
HETATM   12  C8  UNL     1      23.436 -14.345  -6.183  1.00  0.00     0.182 A 
ATOM     13  H7  UNL     1      23.956 -13.388  -4.480  1.00  0.00     0.172 HD
HETATM   14  C14 UNL     1      23.583 -14.224  -7.583  1.00  0.00     0.306 A 
HETATM   15  O8  UNL     1      23.046 -15.125  -8.272  1.00  0.00    -0.262 OA
BRANCH  12  16
HETATM   16  N8  UNL     1      22.749 -15.390  -5.590  1.00  0.00    -0.320 N 
ATOM     17  H8  UNL     1      23.381 -16.057  -5.148  1.00  0.00     0.169 HD
BRANCH  16  18
HETATM   18  C9  UNL     1      21.430 -15.759  -5.446  1.00  0.00     0.156 C 
BRANCH  18  19
HETATM   19  O3  UNL     1      20.875 -16.061  -6.636  1.00  0.00    -0.347 OA
ATOM     20  H3  UNL     1      19.939 -16.201  -6.554  1.00  0.00     0.219 HD
ENDBRANCH  18  19
BRANCH  18  21
HETATM   21  C10 UNL     1      20.512 -15.896  -4.316  1.00  0.00     0.218 C 
HETATM   22  N9  UNL     1      20.914 -14.848  -3.297  1.00  0.00    -0.076 NA
HETATM   23  N10 UNL     1      20.742 -13.596  -3.832  1.00  0.00    -0.111 N 
HETATM   24  C12 UNL     1      19.762 -13.290  -4.796  1.00  0.00     0.365 C 
HETATM   25  O6  UNL     1      19.635 -12.099  -5.264  1.00  0.00    -0.243 OA
HETATM   26  N11 UNL     1      18.889 -14.302  -5.273  1.00  0.00    -0.274 N 
HETATM   27  C13 UNL     1      19.129 -15.603  -4.673  1.00  0.00     0.262 C 
ATOM     28  H11 UNL     1      18.164 -14.133  -5.970  1.00  0.00     0.173 HD
HETATM   29  O7  UNL     1      18.203 -16.397  -4.479  1.00  0.00    -0.270 OA
BRANCH  21  30
HETATM   30  C11 UNL     1      20.626 -17.173  -3.557  1.00  0.00     0.211 C 
BRANCH  30  31
HETATM   31  O4  UNL     1      20.158 -16.945  -2.239  1.00  0.00    -0.398 OA
ATOM     32  H4  UNL     1      19.379 -16.404  -2.293  1.00  0.00     0.209 HD
ENDBRANCH  30  31
ENDBRANCH  21  30
BRANCH  23  33
HETATM   33  O5  UNL     1      21.572 -12.573  -3.408  1.00  0.00    -0.267 OA
ATOM     34  H5  UNL     1      21.204 -11.881  -2.869  1.00  0.00     0.246 HD
ENDBRANCH  23  33
ENDBRANCH  18  21
ENDBRANCH  16  18
ENDBRANCH  12  16
ENDBRANCH   5   6
ENDBRANCH   3   5
BRANCH   1  35
HETATM   35  C4  UNL     1      20.690 -12.882 -10.721  1.00  0.00     0.180 C 
BRANCH  35  36
HETATM   36  C3  UNL     1      19.493 -12.930  -9.904  1.00  0.00     0.042 A 
HETATM   37  N3  UNL     1      18.774 -14.046  -9.759  1.00  0.00    -0.355 N 
HETATM   38  C2  UNL     1      17.645 -14.146  -9.005  1.00  0.00     0.105 A 
ATOM     39  H3  UNL     1      19.093 -14.883 -10.247  1.00  0.00     0.166 HD
HETATM   40  C22 UNL     1      17.221 -13.025  -8.356  1.00  0.00     0.143 A 
HETATM   41  C21 UNL     1      17.961 -11.825  -8.488  1.00  0.00     0.220 A 
HETATM   42  C15 UNL     1      19.091 -11.743  -9.248  1.00  0.00     0.051 A 
HETATM   43  O9  UNL     1      17.475 -10.865  -7.839  1.00  0.00    -0.284 OA
BRANCH  38  44
HETATM   44  C1  UNL     1      17.004 -15.478  -8.910  1.00  0.00     0.430 C 
BRANCH  44  45
HETATM   45  N1  UNL     1      15.647 -15.381  -9.394  1.00  0.00    -0.045 N 
ATOM     46  H13 UNL     1      15.578 -15.406 -10.411  1.00  0.00     0.277 HD
ATOM     47  H12 UNL     1      15.091 -16.217  -9.209  1.00  0.00     0.277 HD
ATOM     48  H11 UNL     1      15.253 -14.535  -8.982  1.00  0.00     0.277 HD
ENDBRANCH  44  45
BRANCH  44  49
HETATM   49  N2  UNL     1      16.917 -15.913  -7.531  1.00  0.00    -0.045 N 
ATOM     50  H23 UNL     1      16.427 -16.801  -7.417  1.00  0.00     0.277 HD
ATOM     51  H22 UNL     1      17.812 -16.213  -7.145  1.00  0.00     0.277 HD
ATOM     52  H21 UNL     1      16.489 -15.146  -7.013  1.00  0.00     0.277 HD
ENDBRANCH  44  49
ENDBRANCH  38  44
BRANCH  40  53
HETATM   53  O10 UNL     1      16.087 -13.028  -7.580  1.00  0.00    -0.355 OA
ATOM     54  H10 UNL     1      16.115 -12.800  -6.658  1.00  0.00     0.218 HD
ENDBRANCH  40  53
BRANCH  42  55
HETATM   55  C16 UNL     1      19.926 -10.574  -9.408  1.00  0.00     0.077 C 
BRANCH  55  56
HETATM   56  N12 UNL     1      20.310  -9.847  -8.228  1.00  0.00    -0.288 NA
HETATM   57  C17 UNL     1      21.544 -10.444  -7.722  1.00  0.00     0.122 C 
HETATM   58  C18 UNL     1      22.386  -9.522  -6.911  1.00  0.00     0.247 C 
HETATM   59  N13 UNL     1      23.050  -8.570  -7.804  1.00  0.00    -0.073 N 
HETATM   60  C19 UNL     1      22.184  -8.487  -8.965  1.00  0.00     0.247 C 
ATOM     61 2H13 UNL     1      23.252  -7.668  -7.372  1.00  0.00     0.277 HD
ATOM     62 1H13 UNL     1      24.016  -8.811  -8.023  1.00  0.00     0.277 HD
HETATM   63  C20 UNL     1      20.722  -8.469  -8.594  1.00  0.00     0.122 C 
ENDBRANCH  55  56
ENDBRANCH  42  55
ENDBRANCH  35  36
ENDBRANCH   1  35
TORSDOF 17
ENDMDL
MODEL 4
REMARK VINA RESULT: -6.635034304      2.616      7.027
REMARK  17 active torsions:
REMARK  status: ('A' for Active; 'I' for Inactive)
REMARK    1  A    between atoms: N1_1  and  C1_5 
REMARK    2  A    between atoms: C1_5  and  N2_6 
REMARK    3  A    between atoms: C1_5  and  C2_10 
REMARK    4  A    between atoms: C3_13  and  C4_14 
REMARK    5  A    between atoms: C4_14  and  N4_15 
REMARK       I    between atoms: N4_15  and  C5_17 
REMARK    6  A    between atoms: C5_17  and  C6_19 
REMARK    7  A    between atoms: C6_19  and  N5_20 
REMARK    8  A    between atoms: C8_27  and  N8_28 
REMARK    9  A    between atoms: N8_28  and  C9_30 
REMARK   10  A    between atoms: C9_30  and  O3_31 
REMARK   11  A    between atoms: C9_30  and  C10_33 
REMARK   12  A    between atoms: C10_33  and  C11_34 
REMARK   13  A    between atoms: C11_34  and  O4_35 
REMARK   14  A    between atoms: N10_38  and  O5_39 
REMARK   15  A    between atoms: C15_49  and  C16_50 
REMARK   16  A    between atoms: C16_50  and  N12_51 
REMARK   17  A    between atoms: C22_61  and  O10_62 
ROOT
HETATM    1  N4  UNL     1      19.365 -11.762  -8.508  1.00  0.00    -0.354 N 
ATOM      2  H4  UNL     1      19.123 -11.899  -7.527  1.00  0.00     0.162 HD
HETATM    3  C5  UNL     1      20.499 -10.935  -8.868  1.00  0.00     0.237 C 
HETATM    4  O1  UNL     1      20.774 -10.781 -10.075  1.00  0.00    -0.272 OA
ENDROOT
BRANCH   3   5
HETATM    5  C6  UNL     1      21.317 -10.286  -7.831  1.00  0.00     0.255 C 
BRANCH   5   6
HETATM    6  N5  UNL     1      21.961 -11.313  -7.000  1.00  0.00    -0.242 N 
HETATM    7  N6  UNL     1      23.123 -11.790  -7.339  1.00  0.00    -0.246 N 
HETATM    8  C7  UNL     1      23.702 -12.740  -6.558  1.00  0.00     0.340 A 
ATOM      9  H6  UNL     1      23.593 -11.455  -8.180  1.00  0.00     0.192 HD
HETATM   10  O2  UNL     1      24.821 -13.181  -6.907  1.00  0.00    -0.245 OA
HETATM   11  N7  UNL     1      23.079 -13.174  -5.460  1.00  0.00    -0.289 N 
HETATM   12  C8  UNL     1      21.893 -12.730  -5.059  1.00  0.00     0.182 A 
ATOM     13  H7  UNL     1      23.541 -13.888  -4.897  1.00  0.00     0.172 HD
HETATM   14  C14 UNL     1      21.339 -11.745  -5.906  1.00  0.00     0.306 A 
HETATM   15  O8  UNL     1      20.218 -11.295  -5.567  1.00  0.00    -0.262 OA
BRANCH  12  16
HETATM   16  N8  UNL     1      21.249 -13.187  -3.922  1.00  0.00    -0.320 N 
ATOM     17  H8  UNL     1      21.278 -12.501  -3.168  1.00  0.00     0.169 HD
BRANCH  16  18
HETATM   18  C9  UNL     1      20.579 -14.331  -3.550  1.00  0.00     0.156 C 
BRANCH  18  19
HETATM   19  O3  UNL     1      20.344 -14.349  -2.223  1.00  0.00    -0.347 OA
ATOM     20  H3  UNL     1      20.016 -15.195  -1.943  1.00  0.00     0.219 HD
ENDBRANCH  18  19
BRANCH  18  21
HETATM   21  C10 UNL     1      20.073 -15.509  -4.254  1.00  0.00     0.218 C 
HETATM   22  N9  UNL     1      21.171 -15.960  -5.197  1.00  0.00    -0.076 NA
HETATM   23  N10 UNL     1      22.272 -16.341  -4.472  1.00  0.00    -0.111 N 
HETATM   24  C12 UNL     1      22.199 -16.887  -3.176  1.00  0.00     0.365 C 
HETATM   25  O6  UNL     1      23.260 -17.236  -2.539  1.00  0.00    -0.243 OA
HETATM   26  N11 UNL     1      20.940 -17.064  -2.546  1.00  0.00    -0.274 N 
HETATM   27  C13 UNL     1      19.818 -16.634  -3.362  1.00  0.00     0.262 C 
ATOM     28  H11 UNL     1      20.833 -17.454  -1.609  1.00  0.00     0.173 HD
HETATM   29  O7  UNL     1      18.725 -17.204  -3.295  1.00  0.00    -0.270 OA
BRANCH  21  30
HETATM   30  C11 UNL     1      18.920 -15.257  -5.164  1.00  0.00     0.211 C 
BRANCH  30  31
HETATM   31  O4  UNL     1      18.840 -13.861  -5.396  1.00  0.00    -0.398 OA
ATOM     32  H4  UNL     1      19.239 -13.679  -6.238  1.00  0.00     0.209 HD
ENDBRANCH  30  31
ENDBRANCH  21  30
BRANCH  23  33
HETATM   33  O5  UNL     1      23.526 -16.183  -5.038  1.00  0.00    -0.267 OA
ATOM     34  H5  UNL     1      24.115 -15.537  -4.666  1.00  0.00     0.246 HD
ENDBRANCH  23  33
ENDBRANCH  18  21
ENDBRANCH  16  18
ENDBRANCH  12  16
ENDBRANCH   5   6
ENDBRANCH   3   5
BRANCH   1  35
HETATM   35  C4  UNL     1      18.584 -12.385  -9.533  1.00  0.00     0.180 C 
BRANCH  35  36
HETATM   36  C3  UNL     1      17.495 -13.247  -9.112  1.00  0.00     0.042 A 
HETATM   37  N3  UNL     1      16.915 -13.129  -7.915  1.00  0.00    -0.355 N 
HETATM   38  C2  UNL     1      15.892 -13.909  -7.472  1.00  0.00     0.105 A 
ATOM     39  H3  UNL     1      17.263 -12.403  -7.288  1.00  0.00     0.166 HD
HETATM   40  C22 UNL     1      15.431 -14.879  -8.312  1.00  0.00     0.143 A 
HETATM   41  C21 UNL     1      16.023 -15.030  -9.589  1.00  0.00     0.220 A 
HETATM   42  C15 UNL     1      17.049 -14.238 -10.018  1.00  0.00     0.051 A 
HETATM   43  O9  UNL     1      15.509 -15.951 -10.271  1.00  0.00    -0.284 OA
BRANCH  38  44
HETATM   44  C1  UNL     1      15.329 -13.603  -6.136  1.00  0.00     0.430 C 
BRANCH  44  45
HETATM   45  N1  UNL     1      14.135 -12.807  -6.301  1.00  0.00    -0.045 N 
ATOM     46  H13 UNL     1      13.276 -13.354  -6.255  1.00  0.00     0.277 HD
ATOM     47  H12 UNL     1      13.942 -12.199  -5.505  1.00  0.00     0.277 HD
ATOM     48  H11 UNL     1      14.246 -12.301  -7.179  1.00  0.00     0.277 HD
ENDBRANCH  44  45
BRANCH  44  49
HETATM   49  N2  UNL     1      16.252 -12.802  -5.359  1.00  0.00    -0.045 N 
ATOM     50  H23 UNL     1      17.003 -13.347  -4.935  1.00  0.00     0.277 HD
ATOM     51  H22 UNL     1      16.841 -12.196  -5.930  1.00  0.00     0.277 HD
ATOM     52  H21 UNL     1      15.688 -12.292  -4.678  1.00  0.00     0.277 HD
ENDBRANCH  44  49
ENDBRANCH  38  44
BRANCH  40  53
HETATM   53  O10 UNL     1      14.408 -15.720  -7.947  1.00  0.00    -0.355 OA
ATOM     54  H10 UNL     1      13.628 -15.816  -8.482  1.00  0.00     0.218 HD
ENDBRANCH  40  53
BRANCH  42  55
HETATM   55  C16 UNL     1      17.685 -14.296 -11.314  1.00  0.00     0.077 C 
BRANCH  55  56
HETATM   56  N12 UNL     1      18.525 -15.425 -11.609  1.00  0.00    -0.288 NA
HETATM   57  C17 UNL     1      18.457 -15.664 -13.049  1.00  0.00     0.122 C 
HETATM   58  C18 UNL     1      19.646 -16.358 -13.614  1.00  0.00     0.247 C 
HETATM   59  N13 UNL     1      20.764 -15.415 -13.683  1.00  0.00    -0.073 N 
HETATM   60  C19 UNL     1      20.486 -14.437 -12.648  1.00  0.00     0.247 C 
ATOM     61 2H13 UNL     1      21.681 -15.853 -13.605  1.00  0.00     0.277 HD
ATOM     62 1H13 UNL     1      20.908 -15.010 -14.608  1.00  0.00     0.277 HD
HETATM   63  C20 UNL     1      19.948 -15.069 -11.388  1.00  0.00     0.122 C 
ENDBRANCH  55  56
ENDBRANCH  42  55
ENDBRANCH  35  36
ENDBRANCH   1  35
TORSDOF 17
ENDMDL
MODEL 5
REMARK VINA RESULT: -6.485331220      2.269      6.957
REMARK  17 active torsions:
REMARK  status: ('A' for Active; 'I' for Inactive)
REMARK    1  A    between atoms: N1_1  and  C1_5 
REMARK    2  A    between atoms: C1_5  and  N2_6 
REMARK    3  A    between atoms: C1_5  and  C2_10 
REMARK    4  A    between atoms: C3_13  and  C4_14 
REMARK    5  A    between atoms: C4_14  and  N4_15 
REMARK       I    between atoms: N4_15  and  C5_17 
REMARK    6  A    between atoms: C5_17  and  C6_19 
REMARK    7  A    between atoms: C6_19  and  N5_20 
REMARK    8  A    between atoms: C8_27  and  N8_28 
REMARK    9  A    between atoms: N8_28  and  C9_30 
REMARK   10  A    between atoms: C9_30  and  O3_31 
REMARK   11  A    between atoms: C9_30  and  C10_33 
REMARK   12  A    between atoms: C10_33  and  C11_34 
REMARK   13  A    between atoms: C11_34  and  O4_35 
REMARK   14  A    between atoms: N10_38  and  O5_39 
REMARK   15  A    between atoms: C15_49  and  C16_50 
REMARK   16  A    between atoms: C16_50  and  N12_51 
REMARK   17  A    between atoms: C22_61  and  O10_62 
ROOT
HETATM    1  N4  UNL     1      17.866 -12.020  -7.326  1.00  0.00    -0.354 N 
ATOM      2  H4  UNL     1      17.288 -12.097  -8.163  1.00  0.00     0.162 HD
HETATM    3  C5  UNL     1      19.129 -11.310  -7.379  1.00  0.00     0.237 C 
HETATM    4  O1  UNL     1      19.819 -11.230  -6.343  1.00  0.00    -0.272 OA
ENDROOT
BRANCH   3   5
HETATM    5  C6  UNL     1      19.593 -10.692  -8.631  1.00  0.00     0.255 C 
BRANCH   5   6
HETATM    6  N5  UNL     1      20.952 -10.165  -8.444  1.00  0.00    -0.242 N 
HETATM    7  N6  UNL     1      21.128  -8.915  -8.133  1.00  0.00    -0.246 N 
HETATM    8  C7  UNL     1      22.392  -8.446  -7.965  1.00  0.00     0.340 A 
ATOM      9  H6  UNL     1      20.327  -8.294  -8.016  1.00  0.00     0.192 HD
HETATM   10  O2  UNL     1      22.533  -7.238  -7.665  1.00  0.00    -0.245 OA
HETATM   11  N7  UNL     1      23.436  -9.265  -8.120  1.00  0.00    -0.289 N 
HETATM   12  C8  UNL     1      23.326 -10.550  -8.438  1.00  0.00     0.182 A 
ATOM     13  H7  UNL     1      24.371  -8.881  -7.987  1.00  0.00     0.172 HD
HETATM   14  C14 UNL     1      21.990 -10.982  -8.599  1.00  0.00     0.306 A 
HETATM   15  O8  UNL     1      21.836 -12.191  -8.900  1.00  0.00    -0.262 OA
BRANCH  12  16
HETATM   16  N8  UNL     1      24.410 -11.394  -8.603  1.00  0.00    -0.320 N 
ATOM     17  H8  UNL     1      24.661 -11.501  -9.586  1.00  0.00     0.169 HD
BRANCH  16  18
HETATM   18  C9  UNL     1      25.236 -12.125  -7.779  1.00  0.00     0.156 C 
BRANCH  18  19
HETATM   19  O3  UNL     1      25.976 -13.002  -8.485  1.00  0.00    -0.347 OA
ATOM     20  H3  UNL     1      25.930 -13.874  -8.109  1.00  0.00     0.219 HD
ENDBRANCH  18  19
BRANCH  18  21
HETATM   21  C10 UNL     1      25.488 -12.165  -6.339  1.00  0.00     0.218 C 
HETATM   22  N9  UNL     1      24.134 -12.142  -5.658  1.00  0.00    -0.076 NA
HETATM   23  N10 UNL     1      23.429 -13.270  -5.995  1.00  0.00    -0.111 N 
HETATM   24  C12 UNL     1      24.035 -14.505  -6.297  1.00  0.00     0.365 C 
HETATM   25  O6  UNL     1      23.331 -15.536  -6.602  1.00  0.00    -0.243 OA
HETATM   26  N11 UNL     1      25.448 -14.632  -6.270  1.00  0.00    -0.274 N 
HETATM   27  C13 UNL     1      26.133 -13.402  -5.913  1.00  0.00     0.262 C 
ATOM     28  H11 UNL     1      25.936 -15.503  -6.480  1.00  0.00     0.173 HD
HETATM   29  O7  UNL     1      27.194 -13.423  -5.281  1.00  0.00    -0.270 OA
BRANCH  21  30
HETATM   30  C11 UNL     1      26.174 -10.966  -5.781  1.00  0.00     0.211 C 
BRANCH  30  31
HETATM   31  O4  UNL     1      25.258  -9.885  -5.805  1.00  0.00    -0.398 OA
ATOM     32  H4  UNL     1      25.619  -9.205  -6.360  1.00  0.00     0.209 HD
ENDBRANCH  30  31
ENDBRANCH  21  30
BRANCH  23  33
HETATM   33  O5  UNL     1      22.047 -13.199  -6.044  1.00  0.00    -0.267 OA
ATOM     34  H5  UNL     1      21.576 -13.844  -6.559  1.00  0.00     0.246 HD
ENDBRANCH  23  33
ENDBRANCH  18  21
ENDBRANCH  16  18
ENDBRANCH  12  16
ENDBRANCH   5   6
ENDBRANCH   3   5
BRANCH   1  35
HETATM   35  C4  UNL     1      17.432 -12.612  -6.098  1.00  0.00     0.180 C 
BRANCH  35  36
HETATM   36  C3  UNL     1      18.100 -13.825  -5.668  1.00  0.00     0.042 A 
HETATM   37  N3  UNL     1      19.068 -13.818  -4.747  1.00  0.00    -0.355 N 
HETATM   38  C2  UNL     1      19.725 -14.926  -4.308  1.00  0.00     0.105 A 
ATOM     39  H3  UNL     1      19.332 -12.919  -4.344  1.00  0.00     0.166 HD
HETATM   40  C22 UNL     1      19.370 -16.124  -4.851  1.00  0.00     0.143 A 
HETATM   41  C21 UNL     1      18.348 -16.167  -5.829  1.00  0.00     0.220 A 
HETATM   42  C15 UNL     1      17.698 -15.047  -6.258  1.00  0.00     0.051 A 
HETATM   43  O9  UNL     1      18.106 -17.327  -6.247  1.00  0.00    -0.284 OA
BRANCH  38  44
HETATM   44  C1  UNL     1      20.734 -14.741  -3.238  1.00  0.00     0.430 C 
BRANCH  44  45
HETATM   45  N1  UNL     1      21.020 -13.332  -3.102  1.00  0.00    -0.045 N 
ATOM     46  H13 UNL     1      21.369 -13.077  -2.179  1.00  0.00     0.277 HD
ATOM     47  H12 UNL     1      21.838 -13.032  -3.634  1.00  0.00     0.277 HD
ATOM     48  H11 UNL     1      20.166 -12.838  -3.362  1.00  0.00     0.277 HD
ENDBRANCH  44  45
BRANCH  44  49
HETATM   49  N2  UNL     1      21.984 -15.381  -3.590  1.00  0.00    -0.045 N 
ATOM     50  H23 UNL     1      22.184 -15.355  -4.590  1.00  0.00     0.277 HD
ATOM     51  H22 UNL     1      22.805 -14.860  -3.283  1.00  0.00     0.277 HD
ATOM     52  H21 UNL     1      21.940 -16.327  -3.211  1.00  0.00     0.277 HD
ENDBRANCH  44  49
ENDBRANCH  38  44
BRANCH  40  53
HETATM   53  O10 UNL     1      19.985 -17.294  -4.476  1.00  0.00    -0.355 OA
ATOM     54  H10 UNL     1      19.583 -18.140  -4.634  1.00  0.00     0.218 HD
ENDBRANCH  40  53
BRANCH  42  55
HETATM   55  C16 UNL     1      16.620 -15.003  -7.220  1.00  0.00     0.077 C 
BRANCH  55  56
HETATM   56  N12 UNL     1      16.957 -14.973  -8.617  1.00  0.00    -0.288 NA
HETATM   57  C17 UNL     1      16.647 -16.287  -9.176  1.00  0.00     0.122 C 
HETATM   58  C18 UNL     1      16.369 -16.284 -10.638  1.00  0.00     0.247 C 
HETATM   59  N13 UNL     1      15.039 -15.717 -10.872  1.00  0.00    -0.073 N 
HETATM   60  C19 UNL     1      14.804 -14.847  -9.735  1.00  0.00     0.247 C 
ATOM     61 2H13 UNL     1      14.938 -15.255 -11.776  1.00  0.00     0.277 HD
ATOM     62 1H13 UNL     1      14.311 -16.415 -11.017  1.00  0.00     0.277 HD
HETATM   63  C20 UNL     1      16.034 -14.066  -9.342  1.00  0.00     0.122 C 
ENDBRANCH  55  56
ENDBRANCH  42  55
ENDBRANCH  35  36
ENDBRANCH   1  35
TORSDOF 17
ENDMDL
