MODEL 1
REMARK VINA RESULT: -7.703715617      0.000      0.000
REMARK  15 active torsions:
REMARK  status: ('A' for Active; 'I' for Inactive)
REMARK    1  A    between atoms: N1_1  and  C1_4 
REMARK    2  A    between atoms: N5_14  and  C4_15 
REMARK    3  A    between atoms: C4_15  and  C5_16 
REMARK    4  A    between atoms: C5_16  and  C6_17 
REMARK    5  A    between atoms: C6_17  and  N6_18 
REMARK       I    between atoms: N6_18  and  C7_20 
REMARK    6  A    between atoms: C7_20  and  C8_22 
REMARK    7  A    between atoms: C8_22  and  C9_23 
REMARK    8  A    between atoms: C11_28  and  N8_29 
REMARK    9  A    between atoms: N9_31  and  N10_33 
REMARK   10  A    between atoms: C12_36  and  O3_37 
REMARK   11  A    between atoms: O3_37  and  C13_38 
REMARK   12  A    between atoms: C15_40  and  O4_41 
REMARK   13  A    between atoms: C16_43  and  N11_44 
REMARK   14  A    between atoms: C22_54  and  O7_55 
REMARK   15  A    between atoms: C23_57  and  O8_58 
ROOT
HETATM    1  C9  UNL     1      26.158 -11.640  -8.533  1.00  0.00     0.225 C 
HETATM    2  N7  UNL     1      26.617 -10.333  -8.861  1.00  0.00    -0.066 N 
ATOM      3  H71 UNL     1      26.524 -10.150  -9.860  1.00  0.00     0.277 HD
ATOM      4  H72 UNL     1      27.631 -10.267  -8.779  1.00  0.00     0.277 HD
HETATM    5  C10 UNL     1      25.977  -9.334  -8.097  1.00  0.00     0.262 C 
HETATM    6  C11 UNL     1      24.463  -9.407  -8.182  1.00  0.00     0.158 C 
HETATM    7  C12 UNL     1      24.050 -10.422  -9.234  1.00  0.00     0.178 C 
HETATM    8  C23 UNL     1      24.692 -11.743  -8.880  1.00  0.00     0.180 C 
ENDROOT
BRANCH   1   9
HETATM    9  C8  UNL     1      26.330 -11.903  -7.076  1.00  0.00     0.138 C 
BRANCH   9  10
HETATM   10  C7  UNL     1      26.199 -13.337  -6.703  1.00  0.00     0.219 C 
HETATM   11  N6  UNL     1      26.245 -14.383  -7.641  1.00  0.00    -0.361 N 
ATOM     12  H6  UNL     1      26.376 -14.136  -8.622  1.00  0.00     0.162 HD
HETATM   13  O2  UNL     1      26.039 -13.630  -5.502  1.00  0.00    -0.274 OA
BRANCH  11  14
HETATM   14  C6  UNL     1      26.121 -15.767  -7.317  1.00  0.00     0.124 C 
BRANCH  14  15
HETATM   15  C5  UNL     1      24.741 -16.319  -7.385  1.00  0.00     0.041 C 
BRANCH  15  16
HETATM   16  C4  UNL     1      24.182 -16.715  -6.036  1.00  0.00     0.154 C 
BRANCH  16  17
HETATM   17  N5  UNL     1      23.212 -15.772  -5.528  1.00  0.00    -0.260 N 
HETATM   18  N4  UNL     1      23.063 -14.519  -5.940  1.00  0.00    -0.238 N 
HETATM   19  N3  UNL     1      22.108 -13.916  -5.293  1.00  0.00    -0.278 N 
ATOM     20  H4  UNL     1      23.626 -14.083  -6.670  1.00  0.00     0.208 HD
HETATM   21  C3  UNL     1      21.592 -14.772  -4.424  1.00  0.00     0.164 A 
ATOM     22  H3  UNL     1      21.807 -12.951  -5.433  1.00  0.00     0.189 HD
HETATM   23  C2  UNL     1      20.566 -14.696  -3.478  1.00  0.00     0.291 A 
HETATM   24  C24 UNL     1      22.290 -15.959  -4.566  1.00  0.00     0.172 A 
HETATM   25  N2  UNL     1      20.284 -15.776  -2.733  1.00  0.00    -0.154 N 
HETATM   26  O1  UNL     1      19.951 -13.605  -3.373  1.00  0.00    -0.265 OA
HETATM   27  C1  UNL     1      20.997 -16.911  -2.912  1.00  0.00     0.680 A 
ATOM     28  H2  UNL     1      19.539 -15.741  -2.038  1.00  0.00     0.187 HD
HETATM   29  N13 UNL     1      21.978 -17.009  -3.804  1.00  0.00    -0.173 N 
ATOM     30  H13 UNL     1      22.489 -17.886  -3.906  1.00  0.00     0.186 HD
BRANCH  27  31
HETATM   31  N1  UNL     1      20.699 -17.919  -2.180  1.00  0.00    -0.234 N 
ATOM     32  H12 UNL     1      19.738 -18.048  -1.862  1.00  0.00     0.174 HD
ATOM     33  H11 UNL     1      21.450 -18.566  -1.940  1.00  0.00     0.174 HD
ENDBRANCH  27  31
ENDBRANCH  16  17
ENDBRANCH  15  16
ENDBRANCH  14  15
ENDBRANCH  11  14
ENDBRANCH   9  10
ENDBRANCH   1   9
BRANCH   8  34
HETATM   34  O8  UNL     1      24.494 -12.685  -9.892  1.00  0.00    -0.391 OA
ATOM     35  H8  UNL     1      23.806 -13.293  -9.649  1.00  0.00     0.210 HD
ENDBRANCH   8  34
BRANCH   7  36
HETATM   36  O3  UNL     1      22.696 -10.629  -9.288  1.00  0.00    -0.373 OA
BRANCH  36  37
HETATM   37  C13 UNL     1      22.208 -11.483  -8.321  1.00  0.00     0.153 C 
HETATM   38  C14 UNL     1      21.480 -10.723  -7.203  1.00  0.00     0.068 C 
HETATM   39  C15 UNL     1      20.505 -11.721  -6.558  1.00  0.00     0.144 C 
HETATM   40  C16 UNL     1      19.371 -11.816  -7.580  1.00  0.00     0.125 C 
HETATM   41  C21 UNL     1      19.903 -12.427  -8.813  1.00  0.00     0.062 C 
HETATM   42  C22 UNL     1      21.388 -12.551  -8.928  1.00  0.00     0.149 C 
BRANCH  39  43
HETATM   43  O4  UNL     1      20.060 -11.267  -5.340  1.00  0.00    -0.393 OA
ATOM     44  H4  UNL     1      19.131 -11.071  -5.363  1.00  0.00     0.210 HD
ENDBRANCH  39  43
BRANCH  40  45
HETATM   45  N11 UNL     1      18.168 -12.367  -7.041  1.00  0.00    -0.302 N 
HETATM   46  C17 UNL     1      18.157 -13.530  -6.360  1.00  0.00     0.102 A 
HETATM   47  C18 UNL     1      17.036 -14.110  -5.818  1.00  0.00     0.092 A 
HETATM   48  C19 UNL     1      15.815 -13.467  -5.975  1.00  0.00     0.250 A 
HETATM   49  O5  UNL     1      14.762 -13.965  -5.495  1.00  0.00    -0.268 OA
HETATM   50  N12 UNL     1      15.825 -12.308  -6.655  1.00  0.00    -0.275 N 
HETATM   51  C20 UNL     1      16.955 -11.773  -7.171  1.00  0.00     0.329 A 
ATOM     52  H12 UNL     1      14.944 -11.811  -6.787  1.00  0.00     0.173 HD
HETATM   53  O6  UNL     1      16.833 -10.702  -7.776  1.00  0.00    -0.246 OA
ENDBRANCH  40  45
BRANCH  42  54
HETATM   54  O7  UNL     1      21.839 -13.830  -8.511  1.00  0.00    -0.393 OA
ATOM     55  H7  UNL     1      22.704 -14.011  -8.858  1.00  0.00     0.210 HD
ENDBRANCH  42  54
ENDBRANCH  36  37
ENDBRANCH   7  36
BRANCH   6  56
HETATM   56  N8  UNL     1      24.001  -8.073  -8.470  1.00  0.00    -0.314 N 
HETATM   57  N9  UNL     1      22.812  -7.706  -8.527  1.00  0.00    -0.253 N 
ATOM     58  H9  UNL     1      22.064  -8.380  -8.363  1.00  0.00     0.207 HD
ATOM     59  H8  UNL     1      24.713  -7.363  -8.641  1.00  0.00     0.182 HD
BRANCH  57  60
HETATM   60  N10 UNL     1      22.500  -6.382  -8.815  1.00  0.00    -0.331 N 
ATOM     61 2H10 UNL     1      23.131  -5.647  -8.497  1.00  0.00     0.178 HD
ATOM     62 1H10 UNL     1      21.654  -6.155  -9.337  1.00  0.00     0.178 HD
ENDBRANCH  57  60
ENDBRANCH   6  56
TORSDOF 15
ENDMDL
MODEL 2
REMARK VINA RESULT: -7.535090496      2.235      6.535
REMARK  15 active torsions:
REMARK  status: ('A' for Active; 'I' for Inactive)
REMARK    1  A    between atoms: N1_1  and  C1_4 
REMARK    2  A    between atoms: N5_14  and  C4_15 
REMARK    3  A    between atoms: C4_15  and  C5_16 
REMARK    4  A    between atoms: C5_16  and  C6_17 
REMARK    5  A    between atoms: C6_17  and  N6_18 
REMARK       I    between atoms: N6_18  and  C7_20 
REMARK    6  A    between atoms: C7_20  and  C8_22 
REMARK    7  A    between atoms: C8_22  and  C9_23 
REMARK    8  A    between atoms: C11_28  and  N8_29 
REMARK    9  A    between atoms: N9_31  and  N10_33 
REMARK   10  A    between atoms: C12_36  and  O3_37 
REMARK   11  A    between atoms: O3_37  and  C13_38 
REMARK   12  A    between atoms: C15_40  and  O4_41 
REMARK   13  A    between atoms: C16_43  and  N11_44 
REMARK   14  A    between atoms: C22_54  and  O7_55 
REMARK   15  A    between atoms: C23_57  and  O8_58 
ROOT
HETATM    1  C9  UNL     1      20.833  -9.428  -8.102  1.00  0.00     0.225 C 
HETATM    2  N7  UNL     1      21.285  -8.115  -8.414  1.00  0.00    -0.066 N 
ATOM      3  H71 UNL     1      21.455  -7.573  -7.567  1.00  0.00     0.277 HD
ATOM      4  H72 UNL     1      20.536  -7.553  -8.817  1.00  0.00     0.277 HD
HETATM    5  C10 UNL     1      22.421  -8.125  -9.251  1.00  0.00     0.262 C 
HETATM    6  C11 UNL     1      23.556  -8.964  -8.692  1.00  0.00     0.158 C 
HETATM    7  C12 UNL     1      23.228  -9.406  -7.276  1.00  0.00     0.178 C 
HETATM    8  C23 UNL     1      21.907 -10.139  -7.315  1.00  0.00     0.180 C 
ENDROOT
BRANCH   1   9
HETATM    9  C8  UNL     1      20.558 -10.196  -9.350  1.00  0.00     0.138 C 
BRANCH   9  10
HETATM   10  C7  UNL     1      19.623 -11.336  -9.162  1.00  0.00     0.219 C 
HETATM   11  N6  UNL     1      19.789 -12.580  -9.796  1.00  0.00    -0.361 N 
ATOM     12  H6  UNL     1      20.594 -12.696 -10.412  1.00  0.00     0.162 HD
HETATM   13  O2  UNL     1      18.641 -11.186  -8.408  1.00  0.00    -0.274 OA
BRANCH  11  14
HETATM   14  C6  UNL     1      18.910 -13.693  -9.639  1.00  0.00     0.124 C 
BRANCH  14  15
HETATM   15  C5  UNL     1      19.271 -14.645  -8.555  1.00  0.00     0.041 C 
BRANCH  15  16
HETATM   16  C4  UNL     1      18.395 -14.524  -7.328  1.00  0.00     0.154 C 
BRANCH  16  17
HETATM   17  N5  UNL     1      19.121 -14.084  -6.158  1.00  0.00    -0.260 N 
HETATM   18  N4  UNL     1      19.705 -12.900  -6.010  1.00  0.00    -0.238 N 
HETATM   19  N3  UNL     1      20.282 -12.795  -4.849  1.00  0.00    -0.278 N 
ATOM     20  H4  UNL     1      19.701 -12.166  -6.719  1.00  0.00     0.208 HD
HETATM   21  C3  UNL     1      20.089 -13.927  -4.187  1.00  0.00     0.164 A 
ATOM     22  H3  UNL     1      20.794 -11.982  -4.506  1.00  0.00     0.189 HD
HETATM   23  C2  UNL     1      20.464 -14.389  -2.923  1.00  0.00     0.291 A 
HETATM   24  C24 UNL     1      19.349 -14.754  -5.014  1.00  0.00     0.172 A 
HETATM   25  N2  UNL     1      20.098 -15.623  -2.544  1.00  0.00    -0.154 N 
HETATM   26  O1  UNL     1      21.134 -13.613  -2.195  1.00  0.00    -0.265 OA
HETATM   27  C1  UNL     1      19.376 -16.391  -3.391  1.00  0.00     0.680 A 
ATOM     28  H2  UNL     1      20.361 -15.978  -1.625  1.00  0.00     0.187 HD
HETATM   29  N13 UNL     1      19.006 -15.975  -4.598  1.00  0.00    -0.173 N 
ATOM     30  H13 UNL     1      18.461 -16.588  -5.204  1.00  0.00     0.186 HD
BRANCH  27  31
HETATM   31  N1  UNL     1      19.047 -17.562  -2.992  1.00  0.00    -0.234 N 
ATOM     32  H12 UNL     1      19.665 -18.076  -2.364  1.00  0.00     0.174 HD
ATOM     33  H11 UNL     1      18.161 -17.943  -3.327  1.00  0.00     0.174 HD
ENDBRANCH  27  31
ENDBRANCH  16  17
ENDBRANCH  15  16
ENDBRANCH  14  15
ENDBRANCH  11  14
ENDBRANCH   9  10
ENDBRANCH   1   9
BRANCH   8  34
HETATM   34  O8  UNL     1      21.457 -10.432  -6.026  1.00  0.00    -0.391 OA
ATOM     35  H8  UNL     1      21.839 -11.245  -5.717  1.00  0.00     0.210 HD
ENDBRANCH   8  34
BRANCH   7  36
HETATM   36  O3  UNL     1      24.155 -10.265  -6.746  1.00  0.00    -0.373 OA
BRANCH  36  37
HETATM   37  C13 UNL     1      24.113 -11.544  -7.262  1.00  0.00     0.153 C 
HETATM   38  C14 UNL     1      25.298 -11.820  -8.198  1.00  0.00     0.068 C 
HETATM   39  C15 UNL     1      25.493 -13.345  -8.219  1.00  0.00     0.144 C 
HETATM   40  C16 UNL     1      26.160 -13.634  -6.873  1.00  0.00     0.125 C 
HETATM   41  C21 UNL     1      25.203 -13.309  -5.798  1.00  0.00     0.062 C 
HETATM   42  C22 UNL     1      23.978 -12.543  -6.182  1.00  0.00     0.149 C 
BRANCH  39  43
HETATM   43  O4  UNL     1      26.282 -13.733  -9.275  1.00  0.00    -0.393 OA
ATOM     44  H4  UNL     1      26.599 -14.620  -9.162  1.00  0.00     0.210 HD
ENDBRANCH  39  43
BRANCH  40  45
HETATM   45  N11 UNL     1      26.797 -14.911  -6.820  1.00  0.00    -0.302 N 
HETATM   46  C17 UNL     1      26.093 -16.060  -6.797  1.00  0.00     0.102 A 
HETATM   47  C18 UNL     1      26.647 -17.317  -6.747  1.00  0.00     0.092 A 
HETATM   48  C19 UNL     1      28.031 -17.431  -6.714  1.00  0.00     0.250 A 
HETATM   49  O5  UNL     1      28.580 -18.564  -6.666  1.00  0.00    -0.268 OA
HETATM   50  N12 UNL     1      28.733 -16.286  -6.736  1.00  0.00    -0.275 N 
HETATM   51  C20 UNL     1      28.144 -15.069  -6.787  1.00  0.00     0.329 A 
ATOM     52  H12 UNL     1      29.752 -16.336  -6.714  1.00  0.00     0.173 HD
HETATM   53  O6  UNL     1      28.899 -14.091  -6.802  1.00  0.00    -0.246 OA
ENDBRANCH  40  45
BRANCH  42  54
HETATM   54  O7  UNL     1      22.879 -13.405  -6.428  1.00  0.00    -0.393 OA
ATOM     55  H7  UNL     1      23.180 -14.277  -6.653  1.00  0.00     0.210 HD
ENDBRANCH  42  54
ENDBRANCH  36  37
ENDBRANCH   7  36
BRANCH   6  56
HETATM   56  N8  UNL     1      24.746  -8.154  -8.771  1.00  0.00    -0.314 N 
HETATM   57  N9  UNL     1      25.792  -8.324  -8.116  1.00  0.00    -0.253 N 
ATOM     58  H9  UNL     1      25.856  -9.095  -7.452  1.00  0.00     0.207 HD
ATOM     59  H8  UNL     1      24.730  -7.370  -9.423  1.00  0.00     0.182 HD
BRANCH  57  60
HETATM   60  N10 UNL     1      26.873  -7.466  -8.289  1.00  0.00    -0.331 N 
ATOM     61 2H10 UNL     1      26.929  -6.909  -9.141  1.00  0.00     0.178 HD
ATOM     62 1H10 UNL     1      27.595  -7.398  -7.571  1.00  0.00     0.178 HD
ENDBRANCH  57  60
ENDBRANCH   6  56
TORSDOF 15
ENDMDL
MODEL 3
REMARK VINA RESULT: -7.512224811      3.210      7.612
REMARK  15 active torsions:
REMARK  status: ('A' for Active; 'I' for Inactive)
REMARK    1  A    between atoms: N1_1  and  C1_4 
REMARK    2  A    between atoms: N5_14  and  C4_15 
REMARK    3  A    between atoms: C4_15  and  C5_16 
REMARK    4  A    between atoms: C5_16  and  C6_17 
REMARK    5  A    between atoms: C6_17  and  N6_18 
REMARK       I    between atoms: N6_18  and  C7_20 
REMARK    6  A    between atoms: C7_20  and  C8_22 
REMARK    7  A    between atoms: C8_22  and  C9_23 
REMARK    8  A    between atoms: C11_28  and  N8_29 
REMARK    9  A    between atoms: N9_31  and  N10_33 
REMARK   10  A    between atoms: C12_36  and  O3_37 
REMARK   11  A    between atoms: O3_37  and  C13_38 
REMARK   12  A    between atoms: C15_40  and  O4_41 
REMARK   13  A    between atoms: C16_43  and  N11_44 
REMARK   14  A    between atoms: C22_54  and  O7_55 
REMARK   15  A    between atoms: C23_57  and  O8_58 
ROOT
HETATM    1  C9  UNL     1      15.739 -13.863 -10.783  1.00  0.00     0.225 C 
HETATM    2  N7  UNL     1      16.103 -14.134 -12.132  1.00  0.00    -0.066 N 
ATOM      3  H71 UNL     1      16.451 -13.295 -12.596  1.00  0.00     0.277 HD
ATOM      4  H72 UNL     1      15.280 -14.308 -12.708  1.00  0.00     0.277 HD
HETATM    5  C10 UNL     1      17.029 -15.194 -12.233  1.00  0.00     0.262 C 
HETATM    6  C11 UNL     1      18.265 -14.980 -11.377  1.00  0.00     0.158 C 
HETATM    7  C12 UNL     1      18.256 -13.577 -10.794  1.00  0.00     0.178 C 
HETATM    8  C23 UNL     1      16.964 -13.402 -10.031  1.00  0.00     0.180 C 
ENDROOT
BRANCH   1   9
HETATM    9  C8  UNL     1      15.203 -15.091 -10.130  1.00  0.00     0.138 C 
BRANCH   9  10
HETATM   10  C7  UNL     1      15.345 -15.096  -8.650  1.00  0.00     0.219 C 
HETATM   11  N6  UNL     1      15.086 -13.970  -7.847  1.00  0.00    -0.361 N 
ATOM     12  H6  UNL     1      14.786 -13.114  -8.314  1.00  0.00     0.162 HD
HETATM   13  O2  UNL     1      15.711 -16.146  -8.088  1.00  0.00    -0.274 OA
BRANCH  11  14
HETATM   14  C6  UNL     1      15.213 -13.941  -6.427  1.00  0.00     0.124 C 
BRANCH  14  15
HETATM   15  C5  UNL     1      16.339 -13.123  -5.902  1.00  0.00     0.041 C 
BRANCH  15  16
HETATM   16  C4  UNL     1      17.690 -13.539  -6.442  1.00  0.00     0.154 C 
BRANCH  16  17
HETATM   17  N5  UNL     1      18.251 -14.675  -5.746  1.00  0.00    -0.260 N 
HETATM   18  N4  UNL     1      17.959 -15.948  -5.985  1.00  0.00    -0.238 N 
HETATM   19  N3  UNL     1      18.622 -16.744  -5.197  1.00  0.00    -0.278 N 
ATOM     20  H4  UNL     1      17.299 -16.263  -6.696  1.00  0.00     0.208 HD
HETATM   21  C3  UNL     1      19.382 -16.003  -4.404  1.00  0.00     0.164 A 
ATOM     22  H3  UNL     1      18.566 -17.763  -5.190  1.00  0.00     0.189 HD
HETATM   23  C2  UNL     1      20.288 -16.291  -3.381  1.00  0.00     0.291 A 
HETATM   24  C24 UNL     1      19.152 -14.682  -4.748  1.00  0.00     0.172 A 
HETATM   25  N2  UNL     1      20.913 -15.280  -2.757  1.00  0.00    -0.154 N 
HETATM   26  O1  UNL     1      20.476 -17.501  -3.093  1.00  0.00    -0.265 OA
HETATM   27  C1  UNL     1      20.651 -14.007  -3.131  1.00  0.00     0.680 A 
ATOM     28  H2  UNL     1      21.578 -15.470  -2.008  1.00  0.00     0.187 HD
HETATM   29  N13 UNL     1      19.794 -13.706  -4.101  1.00  0.00    -0.173 N 
ATOM     30  H13 UNL     1      19.627 -12.731  -4.352  1.00  0.00     0.186 HD
BRANCH  27  31
HETATM   31  N1  UNL     1      21.266 -13.071  -2.511  1.00  0.00    -0.234 N 
ATOM     32  H12 UNL     1      21.326 -13.091  -1.493  1.00  0.00     0.174 HD
ATOM     33  H11 UNL     1      21.679 -12.326  -3.073  1.00  0.00     0.174 HD
ENDBRANCH  27  31
ENDBRANCH  16  17
ENDBRANCH  15  16
ENDBRANCH  14  15
ENDBRANCH  11  14
ENDBRANCH   9  10
ENDBRANCH   1   9
BRANCH   8  34
HETATM   34  O8  UNL     1      16.808 -12.081  -9.605  1.00  0.00    -0.391 OA
ATOM     35  H8  UNL     1      17.456 -11.865  -8.945  1.00  0.00     0.210 HD
ENDBRANCH   8  34
BRANCH   7  36
HETATM   36  O3  UNL     1      19.282 -13.348  -9.915  1.00  0.00    -0.373 OA
BRANCH  36  37
HETATM   37  C13 UNL     1      19.885 -12.113 -10.048  1.00  0.00     0.153 C 
HETATM   38  C14 UNL     1      19.938 -11.359  -8.712  1.00  0.00     0.068 C 
HETATM   39  C15 UNL     1      21.096 -10.353  -8.823  1.00  0.00     0.144 C 
HETATM   40  C16 UNL     1      22.340 -11.230  -8.668  1.00  0.00     0.125 C 
HETATM   41  C21 UNL     1      22.414 -12.145  -9.823  1.00  0.00     0.062 C 
HETATM   42  C22 UNL     1      21.206 -12.240 -10.698  1.00  0.00     0.149 C 
BRANCH  39  43
HETATM   43  O4  UNL     1      21.021  -9.394  -7.842  1.00  0.00    -0.393 OA
ATOM     44  H4  UNL     1      20.419  -8.701  -8.082  1.00  0.00     0.210 HD
ENDBRANCH  39  43
BRANCH  40  45
HETATM   45  N11 UNL     1      23.518 -10.491  -8.340  1.00  0.00    -0.302 N 
HETATM   46  C17 UNL     1      24.058  -9.595  -9.190  1.00  0.00     0.102 A 
HETATM   47  C18 UNL     1      25.185  -8.853  -8.933  1.00  0.00     0.092 A 
HETATM   48  C19 UNL     1      25.831  -9.027  -7.715  1.00  0.00     0.250 A 
HETATM   49  O5  UNL     1      26.869  -8.368  -7.440  1.00  0.00    -0.268 OA
HETATM   50  N12 UNL     1      25.292  -9.920  -6.868  1.00  0.00    -0.275 N 
HETATM   51  C20 UNL     1      24.179 -10.629  -7.163  1.00  0.00     0.329 A 
ATOM     52  H12 UNL     1      25.742 -10.071  -5.965  1.00  0.00     0.173 HD
HETATM   53  O6  UNL     1      23.782 -11.420  -6.301  1.00  0.00    -0.246 OA
ENDBRANCH  40  45
BRANCH  42  54
HETATM   54  O7  UNL     1      21.301 -11.373 -11.816  1.00  0.00    -0.393 OA
ATOM     55  H7  UNL     1      22.094 -10.852 -11.771  1.00  0.00     0.210 HD
ENDBRANCH  42  54
ENDBRANCH  36  37
ENDBRANCH   7  36
BRANCH   6  56
HETATM   56  N8  UNL     1      19.403 -15.235 -12.224  1.00  0.00    -0.314 N 
HETATM   57  N9  UNL     1      20.065 -14.377 -12.837  1.00  0.00    -0.253 N 
ATOM     58  H9  UNL     1      19.814 -13.392 -12.763  1.00  0.00     0.207 HD
ATOM     59  H8  UNL     1      19.693 -16.207 -12.330  1.00  0.00     0.182 HD
BRANCH  57  60
HETATM   60  N10 UNL     1      21.147 -14.759 -13.624  1.00  0.00    -0.331 N 
ATOM     61 2H10 UNL     1      21.171 -14.469 -14.602  1.00  0.00     0.178 HD
ATOM     62 1H10 UNL     1      21.900 -15.319 -13.226  1.00  0.00     0.178 HD
ENDBRANCH  57  60
ENDBRANCH   6  56
TORSDOF 15
ENDMDL
MODEL 4
REMARK VINA RESULT: -7.512044644      1.082      1.586
REMARK  15 active torsions:
REMARK  status: ('A' for Active; 'I' for Inactive)
REMARK    1  A    between atoms: N1_1  and  C1_4 
REMARK    2  A    between atoms: N5_14  and  C4_15 
REMARK    3  A    between atoms: C4_15  and  C5_16 
REMARK    4  A    between atoms: C5_16  and  C6_17 
REMARK    5  A    between atoms: C6_17  and  N6_18 
REMARK       I    between atoms: N6_18  and  C7_20 
REMARK    6  A    between atoms: C7_20  and  C8_22 
REMARK    7  A    between atoms: C8_22  and  C9_23 
REMARK    8  A    between atoms: C11_28  and  N8_29 
REMARK    9  A    between atoms: N9_31  and  N10_33 
REMARK   10  A    between atoms: C12_36  and  O3_37 
REMARK   11  A    between atoms: O3_37  and  C13_38 
REMARK   12  A    between atoms: C15_40  and  O4_41 
REMARK   13  A    between atoms: C16_43  and  N11_44 
REMARK   14  A    between atoms: C22_54  and  O7_55 
REMARK   15  A    between atoms: C23_57  and  O8_58 
ROOT
HETATM    1  C9  UNL     1      26.219 -11.596  -8.347  1.00  0.00     0.225 C 
HETATM    2  N7  UNL     1      26.673 -10.299  -8.717  1.00  0.00    -0.066 N 
ATOM      3  H71 UNL     1      26.611 -10.160  -9.725  1.00  0.00     0.277 HD
ATOM      4  H72 UNL     1      27.683 -10.215  -8.604  1.00  0.00     0.277 HD
HETATM    5  C10 UNL     1      25.996  -9.277  -8.018  1.00  0.00     0.262 C 
HETATM    6  C11 UNL     1      24.487  -9.374  -8.150  1.00  0.00     0.158 C 
HETATM    7  C12 UNL     1      24.121 -10.439  -9.170  1.00  0.00     0.178 C 
HETATM    8  C23 UNL     1      24.767 -11.734  -8.737  1.00  0.00     0.180 C 
ENDROOT
BRANCH   1   9
HETATM    9  C8  UNL     1      26.346 -11.794  -6.875  1.00  0.00     0.138 C 
BRANCH   9  10
HETATM   10  C7  UNL     1      25.338 -12.726  -6.304  1.00  0.00     0.219 C 
HETATM   11  N6  UNL     1      25.215 -14.068  -6.706  1.00  0.00    -0.361 N 
ATOM     12  H6  UNL     1      25.853 -14.409  -7.425  1.00  0.00     0.162 HD
HETATM   13  O2  UNL     1      24.561 -12.301  -5.426  1.00  0.00    -0.274 OA
BRANCH  11  14
HETATM   14  C6  UNL     1      24.259 -14.986  -6.180  1.00  0.00     0.124 C 
BRANCH  14  15
HETATM   15  C5  UNL     1      24.769 -16.357  -5.911  1.00  0.00     0.041 C 
BRANCH  15  16
HETATM   16  C4  UNL     1      24.304 -16.926  -4.588  1.00  0.00     0.154 C 
BRANCH  16  17
HETATM   17  N5  UNL     1      22.882 -17.178  -4.551  1.00  0.00    -0.260 N 
HETATM   18  N4  UNL     1      22.283 -18.294  -4.951  1.00  0.00    -0.238 N 
HETATM   19  N3  UNL     1      20.993 -18.224  -4.796  1.00  0.00    -0.278 N 
ATOM     20  H4  UNL     1      22.773 -19.104  -5.331  1.00  0.00     0.208 HD
HETATM   21  C3  UNL     1      20.702 -17.039  -4.280  1.00  0.00     0.164 A 
ATOM     22  H3  UNL     1      20.321 -18.955  -5.031  1.00  0.00     0.189 HD
HETATM   23  C2  UNL     1      19.513 -16.409  -3.904  1.00  0.00     0.291 A 
HETATM   24  C24 UNL     1      21.900 -16.365  -4.120  1.00  0.00     0.172 A 
HETATM   25  N2  UNL     1      19.563 -15.167  -3.398  1.00  0.00    -0.154 N 
HETATM   26  O1  UNL     1      18.441 -17.048  -4.061  1.00  0.00    -0.265 OA
HETATM   27  C1  UNL     1      20.760 -14.553  -3.263  1.00  0.00     0.680 A 
ATOM     28  H2  UNL     1      18.706 -14.691  -3.117  1.00  0.00     0.187 HD
HETATM   29  N13 UNL     1      21.906 -15.130  -3.613  1.00  0.00    -0.173 N 
ATOM     30  H13 UNL     1      22.787 -14.631  -3.493  1.00  0.00     0.186 HD
BRANCH  27  31
HETATM   31  N1  UNL     1      20.766 -13.369  -2.778  1.00  0.00    -0.234 N 
ATOM     32  H12 UNL     1      20.545 -12.574  -3.377  1.00  0.00     0.174 HD
ATOM     33  H11 UNL     1      20.997 -13.265  -1.789  1.00  0.00     0.174 HD
ENDBRANCH  27  31
ENDBRANCH  16  17
ENDBRANCH  15  16
ENDBRANCH  14  15
ENDBRANCH  11  14
ENDBRANCH   9  10
ENDBRANCH   1   9
BRANCH   8  34
HETATM   34  O8  UNL     1      24.615 -12.721  -9.713  1.00  0.00    -0.391 OA
ATOM     35  H8  UNL     1      23.743 -13.097  -9.672  1.00  0.00     0.210 HD
ENDBRANCH   8  34
BRANCH   7  36
HETATM   36  O3  UNL     1      22.773 -10.666  -9.259  1.00  0.00    -0.373 OA
BRANCH  36  37
HETATM   37  C13 UNL     1      22.272 -11.526  -8.304  1.00  0.00     0.153 C 
HETATM   38  C14 UNL     1      21.559 -10.770  -7.174  1.00  0.00     0.068 C 
HETATM   39  C15 UNL     1      20.569 -11.761  -6.541  1.00  0.00     0.144 C 
HETATM   40  C16 UNL     1      19.431 -11.822  -7.562  1.00  0.00     0.125 C 
HETATM   41  C21 UNL     1      19.950 -12.423  -8.805  1.00  0.00     0.062 C 
HETATM   42  C22 UNL     1      21.433 -12.571  -8.926  1.00  0.00     0.149 C 
BRANCH  39  43
HETATM   43  O4  UNL     1      20.133 -11.318  -5.316  1.00  0.00    -0.393 OA
ATOM     44  H4  UNL     1      20.716 -11.598  -4.620  1.00  0.00     0.210 HD
ENDBRANCH  39  43
BRANCH  40  45
HETATM   45  N11 UNL     1      18.219 -12.361  -7.029  1.00  0.00    -0.302 N 
HETATM   46  C17 UNL     1      18.194 -13.524  -6.349  1.00  0.00     0.102 A 
HETATM   47  C18 UNL     1      17.064 -14.092  -5.812  1.00  0.00     0.092 A 
HETATM   48  C19 UNL     1      15.850 -13.436  -5.974  1.00  0.00     0.250 A 
HETATM   49  O5  UNL     1      14.790 -13.923  -5.500  1.00  0.00    -0.268 OA
HETATM   50  N12 UNL     1      15.876 -12.277  -6.653  1.00  0.00    -0.275 N 
HETATM   51  C20 UNL     1      17.014 -11.754  -7.164  1.00  0.00     0.329 A 
ATOM     52  H12 UNL     1      15.001 -11.770  -6.789  1.00  0.00     0.173 HD
HETATM   53  O6  UNL     1      16.906 -10.681  -7.768  1.00  0.00    -0.246 OA
ENDBRANCH  40  45
BRANCH  42  54
HETATM   54  O7  UNL     1      21.862 -13.863  -8.529  1.00  0.00    -0.393 OA
ATOM     55  H7  UNL     1      22.369 -13.817  -7.726  1.00  0.00     0.210 HD
ENDBRANCH  42  54
ENDBRANCH  36  37
ENDBRANCH   7  36
BRANCH   6  56
HETATM   56  N8  UNL     1      24.018  -8.059  -8.510  1.00  0.00    -0.314 N 
HETATM   57  N9  UNL     1      22.837  -7.667  -8.470  1.00  0.00    -0.253 N 
ATOM     58  H9  UNL     1      22.101  -8.300  -8.160  1.00  0.00     0.207 HD
ATOM     59  H8  UNL     1      24.718  -7.388  -8.827  1.00  0.00     0.182 HD
BRANCH  57  60
HETATM   60  N10 UNL     1      22.517  -6.366  -8.847  1.00  0.00    -0.331 N 
ATOM     61 2H10 UNL     1      23.273  -5.699  -9.001  1.00  0.00     0.178 HD
ATOM     62 1H10 UNL     1      21.543  -6.091  -8.966  1.00  0.00     0.178 HD
ENDBRANCH  57  60
ENDBRANCH   6  56
TORSDOF 15
ENDMDL
MODEL 5
REMARK VINA RESULT: -7.451367667      3.126      7.900
REMARK  15 active torsions:
REMARK  status: ('A' for Active; 'I' for Inactive)
REMARK    1  A    between atoms: N1_1  and  C1_4 
REMARK    2  A    between atoms: N5_14  and  C4_15 
REMARK    3  A    between atoms: C4_15  and  C5_16 
REMARK    4  A    between atoms: C5_16  and  C6_17 
REMARK    5  A    between atoms: C6_17  and  N6_18 
REMARK       I    between atoms: N6_18  and  C7_20 
REMARK    6  A    between atoms: C7_20  and  C8_22 
REMARK    7  A    between atoms: C8_22  and  C9_23 
REMARK    8  A    between atoms: C11_28  and  N8_29 
REMARK    9  A    between atoms: N9_31  and  N10_33 
REMARK   10  A    between atoms: C12_36  and  O3_37 
REMARK   11  A    between atoms: O3_37  and  C13_38 
REMARK   12  A    between atoms: C15_40  and  O4_41 
REMARK   13  A    between atoms: C16_43  and  N11_44 
REMARK   14  A    between atoms: C22_54  and  O7_55 
REMARK   15  A    between atoms: C23_57  and  O8_58 
ROOT
HETATM    1  C9  UNL     1      16.686 -14.345 -10.825  1.00  0.00     0.225 C 
HETATM    2  N7  UNL     1      17.120 -14.561 -12.163  1.00  0.00    -0.066 N 
ATOM      3  H71 UNL     1      17.287 -13.677 -12.644  1.00  0.00     0.277 HD
ATOM      4  H72 UNL     1      16.363 -14.921 -12.743  1.00  0.00     0.277 HD
HETATM    5  C10 UNL     1      18.254 -15.400 -12.227  1.00  0.00     0.262 C 
HETATM    6  C11 UNL     1      19.401 -14.906 -11.364  1.00  0.00     0.158 C 
HETATM    7  C12 UNL     1      19.082 -13.525 -10.816  1.00  0.00     0.178 C 
HETATM    8  C23 UNL     1      17.771 -13.615 -10.072  1.00  0.00     0.180 C 
ENDROOT
BRANCH   1   9
HETATM    9  C8  UNL     1      16.416 -15.645 -10.147  1.00  0.00     0.138 C 
BRANCH   9  10
HETATM   10  C7  UNL     1      15.693 -15.511  -8.854  1.00  0.00     0.219 C 
HETATM   11  N6  UNL     1      14.965 -14.362  -8.494  1.00  0.00    -0.361 N 
ATOM     12  H6  UNL     1      14.938 -13.590  -9.159  1.00  0.00     0.162 HD
HETATM   13  O2  UNL     1      15.732 -16.460  -8.047  1.00  0.00    -0.274 OA
BRANCH  11  14
HETATM   14  C6  UNL     1      14.263 -14.202  -7.263  1.00  0.00     0.124 C 
BRANCH  14  15
HETATM   15  C5  UNL     1      14.885 -13.266  -6.289  1.00  0.00     0.041 C 
BRANCH  15  16
HETATM   16  C4  UNL     1      16.174 -13.785  -5.690  1.00  0.00     0.154 C 
BRANCH  16  17
HETATM   17  N5  UNL     1      17.306 -12.929  -5.959  1.00  0.00    -0.260 N 
HETATM   18  N4  UNL     1      17.331 -11.932  -6.836  1.00  0.00    -0.238 N 
HETATM   19  N3  UNL     1      18.492 -11.344  -6.855  1.00  0.00    -0.278 N 
ATOM     20  H4  UNL     1      16.540 -11.662  -7.421  1.00  0.00     0.208 HD
HETATM   21  C3  UNL     1      19.277 -11.948  -5.975  1.00  0.00     0.164 A 
ATOM     22  H3  UNL     1      18.753 -10.554  -7.446  1.00  0.00     0.189 HD
HETATM   23  C2  UNL     1      20.599 -11.762  -5.565  1.00  0.00     0.291 A 
HETATM   24  C24 UNL     1      18.529 -12.959  -5.398  1.00  0.00     0.172 A 
HETATM   25  N2  UNL     1      21.110 -12.568  -4.622  1.00  0.00    -0.154 N 
HETATM   26  O1  UNL     1      21.252 -10.834  -6.107  1.00  0.00    -0.265 OA
HETATM   27  C1  UNL     1      20.337 -13.542  -4.091  1.00  0.00     0.680 A 
ATOM     28  H2  UNL     1      22.074 -12.449  -4.309  1.00  0.00     0.187 HD
HETATM   29  N13 UNL     1      19.076 -13.740  -4.464  1.00  0.00    -0.173 N 
ATOM     30  H13 UNL     1      18.528 -14.487  -4.036  1.00  0.00     0.186 HD
BRANCH  27  31
HETATM   31  N1  UNL     1      20.861 -14.292  -3.196  1.00  0.00    -0.234 N 
ATOM     32  H12 UNL     1      21.695 -14.838  -3.416  1.00  0.00     0.174 HD
ATOM     33  H11 UNL     1      20.414 -14.315  -2.279  1.00  0.00     0.174 HD
ENDBRANCH  27  31
ENDBRANCH  16  17
ENDBRANCH  15  16
ENDBRANCH  14  15
ENDBRANCH  11  14
ENDBRANCH   9  10
ENDBRANCH   1   9
BRANCH   8  34
HETATM   34  O8  UNL     1      17.328 -12.349  -9.681  1.00  0.00    -0.391 OA
ATOM     35  H8  UNL     1      18.010 -11.702  -9.816  1.00  0.00     0.210 HD
ENDBRANCH   8  34
BRANCH   7  36
HETATM   36  O3  UNL     1      20.021 -13.061  -9.932  1.00  0.00    -0.373 OA
BRANCH  36  37
HETATM   37  C13 UNL     1      20.811 -12.039 -10.419  1.00  0.00     0.153 C 
HETATM   38  C14 UNL     1      20.874 -10.854  -9.446  1.00  0.00     0.068 C 
HETATM   39  C15 UNL     1      22.175 -10.098  -9.761  1.00  0.00     0.144 C 
HETATM   40  C16 UNL     1      23.258 -10.988  -9.147  1.00  0.00     0.125 C 
HETATM   41  C21 UNL     1      23.282 -12.268  -9.880  1.00  0.00     0.062 C 
HETATM   42  C22 UNL     1      22.144 -12.545 -10.809  1.00  0.00     0.149 C 
BRANCH  39  43
HETATM   43  O4  UNL     1      22.170  -8.842  -9.205  1.00  0.00    -0.393 OA
ATOM     44  H4  UNL     1      23.045  -8.477  -9.167  1.00  0.00     0.210 HD
ENDBRANCH  39  43
BRANCH  40  45
HETATM   45  N11 UNL     1      24.504 -10.316  -8.958  1.00  0.00    -0.302 N 
HETATM   46  C17 UNL     1      25.442 -10.266  -9.926  1.00  0.00     0.102 A 
HETATM   47  C18 UNL     1      26.657  -9.636  -9.807  1.00  0.00     0.092 A 
HETATM   48  C19 UNL     1      26.960  -9.002  -8.609  1.00  0.00     0.250 A 
HETATM   49  O5  UNL     1      28.064  -8.413  -8.456  1.00  0.00    -0.268 OA
HETATM   50  N12 UNL     1      26.026  -9.052  -7.644  1.00  0.00    -0.275 N 
HETATM   51  C20 UNL     1      24.842  -9.684  -7.807  1.00  0.00     0.329 A 
ATOM     52  H12 UNL     1      26.218  -8.595  -6.753  1.00  0.00     0.173 HD
HETATM   53  O6  UNL     1      24.066  -9.660  -6.844  1.00  0.00    -0.246 OA
ENDBRANCH  40  45
BRANCH  42  54
HETATM   54  O7  UNL     1      22.454 -12.171 -12.141  1.00  0.00    -0.393 OA
ATOM     55  H7  UNL     1      21.806 -12.513 -12.746  1.00  0.00     0.210 HD
ENDBRANCH  42  54
ENDBRANCH  36  37
ENDBRANCH   7  36
BRANCH   6  56
HETATM   56  N8  UNL     1      20.581 -14.929 -12.192  1.00  0.00    -0.314 N 
HETATM   57  N9  UNL     1      20.669 -14.488 -13.353  1.00  0.00    -0.253 N 
ATOM     58  H9  UNL     1      19.856 -14.064 -13.798  1.00  0.00     0.207 HD
ATOM     59  H8  UNL     1      21.421 -15.344 -11.789  1.00  0.00     0.182 HD
BRANCH  57  60
HETATM   60  N10 UNL     1      21.872 -14.572 -14.045  1.00  0.00    -0.331 N 
ATOM     61 2H10 UNL     1      22.736 -14.697 -13.517  1.00  0.00     0.178 HD
ATOM     62 1H10 UNL     1      21.885 -14.510 -15.063  1.00  0.00     0.178 HD
ENDBRANCH  57  60
ENDBRANCH   6  56
TORSDOF 15
ENDMDL
