MODEL 1
REMARK VINA RESULT: -7.461526887      0.000      0.000
REMARK  9 active torsions:
REMARK  status: ('A' for Active; 'I' for Inactive)
REMARK    1  A    between atoms: C2_2  and  S1_4 
REMARK    2  A    between atoms: S1_4  and  C3_5 
REMARK    3  A    between atoms: C3_5  and  C4_6 
REMARK       I    between atoms: C4_6  and  N1_8 
REMARK    4  A    between atoms: N1_8  and  C5_10 
REMARK    5  A    between atoms: C5_10  and  C6_11 
REMARK    6  A    between atoms: C7_13  and  N2_14 
REMARK       I    between atoms: N2_14  and  C8_16 
REMARK       I    between atoms: C8_16  and  N3_18 
REMARK    7  A    between atoms: N3_18  and  N4_20 
REMARK    8  A    between atoms: C12_25  and  C13_26 
REMARK    9  A    between atoms: C14_29  and  O8_30 
ROOT
HETATM    1  C6  UNL     1      12.514  44.488  23.759  1.00  0.00     0.179 C 
HETATM    2  O3  UNL     1      13.630  45.246  23.236  1.00  0.00    -0.352 OA
HETATM    3  C7  UNL     1      13.085  45.847  22.098  1.00  0.00     0.255 C 
HETATM    4  C14 UNL     1      12.011  44.993  21.552  1.00  0.00     0.184 C 
HETATM    5  C15 UNL     1      12.077  43.769  22.516  1.00  0.00     0.126 C 
HETATM    6  S2  UNL     1      13.433  42.748  21.826  1.00  0.00    -0.086 SA
ENDROOT
BRANCH   3   7
HETATM    7  N2  UNL     1      12.664  47.200  22.389  1.00  0.00    -0.313 N 
HETATM    8  C8  UNL     1      13.008  48.348  21.644  1.00  0.00     0.336 C 
HETATM    9  O4  UNL     1      13.768  48.162  20.637  1.00  0.00    -0.246 OA
HETATM   10  N3  UNL     1      12.515  49.628  22.027  1.00  0.00    -0.253 N 
ATOM     11  H3  UNL     1      11.902  49.663  22.841  1.00  0.00     0.191 HD
ATOM     12  H2  UNL     1      12.067  47.337  23.204  1.00  0.00     0.167 HD
BRANCH  10  13
HETATM   13  N4  UNL     1      12.785  50.801  21.410  1.00  0.00    -0.305 N 
HETATM   14  C9  UNL     1      12.020  51.228  20.315  1.00  0.00     0.170 C 
HETATM   15  C10 UNL     1      12.529  52.577  19.776  1.00  0.00     0.189 C 
HETATM   16  O5  UNL     1      13.914  52.663  19.886  1.00  0.00    -0.387 OA
HETATM   17  C11 UNL     1      14.372  52.657  21.178  1.00  0.00     0.205 C 
HETATM   18  C12 UNL     1      13.589  51.742  22.086  1.00  0.00     0.226 C 
BRANCH  18  19
HETATM   19  C13 UNL     1      12.725  52.503  23.021  1.00  0.00     0.200 C 
HETATM   20  O6  UNL     1      13.130  53.611  23.433  1.00  0.00    -0.646 OA
HETATM   21  O7  UNL     1      11.500  52.036  23.445  1.00  0.00    -0.646 OA
ENDBRANCH  18  19
ENDBRANCH  10  13
ENDBRANCH   3   7
BRANCH   4  22
HETATM   22  O8  UNL     1      12.178  44.574  20.236  1.00  0.00    -0.390 OA
ATOM     23  H8  UNL     1      12.081  43.642  20.082  1.00  0.00     0.210 HD
ENDBRANCH   4  22
BRANCH   1  24
HETATM   24  C5  UNL     1      12.966  43.736  24.934  1.00  0.00     0.097 C 
BRANCH  24  25
HETATM   25  N1  UNL     1      12.847  44.265  26.234  1.00  0.00    -0.338 N 
HETATM   26  C4  UNL     1      11.759  44.465  27.049  1.00  0.00     0.231 C 
HETATM   27  O2  UNL     1      10.556  44.147  26.730  1.00  0.00    -0.272 OA
ATOM     28  H1  UNL     1      13.735  44.554  26.647  1.00  0.00     0.167 HD
BRANCH  26  29
HETATM   29  C3  UNL     1      11.929  45.083  28.398  1.00  0.00     0.185 C 
BRANCH  29  30
HETATM   30  S1  UNL     1      10.681  44.456  29.531  1.00  0.00    -0.084 SA
BRANCH  30  31
HETATM   31  C2  UNL     1      11.297  44.060  31.137  1.00  0.00     0.182 C 
HETATM   32  C1  UNL     1      10.459  43.989  32.336  1.00  0.00     0.104 C 
HETATM   33  O1  UNL     1      12.509  43.826  31.271  1.00  0.00    -0.286 OA
ENDBRANCH  30  31
ENDBRANCH  29  30
ENDBRANCH  26  29
ENDBRANCH  24  25
ENDBRANCH   1  24
TORSDOF 9
ENDMDL
MODEL 2
REMARK VINA RESULT: -7.407976758      3.575      5.510
REMARK  9 active torsions:
REMARK  status: ('A' for Active; 'I' for Inactive)
REMARK    1  A    between atoms: C2_2  and  S1_4 
REMARK    2  A    between atoms: S1_4  and  C3_5 
REMARK    3  A    between atoms: C3_5  and  C4_6 
REMARK       I    between atoms: C4_6  and  N1_8 
REMARK    4  A    between atoms: N1_8  and  C5_10 
REMARK    5  A    between atoms: C5_10  and  C6_11 
REMARK    6  A    between atoms: C7_13  and  N2_14 
REMARK       I    between atoms: N2_14  and  C8_16 
REMARK       I    between atoms: C8_16  and  N3_18 
REMARK    7  A    between atoms: N3_18  and  N4_20 
REMARK    8  A    between atoms: C12_25  and  C13_26 
REMARK    9  A    between atoms: C14_29  and  O8_30 
ROOT
HETATM    1  C6  UNL     1      10.268  46.977  24.471  1.00  0.00     0.179 C 
HETATM    2  O3  UNL     1      11.201  48.072  24.623  1.00  0.00    -0.352 OA
HETATM    3  C7  UNL     1      12.287  47.657  23.846  1.00  0.00     0.255 C 
HETATM    4  C14 UNL     1      12.349  46.182  23.828  1.00  0.00     0.184 C 
HETATM    5  C15 UNL     1      11.169  45.817  24.779  1.00  0.00     0.126 C 
HETATM    6  S2  UNL     1      11.899  45.967  26.452  1.00  0.00    -0.086 SA
ENDROOT
BRANCH   3   7
HETATM    7  N2  UNL     1      12.231  48.255  22.531  1.00  0.00    -0.313 N 
HETATM    8  C8  UNL     1      13.002  49.352  22.091  1.00  0.00     0.336 C 
HETATM    9  O4  UNL     1      13.803  49.859  22.944  1.00  0.00    -0.246 OA
HETATM   10  N3  UNL     1      12.863  49.841  20.761  1.00  0.00    -0.253 N 
ATOM     11  H3  UNL     1      12.203  49.355  20.155  1.00  0.00     0.191 HD
ATOM     12  H2  UNL     1      11.577  47.849  21.862  1.00  0.00     0.167 HD
BRANCH  10  13
HETATM   13  N4  UNL     1      13.527  50.892  20.226  1.00  0.00    -0.305 N 
HETATM   14  C9  UNL     1      14.373  50.718  19.122  1.00  0.00     0.170 C 
HETATM   15  C10 UNL     1      15.026  52.049  18.709  1.00  0.00     0.189 C 
HETATM   16  O5  UNL     1      15.295  52.836  19.827  1.00  0.00    -0.387 OA
HETATM   17  C11 UNL     1      14.175  53.241  20.505  1.00  0.00     0.205 C 
HETATM   18  C12 UNL     1      13.091  52.194  20.552  1.00  0.00     0.226 C 
BRANCH  18  19
HETATM   19  C13 UNL     1      11.956  52.538  19.662  1.00  0.00     0.200 C 
HETATM   20  O6  UNL     1      11.868  53.711  19.240  1.00  0.00    -0.646 OA
HETATM   21  O7  UNL     1      11.004  51.615  19.284  1.00  0.00    -0.646 OA
ENDBRANCH  18  19
ENDBRANCH  10  13
ENDBRANCH   3   7
BRANCH   4  22
HETATM   22  O8  UNL     1      13.531  45.617  24.296  1.00  0.00    -0.390 OA
ATOM     23  H8  UNL     1      13.591  45.500  25.237  1.00  0.00     0.210 HD
ENDBRANCH   4  22
BRANCH   1  24
HETATM   24  C5  UNL     1       9.089  47.246  25.302  1.00  0.00     0.097 C 
BRANCH  24  25
HETATM   25  N1  UNL     1       8.343  48.431  25.155  1.00  0.00    -0.338 N 
HETATM   26  C4  UNL     1       7.598  48.924  24.110  1.00  0.00     0.231 C 
HETATM   27  O2  UNL     1       7.430  48.308  22.996  1.00  0.00    -0.272 OA
ATOM     28  H1  UNL     1       8.358  49.037  25.976  1.00  0.00     0.167 HD
BRANCH  26  29
HETATM   29  C3  UNL     1       6.921  50.251  24.225  1.00  0.00     0.185 C 
BRANCH  29  30
HETATM   30  S1  UNL     1       8.143  51.554  24.441  1.00  0.00    -0.084 SA
BRANCH  30  31
HETATM   31  C2  UNL     1       9.582  51.367  23.434  1.00  0.00     0.182 C 
HETATM   32  C1  UNL     1      10.950  51.402  23.956  1.00  0.00     0.104 C 
HETATM   33  O1  UNL     1       9.439  51.196  22.213  1.00  0.00    -0.286 OA
ENDBRANCH  30  31
ENDBRANCH  29  30
ENDBRANCH  26  29
ENDBRANCH  24  25
ENDBRANCH   1  24
TORSDOF 9
ENDMDL
MODEL 3
REMARK VINA RESULT: -7.366865262      2.839      4.566
REMARK  9 active torsions:
REMARK  status: ('A' for Active; 'I' for Inactive)
REMARK    1  A    between atoms: C2_2  and  S1_4 
REMARK    2  A    between atoms: S1_4  and  C3_5 
REMARK    3  A    between atoms: C3_5  and  C4_6 
REMARK       I    between atoms: C4_6  and  N1_8 
REMARK    4  A    between atoms: N1_8  and  C5_10 
REMARK    5  A    between atoms: C5_10  and  C6_11 
REMARK    6  A    between atoms: C7_13  and  N2_14 
REMARK       I    between atoms: N2_14  and  C8_16 
REMARK       I    between atoms: C8_16  and  N3_18 
REMARK    7  A    between atoms: N3_18  and  N4_20 
REMARK    8  A    between atoms: C12_25  and  C13_26 
REMARK    9  A    between atoms: C14_29  and  O8_30 
ROOT
HETATM    1  C6  UNL     1      11.881  46.512  25.053  1.00  0.00     0.179 C 
HETATM    2  O3  UNL     1      11.055  47.690  24.904  1.00  0.00    -0.352 OA
HETATM    3  C7  UNL     1      11.996  48.693  24.652  1.00  0.00     0.255 C 
HETATM    4  C14 UNL     1      13.275  48.348  25.304  1.00  0.00     0.184 C 
HETATM    5  C15 UNL     1      12.896  47.023  26.033  1.00  0.00     0.126 C 
HETATM    6  S2  UNL     1      12.099  47.593  27.581  1.00  0.00    -0.086 SA
ENDROOT
BRANCH   3   7
HETATM    7  N2  UNL     1      12.112  48.937  23.231  1.00  0.00    -0.313 N 
HETATM    8  C8  UNL     1      12.845  49.983  22.632  1.00  0.00     0.336 C 
HETATM    9  O4  UNL     1      13.440  50.784  23.426  1.00  0.00    -0.246 OA
HETATM   10  N3  UNL     1      12.894  50.107  21.215  1.00  0.00    -0.253 N 
ATOM     11  H3  UNL     1      12.393  49.404  20.671  1.00  0.00     0.191 HD
ATOM     12  H2  UNL     1      11.621  48.297  22.607  1.00  0.00     0.167 HD
BRANCH  10  13
HETATM   13  N4  UNL     1      13.542  51.071  20.522  1.00  0.00    -0.305 N 
HETATM   14  C9  UNL     1      14.340  50.745  19.416  1.00  0.00     0.170 C 
HETATM   15  C10 UNL     1      14.986  52.003  18.808  1.00  0.00     0.189 C 
HETATM   16  O5  UNL     1      15.308  52.923  19.802  1.00  0.00    -0.387 OA
HETATM   17  C11 UNL     1      14.220  53.427  20.468  1.00  0.00     0.205 C 
HETATM   18  C12 UNL     1      13.131  52.409  20.693  1.00  0.00     0.226 C 
BRANCH  18  19
HETATM   19  C13 UNL     1      11.962  52.651  19.813  1.00  0.00     0.200 C 
HETATM   20  O6  UNL     1      11.889  53.743  19.211  1.00  0.00    -0.646 OA
HETATM   21  O7  UNL     1      10.962  51.719  19.636  1.00  0.00    -0.646 OA
ENDBRANCH  18  19
ENDBRANCH  10  13
ENDBRANCH   3   7
BRANCH   4  22
HETATM   22  O8  UNL     1      13.759  49.275  26.221  1.00  0.00    -0.390 OA
ATOM     23  H8  UNL     1      14.617  49.091  26.584  1.00  0.00     0.210 HD
ENDBRANCH   4  22
BRANCH   1  24
HETATM   24  C5  UNL     1      11.020  45.375  25.396  1.00  0.00     0.097 C 
BRANCH  24  25
HETATM   25  N1  UNL     1      11.489  44.049  25.315  1.00  0.00    -0.338 N 
HETATM   26  C4  UNL     1      11.617  43.061  26.261  1.00  0.00     0.231 C 
HETATM   27  O2  UNL     1      11.276  43.196  27.491  1.00  0.00    -0.272 OA
ATOM     28  H1  UNL     1      11.788  43.771  24.380  1.00  0.00     0.167 HD
BRANCH  26  29
HETATM   29  C3  UNL     1      12.182  41.729  25.888  1.00  0.00     0.185 C 
BRANCH  29  30
HETATM   30  S1  UNL     1      13.867  41.916  25.287  1.00  0.00    -0.084 SA
BRANCH  30  31
HETATM   31  C2  UNL     1      13.982  42.622  23.673  1.00  0.00     0.182 C 
HETATM   32  C1  UNL     1      14.041  41.833  22.441  1.00  0.00     0.104 C 
HETATM   33  O1  UNL     1      14.017  43.858  23.562  1.00  0.00    -0.286 OA
ENDBRANCH  30  31
ENDBRANCH  29  30
ENDBRANCH  26  29
ENDBRANCH  24  25
ENDBRANCH   1  24
TORSDOF 9
ENDMDL
MODEL 4
REMARK VINA RESULT: -7.338819742      3.993      9.835
REMARK  9 active torsions:
REMARK  status: ('A' for Active; 'I' for Inactive)
REMARK    1  A    between atoms: C2_2  and  S1_4 
REMARK    2  A    between atoms: S1_4  and  C3_5 
REMARK    3  A    between atoms: C3_5  and  C4_6 
REMARK       I    between atoms: C4_6  and  N1_8 
REMARK    4  A    between atoms: N1_8  and  C5_10 
REMARK    5  A    between atoms: C5_10  and  C6_11 
REMARK    6  A    between atoms: C7_13  and  N2_14 
REMARK       I    between atoms: N2_14  and  C8_16 
REMARK       I    between atoms: C8_16  and  N3_18 
REMARK    7  A    between atoms: N3_18  and  N4_20 
REMARK    8  A    between atoms: C12_25  and  C13_26 
REMARK    9  A    between atoms: C14_29  and  O8_30 
ROOT
HETATM    1  C6  UNL     1      12.450  50.602  21.342  1.00  0.00     0.179 C 
HETATM    2  O3  UNL     1      13.393  50.120  22.327  1.00  0.00    -0.352 OA
HETATM    3  C7  UNL     1      12.984  50.781  23.489  1.00  0.00     0.255 C 
HETATM    4  C14 UNL     1      12.362  52.071  23.133  1.00  0.00     0.184 C 
HETATM    5  C15 UNL     1      12.545  52.080  21.585  1.00  0.00     0.126 C 
HETATM    6  S2  UNL     1      14.260  52.684  21.357  1.00  0.00    -0.086 SA
ENDROOT
BRANCH   3   7
HETATM    7  N2  UNL     1      12.137  49.924  24.290  1.00  0.00    -0.313 N 
HETATM    8  C8  UNL     1      12.516  48.689  24.857  1.00  0.00     0.336 C 
HETATM    9  O4  UNL     1      13.707  48.300  24.622  1.00  0.00    -0.246 OA
HETATM   10  N3  UNL     1      11.590  47.944  25.641  1.00  0.00    -0.253 N 
ATOM     11  H3  UNL     1      10.665  48.352  25.779  1.00  0.00     0.191 HD
ATOM     12  H2  UNL     1      11.183  50.240  24.460  1.00  0.00     0.167 HD
BRANCH  10  13
HETATM   13  N4  UNL     1      11.822  46.744  26.221  1.00  0.00    -0.305 N 
HETATM   14  C9  UNL     1      11.814  46.609  27.616  1.00  0.00     0.170 C 
HETATM   15  C10 UNL     1      12.121  45.159  28.035  1.00  0.00     0.189 C 
HETATM   16  O5  UNL     1      13.041  44.578  27.165  1.00  0.00    -0.387 OA
HETATM   17  C11 UNL     1      12.580  44.436  25.882  1.00  0.00     0.205 C 
HETATM   18  C12 UNL     1      11.717  45.584  25.424  1.00  0.00     0.226 C 
BRANCH  18  19
HETATM   19  C13 UNL     1      10.286  45.202  25.351  1.00  0.00     0.200 C 
HETATM   20  O6  UNL     1       9.995  43.987  25.376  1.00  0.00    -0.646 OA
HETATM   21  O7  UNL     1       9.273  46.132  25.260  1.00  0.00    -0.646 OA
ENDBRANCH  18  19
ENDBRANCH  10  13
ENDBRANCH   3   7
BRANCH   4  22
HETATM   22  O8  UNL     1      12.948  53.203  23.690  1.00  0.00    -0.390 OA
ATOM     23  H8  UNL     1      12.593  53.487  24.524  1.00  0.00     0.210 HD
ENDBRANCH   4  22
BRANCH   1  24
HETATM   24  C5  UNL     1      12.807  50.038  20.035  1.00  0.00     0.097 C 
BRANCH  24  25
HETATM   25  N1  UNL     1      12.159  50.452  18.855  1.00  0.00    -0.338 N 
HETATM   26  C4  UNL     1      10.829  50.526  18.516  1.00  0.00     0.231 C 
HETATM   27  O2  UNL     1       9.868  50.218  19.309  1.00  0.00    -0.272 OA
ATOM     28  H1  UNL     1      12.795  50.753  18.116  1.00  0.00     0.167 HD
BRANCH  26  29
HETATM   29  C3  UNL     1      10.423  50.988  17.154  1.00  0.00     0.185 C 
BRANCH  29  30
HETATM   30  S1  UNL     1       8.741  51.624  17.190  1.00  0.00    -0.084 SA
BRANCH  30  31
HETATM   31  C2  UNL     1       8.629  53.346  17.564  1.00  0.00     0.182 C 
HETATM   32  C1  UNL     1       7.380  54.108  17.519  1.00  0.00     0.104 C 
HETATM   33  O1  UNL     1       9.661  53.956  17.885  1.00  0.00    -0.286 OA
ENDBRANCH  30  31
ENDBRANCH  29  30
ENDBRANCH  26  29
ENDBRANCH  24  25
ENDBRANCH   1  24
TORSDOF 9
ENDMDL
MODEL 5
REMARK VINA RESULT: -7.301511192      2.950      8.235
REMARK  9 active torsions:
REMARK  status: ('A' for Active; 'I' for Inactive)
REMARK    1  A    between atoms: C2_2  and  S1_4 
REMARK    2  A    between atoms: S1_4  and  C3_5 
REMARK    3  A    between atoms: C3_5  and  C4_6 
REMARK       I    between atoms: C4_6  and  N1_8 
REMARK    4  A    between atoms: N1_8  and  C5_10 
REMARK    5  A    between atoms: C5_10  and  C6_11 
REMARK    6  A    between atoms: C7_13  and  N2_14 
REMARK       I    between atoms: N2_14  and  C8_16 
REMARK       I    between atoms: C8_16  and  N3_18 
REMARK    7  A    between atoms: N3_18  and  N4_20 
REMARK    8  A    between atoms: C12_25  and  C13_26 
REMARK    9  A    between atoms: C14_29  and  O8_30 
ROOT
HETATM    1  C6  UNL     1      12.712  50.631  21.340  1.00  0.00     0.179 C 
HETATM    2  O3  UNL     1      13.577  50.198  22.415  1.00  0.00    -0.352 OA
HETATM    3  C7  UNL     1      13.033  50.851  23.526  1.00  0.00     0.255 C 
HETATM    4  C14 UNL     1      12.393  52.110  23.096  1.00  0.00     0.184 C 
HETATM    5  C15 UNL     1      12.721  52.113  21.572  1.00  0.00     0.126 C 
HETATM    6  S2  UNL     1      14.423  52.788  21.498  1.00  0.00    -0.086 SA
ENDROOT
BRANCH   3   7
HETATM    7  N2  UNL     1      12.150  49.966  24.254  1.00  0.00    -0.313 N 
HETATM    8  C8  UNL     1      12.524  48.750  24.864  1.00  0.00     0.336 C 
HETATM    9  O4  UNL     1      13.746  48.407  24.742  1.00  0.00    -0.246 OA
HETATM   10  N3  UNL     1      11.560  47.973  25.568  1.00  0.00    -0.253 N 
ATOM     11  H3  UNL     1      10.612  48.346  25.618  1.00  0.00     0.191 HD
ATOM     12  H2  UNL     1      11.173  50.246  24.334  1.00  0.00     0.167 HD
BRANCH  10  13
HETATM   13  N4  UNL     1      11.786  46.786  26.177  1.00  0.00    -0.305 N 
HETATM   14  C9  UNL     1      11.765  46.683  27.575  1.00  0.00     0.170 C 
HETATM   15  C10 UNL     1      12.066  45.244  28.029  1.00  0.00     0.189 C 
HETATM   16  O5  UNL     1      12.992  44.641  27.182  1.00  0.00    -0.387 OA
HETATM   17  C11 UNL     1      12.542  44.471  25.898  1.00  0.00     0.205 C 
HETATM   18  C12 UNL     1      11.685  45.609  25.407  1.00  0.00     0.226 C 
BRANCH  18  19
HETATM   19  C13 UNL     1      10.254  45.227  25.330  1.00  0.00     0.200 C 
HETATM   20  O6  UNL     1       9.963  44.012  25.351  1.00  0.00    -0.646 OA
HETATM   21  O7  UNL     1       9.242  46.158  25.239  1.00  0.00    -0.646 OA
ENDBRANCH  18  19
ENDBRANCH  10  13
ENDBRANCH   3   7
BRANCH   4  22
HETATM   22  O8  UNL     1      12.877  53.271  23.691  1.00  0.00    -0.390 OA
ATOM     23  H8  UNL     1      12.448  54.079  23.435  1.00  0.00     0.210 HD
ENDBRANCH   4  22
BRANCH   1  24
HETATM   24  C5  UNL     1      13.213  50.071  20.080  1.00  0.00     0.097 C 
BRANCH  24  25
HETATM   25  N1  UNL     1      12.988  48.725  19.734  1.00  0.00    -0.338 N 
HETATM   26  C4  UNL     1      11.845  48.045  19.386  1.00  0.00     0.231 C 
HETATM   27  O2  UNL     1      10.687  48.590  19.291  1.00  0.00    -0.272 OA
ATOM     28  H1  UNL     1      13.829  48.147  19.743  1.00  0.00     0.167 HD
BRANCH  26  29
HETATM   29  C3  UNL     1      11.899  46.581  19.090  1.00  0.00     0.185 C 
BRANCH  29  30
HETATM   30  S1  UNL     1      12.051  45.644  20.618  1.00  0.00    -0.084 SA
BRANCH  30  31
HETATM   31  C2  UNL     1      13.690  45.595  21.274  1.00  0.00     0.182 C 
HETATM   32  C1  UNL     1      14.539  44.402  21.252  1.00  0.00     0.104 C 
HETATM   33  O1  UNL     1      14.160  46.623  21.786  1.00  0.00    -0.286 OA
ENDBRANCH  30  31
ENDBRANCH  29  30
ENDBRANCH  26  29
ENDBRANCH  24  25
ENDBRANCH   1  24
TORSDOF 9
ENDMDL
