MODEL 1
REMARK VINA RESULT: -7.673393740      0.000      0.000
REMARK  12 active torsions:
REMARK  status: ('A' for Active; 'I' for Inactive)
REMARK    1  A    between atoms: C2_2  and  C3_3 
REMARK    2  A    between atoms: C4_4  and  O1_5 
REMARK    3  A    between atoms: O1_5  and  C5_6 
REMARK    4  A    between atoms: C6_8  and  C7_9 
REMARK    5  A    between atoms: C7_9  and  O3_10 
REMARK    6  A    between atoms: O3_10  and  C8_11 
REMARK    7  A    between atoms: C9_14  and  O5_15 
REMARK    8  A    between atoms: C10_17  and  O6_18 
REMARK    9  A    between atoms: C11_20  and  O7_21 
REMARK   10  A    between atoms: C12_23  and  O8_24 
REMARK   11  A    between atoms: C13_26  and  O9_27 
REMARK   12  A    between atoms: O9_27  and  C14_28 
ROOT
HETATM    1  C3  UNL     1      11.020  48.767  22.529  1.00  0.00     0.047 C 
HETATM    2  C4  UNL     1      12.356  49.309  22.506  1.00  0.00     0.164 C 
HETATM    3  C12 UNL     1      13.203  48.435  23.490  1.00  0.00     0.176 C 
HETATM    4  C13 UNL     1      12.470  48.287  24.772  1.00  0.00     0.154 C 
HETATM    5  C18 UNL     1      11.316  49.239  24.969  1.00  0.00     0.044 C 
HETATM    6  C19 UNL     1      10.306  49.106  23.859  1.00  0.00    -0.036 C 
HETATM    7  C20 UNL     1       9.354  47.997  24.251  1.00  0.00     0.015 C 
HETATM    8  C21 UNL     1       9.514  50.366  23.764  1.00  0.00     0.015 C 
ENDROOT
BRANCH   2   9
HETATM    9  O1  UNL     1      13.129  49.445  21.442  1.00  0.00    -0.350 OA
BRANCH   9  10
HETATM   10  C5  UNL     1      13.216  50.399  20.545  1.00  0.00     0.292 C 
HETATM   11  O2  UNL     1      14.319  51.205  21.010  1.00  0.00    -0.348 OA
HETATM   12  C6  UNL     1      14.219  52.467  20.387  1.00  0.00     0.180 C 
HETATM   13  C9  UNL     1      14.692  52.305  18.999  1.00  0.00     0.180 C 
HETATM   14  C10 UNL     1      13.588  51.429  18.343  1.00  0.00     0.183 C 
HETATM   15  C11 UNL     1      13.530  50.107  19.123  1.00  0.00     0.204 C 
BRANCH  12  16
HETATM   16  C7  UNL     1      14.767  53.494  21.276  1.00  0.00     0.215 C 
BRANCH  16  17
HETATM   17  O3  UNL     1      14.586  53.497  22.624  1.00  0.00    -0.304 OA
BRANCH  17  18
HETATM   18  C8  UNL     1      13.492  53.651  23.422  1.00  0.00     0.372 C 
HETATM   19  N1  UNL     1      12.378  52.758  23.415  1.00  0.00    -0.032 NA
HETATM   20  O4  UNL     1      13.462  54.628  24.203  1.00  0.00    -0.242 OA
ENDBRANCH  17  18
ENDBRANCH  16  17
ENDBRANCH  12  16
BRANCH  13  21
HETATM   21  O5  UNL     1      15.900  51.625  18.845  1.00  0.00    -0.390 OA
ATOM     22  H5  UNL     1      15.924  50.976  18.150  1.00  0.00     0.210 HD
ENDBRANCH  13  21
BRANCH  14  23
HETATM   23  O6  UNL     1      12.402  52.103  18.552  1.00  0.00    -0.390 OA
ATOM     24  H6  UNL     1      11.773  51.705  17.963  1.00  0.00     0.210 HD
ENDBRANCH  14  23
BRANCH  15  25
HETATM   25  O7  UNL     1      14.740  49.414  18.959  1.00  0.00    -0.388 OA
ATOM     26  H7  UNL     1      14.728  48.816  18.220  1.00  0.00     0.210 HD
ENDBRANCH  15  25
ENDBRANCH   9  10
ENDBRANCH   2   9
BRANCH   1  27
HETATM   27  C2  UNL     1      10.089  48.898  21.413  1.00  0.00    -0.029 C 
HETATM   28  C1  UNL     1      10.005  48.198  20.304  1.00  0.00     0.007 C 
ENDBRANCH   1  27
BRANCH   3  29
HETATM   29  O8  UNL     1      14.337  49.224  23.791  1.00  0.00    -0.390 OA
ATOM     30  H8  UNL     1      15.077  48.716  23.480  1.00  0.00     0.210 HD
ENDBRANCH   3  29
BRANCH   4  31
HETATM   31  O9  UNL     1      12.000  46.966  24.856  1.00  0.00    -0.376 OA
BRANCH  31  32
HETATM   32  C14 UNL     1      12.857  46.119  25.514  1.00  0.00     0.149 C 
HETATM   33  C15 UNL     1      12.386  45.878  26.928  1.00  0.00     0.061 C 
HETATM   34  C16 UNL     1      12.733  44.448  27.254  1.00  0.00     0.235 C 
HETATM   35  N2  UNL     1      13.248  43.849  26.049  1.00  0.00    -0.073 N 
HETATM   36  C17 UNL     1      12.861  44.708  24.945  1.00  0.00     0.264 C 
ATOM     37  H22 UNL     1      14.252  43.675  26.087  1.00  0.00     0.277 HD
ATOM     38  H21 UNL     1      12.952  42.881  25.926  1.00  0.00     0.277 HD
ENDBRANCH  31  32
ENDBRANCH   4  31
TORSDOF 12
ENDMDL
MODEL 2
REMARK VINA RESULT: -7.583778954      2.997      7.695
REMARK  12 active torsions:
REMARK  status: ('A' for Active; 'I' for Inactive)
REMARK    1  A    between atoms: C2_2  and  C3_3 
REMARK    2  A    between atoms: C4_4  and  O1_5 
REMARK    3  A    between atoms: O1_5  and  C5_6 
REMARK    4  A    between atoms: C6_8  and  C7_9 
REMARK    5  A    between atoms: C7_9  and  O3_10 
REMARK    6  A    between atoms: O3_10  and  C8_11 
REMARK    7  A    between atoms: C9_14  and  O5_15 
REMARK    8  A    between atoms: C10_17  and  O6_18 
REMARK    9  A    between atoms: C11_20  and  O7_21 
REMARK   10  A    between atoms: C12_23  and  O8_24 
REMARK   11  A    between atoms: C13_26  and  O9_27 
REMARK   12  A    between atoms: O9_27  and  C14_28 
ROOT
HETATM    1  C3  UNL     1      10.988  47.910  24.624  1.00  0.00     0.047 C 
HETATM    2  C4  UNL     1      12.090  47.067  24.230  1.00  0.00     0.164 C 
HETATM    3  C12 UNL     1      13.269  48.026  23.860  1.00  0.00     0.176 C 
HETATM    4  C13 UNL     1      12.771  49.091  22.954  1.00  0.00     0.154 C 
HETATM    5  C18 UNL     1      11.418  48.834  22.338  1.00  0.00     0.044 C 
HETATM    6  C19 UNL     1      10.370  48.624  23.399  1.00  0.00    -0.036 C 
HETATM    7  C20 UNL     1       9.844  49.989  23.787  1.00  0.00     0.015 C 
HETATM    8  C21 UNL     1       9.232  47.853  22.818  1.00  0.00     0.015 C 
ENDROOT
BRANCH   2   9
HETATM    9  O1  UNL     1      12.655  46.122  24.963  1.00  0.00    -0.350 OA
BRANCH   9  10
HETATM   10  C5  UNL     1      12.477  44.822  24.995  1.00  0.00     0.292 C 
HETATM   11  O2  UNL     1      13.598  44.305  24.247  1.00  0.00    -0.348 OA
HETATM   12  C6  UNL     1      13.277  42.990  23.850  1.00  0.00     0.180 C 
HETATM   13  C9  UNL     1      13.443  42.126  25.035  1.00  0.00     0.180 C 
HETATM   14  C10 UNL     1      12.284  42.572  25.970  1.00  0.00     0.183 C 
HETATM   15  C11 UNL     1      12.490  44.064  26.272  1.00  0.00     0.204 C 
BRANCH  12  16
HETATM   16  C7  UNL     1      13.937  42.691  22.576  1.00  0.00     0.215 C 
BRANCH  16  17
HETATM   17  O3  UNL     1      13.721  43.396  21.433  1.00  0.00    -0.304 OA
BRANCH  17  18
HETATM   18  C8  UNL     1      13.875  44.708  21.100  1.00  0.00     0.372 C 
HETATM   19  N1  UNL     1      12.813  45.529  20.611  1.00  0.00    -0.032 NA
HETATM   20  O4  UNL     1      15.009  45.223  21.229  1.00  0.00    -0.242 OA
ENDBRANCH  17  18
ENDBRANCH  16  17
ENDBRANCH  12  16
BRANCH  13  21
HETATM   21  O5  UNL     1      14.631  42.293  25.747  1.00  0.00    -0.390 OA
ATOM     22  H5  UNL     1      15.091  41.494  25.978  1.00  0.00     0.210 HD
ENDBRANCH  13  21
BRANCH  14  23
HETATM   23  O6  UNL     1      11.131  42.440  25.224  1.00  0.00    -0.390 OA
ATOM     24  H6  UNL     1      10.416  42.636  25.818  1.00  0.00     0.210 HD
ENDBRANCH  14  23
BRANCH  15  25
HETATM   25  O7  UNL     1      13.677  44.234  27.000  1.00  0.00    -0.388 OA
ATOM     26  H7  UNL     1      13.631  43.871  27.877  1.00  0.00     0.210 HD
ENDBRANCH  15  25
ENDBRANCH   9  10
ENDBRANCH   2   9
BRANCH   1  27
HETATM   27  C2  UNL     1       9.935  47.470  25.534  1.00  0.00    -0.029 C 
HETATM   28  C1  UNL     1      10.001  47.172  26.811  1.00  0.00     0.007 C 
ENDBRANCH   1  27
BRANCH   3  29
HETATM   29  O8  UNL     1      14.144  47.240  23.076  1.00  0.00    -0.390 OA
ATOM     30  H8  UNL     1      14.508  47.842  22.439  1.00  0.00     0.210 HD
ENDBRANCH   3  29
BRANCH   4  31
HETATM   31  O9  UNL     1      12.730  50.295  23.676  1.00  0.00    -0.376 OA
BRANCH  31  32
HETATM   32  C14 UNL     1      13.475  51.300  23.112  1.00  0.00     0.149 C 
HETATM   33  C15 UNL     1      12.795  52.635  23.298  1.00  0.00     0.061 C 
HETATM   34  C16 UNL     1      13.893  53.648  23.499  1.00  0.00     0.235 C 
HETATM   35  N2  UNL     1      15.136  52.921  23.566  1.00  0.00    -0.073 N 
HETATM   36  C17 UNL     1      14.805  51.530  23.814  1.00  0.00     0.264 C 
ATOM     37  H22 UNL     1      15.721  53.052  22.741  1.00  0.00     0.277 HD
ATOM     38  H21 UNL     1      15.787  53.306  24.250  1.00  0.00     0.277 HD
ENDBRANCH  31  32
ENDBRANCH   4  31
TORSDOF 12
ENDMDL
MODEL 3
REMARK VINA RESULT: -7.501271466      1.917      2.998
REMARK  12 active torsions:
REMARK  status: ('A' for Active; 'I' for Inactive)
REMARK    1  A    between atoms: C2_2  and  C3_3 
REMARK    2  A    between atoms: C4_4  and  O1_5 
REMARK    3  A    between atoms: O1_5  and  C5_6 
REMARK    4  A    between atoms: C6_8  and  C7_9 
REMARK    5  A    between atoms: C7_9  and  O3_10 
REMARK    6  A    between atoms: O3_10  and  C8_11 
REMARK    7  A    between atoms: C9_14  and  O5_15 
REMARK    8  A    between atoms: C10_17  and  O6_18 
REMARK    9  A    between atoms: C11_20  and  O7_21 
REMARK   10  A    between atoms: C12_23  and  O8_24 
REMARK   11  A    between atoms: C13_26  and  O9_27 
REMARK   12  A    between atoms: O9_27  and  C14_28 
ROOT
HETATM    1  C3  UNL     1      10.947  47.336  24.817  1.00  0.00     0.047 C 
HETATM    2  C4  UNL     1      11.747  47.262  23.619  1.00  0.00     0.164 C 
HETATM    3  C12 UNL     1      12.291  45.798  23.543  1.00  0.00     0.176 C 
HETATM    4  C13 UNL     1      12.864  45.416  24.858  1.00  0.00     0.154 C 
HETATM    5  C18 UNL     1      13.108  46.559  25.811  1.00  0.00     0.044 C 
HETATM    6  C19 UNL     1      11.838  47.323  26.082  1.00  0.00    -0.036 C 
HETATM    7  C20 UNL     1      11.131  46.627  27.225  1.00  0.00     0.015 C 
HETATM    8  C21 UNL     1      12.183  48.700  26.538  1.00  0.00     0.015 C 
ENDROOT
BRANCH   2   9
HETATM    9  O1  UNL     1      11.341  47.525  22.389  1.00  0.00    -0.350 OA
BRANCH   9  10
HETATM   10  C5  UNL     1      11.467  48.596  21.640  1.00  0.00     0.292 C 
HETATM   11  O2  UNL     1      12.089  49.556  22.519  1.00  0.00    -0.348 OA
HETATM   12  C6  UNL     1      11.871  50.839  21.975  1.00  0.00     0.180 C 
HETATM   13  C9  UNL     1      12.811  50.998  20.848  1.00  0.00     0.180 C 
HETATM   14  C10 UNL     1      12.271  49.999  19.787  1.00  0.00     0.183 C 
HETATM   15  C11 UNL     1      12.309  48.598  20.417  1.00  0.00     0.204 C 
BRANCH  12  16
HETATM   16  C7  UNL     1      11.790  51.822  23.059  1.00  0.00     0.215 C 
BRANCH  16  17
HETATM   17  O3  UNL     1      12.402  53.036  23.021  1.00  0.00    -0.304 OA
BRANCH  17  18
HETATM   18  C8  UNL     1      13.566  53.515  23.543  1.00  0.00     0.372 C 
HETATM   19  N1  UNL     1      14.818  52.836  23.435  1.00  0.00    -0.032 NA
HETATM   20  O4  UNL     1      13.537  54.609  24.149  1.00  0.00    -0.242 OA
ENDBRANCH  17  18
ENDBRANCH  16  17
ENDBRANCH  12  16
BRANCH  13  21
HETATM   21  O5  UNL     1      14.135  50.645  21.107  1.00  0.00    -0.390 OA
ATOM     22  H5  UNL     1      14.627  50.312  20.365  1.00  0.00     0.210 HD
ENDBRANCH  13  21
BRANCH  14  23
HETATM   23  O6  UNL     1      10.950  50.343  19.586  1.00  0.00    -0.390 OA
ATOM     24  H6  UNL     1      10.470  49.524  19.573  1.00  0.00     0.210 HD
ENDBRANCH  14  23
BRANCH  15  25
HETATM   25  O7  UNL     1      13.642  48.235  20.666  1.00  0.00    -0.388 OA
ATOM     26  H7  UNL     1      13.928  47.492  20.147  1.00  0.00     0.210 HD
ENDBRANCH  15  25
ENDBRANCH   9  10
ENDBRANCH   2   9
BRANCH   1  27
HETATM   27  C2  UNL     1       9.852  48.287  24.985  1.00  0.00    -0.029 C 
HETATM   28  C1  UNL     1       8.574  48.150  24.716  1.00  0.00     0.007 C 
ENDBRANCH   1  27
BRANCH   3  29
HETATM   29  O8  UNL     1      13.390  45.864  22.656  1.00  0.00    -0.390 OA
ATOM     30  H8  UNL     1      13.782  45.000  22.688  1.00  0.00     0.210 HD
ENDBRANCH   3  29
BRANCH   4  31
HETATM   31  O9  UNL     1      11.996  44.489  25.459  1.00  0.00    -0.376 OA
BRANCH  31  32
HETATM   32  C14 UNL     1      12.618  43.335  25.864  1.00  0.00     0.149 C 
HETATM   33  C15 UNL     1      11.622  42.379  26.476  1.00  0.00     0.061 C 
HETATM   34  C16 UNL     1      12.072  40.993  26.090  1.00  0.00     0.235 C 
HETATM   35  N2  UNL     1      13.185  41.141  25.188  1.00  0.00    -0.073 N 
HETATM   36  C17 UNL     1      13.169  42.511  24.709  1.00  0.00     0.264 C 
ATOM     37  H22 UNL     1      14.076  40.874  25.605  1.00  0.00     0.277 HD
ATOM     38  H21 UNL     1      13.182  40.454  24.434  1.00  0.00     0.277 HD
ENDBRANCH  31  32
ENDBRANCH   4  31
TORSDOF 12
ENDMDL
MODEL 4
REMARK VINA RESULT: -7.328516554      2.024      2.663
REMARK  12 active torsions:
REMARK  status: ('A' for Active; 'I' for Inactive)
REMARK    1  A    between atoms: C2_2  and  C3_3 
REMARK    2  A    between atoms: C4_4  and  O1_5 
REMARK    3  A    between atoms: O1_5  and  C5_6 
REMARK    4  A    between atoms: C6_8  and  C7_9 
REMARK    5  A    between atoms: C7_9  and  O3_10 
REMARK    6  A    between atoms: O3_10  and  C8_11 
REMARK    7  A    between atoms: C9_14  and  O5_15 
REMARK    8  A    between atoms: C10_17  and  O6_18 
REMARK    9  A    between atoms: C11_20  and  O7_21 
REMARK   10  A    between atoms: C12_23  and  O8_24 
REMARK   11  A    between atoms: C13_26  and  O9_27 
REMARK   12  A    between atoms: O9_27  and  C14_28 
ROOT
HETATM    1  C3  UNL     1      11.816  47.181  19.962  1.00  0.00     0.047 C 
HETATM    2  C4  UNL     1      12.583  48.174  20.675  1.00  0.00     0.164 C 
HETATM    3  C12 UNL     1      13.339  47.412  21.813  1.00  0.00     0.176 C 
HETATM    4  C13 UNL     1      12.385  46.533  22.535  1.00  0.00     0.154 C 
HETATM    5  C18 UNL     1      10.925  46.811  22.271  1.00  0.00     0.044 C 
HETATM    6  C19 UNL     1      10.609  46.704  20.802  1.00  0.00    -0.036 C 
HETATM    7  C20 UNL     1      10.301  45.251  20.515  1.00  0.00     0.015 C 
HETATM    8  C21 UNL     1       9.377  47.491  20.508  1.00  0.00     0.015 C 
ENDROOT
BRANCH   2   9
HETATM    9  O1  UNL     1      13.497  48.978  20.158  1.00  0.00    -0.350 OA
BRANCH   9  10
HETATM   10  C5  UNL     1      13.434  50.230  19.768  1.00  0.00     0.292 C 
HETATM   11  O2  UNL     1      14.244  50.931  20.735  1.00  0.00    -0.348 OA
HETATM   12  C6  UNL     1      13.895  52.296  20.676  1.00  0.00     0.180 C 
HETATM   13  C9  UNL     1      14.536  52.857  19.471  1.00  0.00     0.180 C 
HETATM   14  C10 UNL     1      13.762  52.180  18.305  1.00  0.00     0.183 C 
HETATM   15  C11 UNL     1      13.957  50.662  18.447  1.00  0.00     0.204 C 
BRANCH  12  16
HETATM   16  C7  UNL     1      14.072  52.902  21.999  1.00  0.00     0.215 C 
BRANCH  16  17
HETATM   17  O3  UNL     1      15.173  52.707  22.774  1.00  0.00    -0.304 OA
BRANCH  17  18
HETATM   18  C8  UNL     1      15.547  51.722  23.638  1.00  0.00     0.372 C 
HETATM   19  N1  UNL     1      14.641  50.762  24.184  1.00  0.00    -0.032 NA
HETATM   20  O4  UNL     1      16.752  51.654  23.972  1.00  0.00    -0.242 OA
ENDBRANCH  17  18
ENDBRANCH  16  17
ENDBRANCH  12  16
BRANCH  13  21
HETATM   21  O5  UNL     1      15.885  52.547  19.301  1.00  0.00    -0.390 OA
ATOM     22  H5  UNL     1      16.212  52.599  18.410  1.00  0.00     0.210 HD
ENDBRANCH  13  21
BRANCH  14  23
HETATM   23  O6  UNL     1      12.430  52.464  18.526  1.00  0.00    -0.390 OA
ATOM     24  H6  UNL     1      12.419  53.243  19.069  1.00  0.00     0.210 HD
ENDBRANCH  14  23
BRANCH  15  25
HETATM   25  O7  UNL     1      15.312  50.347  18.263  1.00  0.00    -0.388 OA
ATOM     26  H7  UNL     1      15.458  49.728  17.557  1.00  0.00     0.210 HD
ENDBRANCH  15  25
ENDBRANCH   9  10
ENDBRANCH   2   9
BRANCH   1  27
HETATM   27  C2  UNL     1      11.427  47.331  18.563  1.00  0.00    -0.029 C 
HETATM   28  C1  UNL     1      11.633  46.527  17.545  1.00  0.00     0.007 C 
ENDBRANCH   1  27
BRANCH   3  29
HETATM   29  O8  UNL     1      13.705  48.415  22.740  1.00  0.00    -0.390 OA
ATOM     30  H8  UNL     1      14.521  48.111  23.119  1.00  0.00     0.210 HD
ENDBRANCH   3  29
BRANCH   4  31
HETATM   31  O9  UNL     1      12.672  45.202  22.191  1.00  0.00    -0.376 OA
BRANCH  31  32
HETATM   32  C14 UNL     1      12.521  44.320  23.232  1.00  0.00     0.149 C 
HETATM   33  C15 UNL     1      13.455  43.144  23.073  1.00  0.00     0.061 C 
HETATM   34  C16 UNL     1      13.890  42.757  24.463  1.00  0.00     0.235 C 
HETATM   35  N2  UNL     1      13.352  43.740  25.369  1.00  0.00    -0.073 N 
HETATM   36  C17 UNL     1      12.965  44.889  24.571  1.00  0.00     0.264 C 
ATOM     37  H22 UNL     1      12.592  43.379  25.945  1.00  0.00     0.277 HD
ATOM     38  H21 UNL     1      13.991  43.976  26.128  1.00  0.00     0.277 HD
ENDBRANCH  31  32
ENDBRANCH   4  31
TORSDOF 12
ENDMDL
MODEL 5
REMARK VINA RESULT: -7.244418984      2.365      7.210
REMARK  12 active torsions:
REMARK  status: ('A' for Active; 'I' for Inactive)
REMARK    1  A    between atoms: C2_2  and  C3_3 
REMARK    2  A    between atoms: C4_4  and  O1_5 
REMARK    3  A    between atoms: O1_5  and  C5_6 
REMARK    4  A    between atoms: C6_8  and  C7_9 
REMARK    5  A    between atoms: C7_9  and  O3_10 
REMARK    6  A    between atoms: O3_10  and  C8_11 
REMARK    7  A    between atoms: C9_14  and  O5_15 
REMARK    8  A    between atoms: C10_17  and  O6_18 
REMARK    9  A    between atoms: C11_20  and  O7_21 
REMARK   10  A    between atoms: C12_23  and  O8_24 
REMARK   11  A    between atoms: C13_26  and  O9_27 
REMARK   12  A    between atoms: O9_27  and  C14_28 
ROOT
HETATM    1  C3  UNL     1      10.633  50.672  22.613  1.00  0.00     0.047 C 
HETATM    2  C4  UNL     1      11.746  50.084  23.318  1.00  0.00     0.164 C 
HETATM    3  C12 UNL     1      13.014  50.895  22.895  1.00  0.00     0.176 C 
HETATM    4  C13 UNL     1      13.043  51.028  21.416  1.00  0.00     0.154 C 
HETATM    5  C18 UNL     1      12.106  50.112  20.668  1.00  0.00     0.044 C 
HETATM    6  C19 UNL     1      10.680  50.316  21.108  1.00  0.00    -0.036 C 
HETATM    7  C20 UNL     1      10.111  51.445  20.276  1.00  0.00     0.015 C 
HETATM    8  C21 UNL     1       9.892  49.088  20.799  1.00  0.00     0.015 C 
ENDROOT
BRANCH   2   9
HETATM    9  O1  UNL     1      11.863  49.955  24.629  1.00  0.00    -0.350 OA
BRANCH   9  10
HETATM   10  C5  UNL     1      11.886  48.894  25.401  1.00  0.00     0.292 C 
HETATM   11  O2  UNL     1      12.695  47.953  24.665  1.00  0.00    -0.348 OA
HETATM   12  C6  UNL     1      12.427  46.666  25.176  1.00  0.00     0.180 C 
HETATM   13  C9  UNL     1      13.146  46.549  26.459  1.00  0.00     0.180 C 
HETATM   14  C10 UNL     1      12.383  47.534  27.389  1.00  0.00     0.183 C 
HETATM   15  C11 UNL     1      12.486  48.931  26.759  1.00  0.00     0.204 C 
BRANCH  12  16
HETATM   16  C7  UNL     1      12.584  45.675  24.108  1.00  0.00     0.215 C 
BRANCH  16  17
HETATM   17  O3  UNL     1      12.652  45.996  22.788  1.00  0.00    -0.304 OA
BRANCH  17  18
HETATM   18  C8  UNL     1      13.687  46.258  21.940  1.00  0.00     0.372 C 
HETATM   19  N1  UNL     1      14.562  45.253  21.427  1.00  0.00    -0.032 NA
HETATM   20  O4  UNL     1      13.879  47.444  21.591  1.00  0.00    -0.242 OA
ENDBRANCH  17  18
ENDBRANCH  16  17
ENDBRANCH  12  16
BRANCH  13  21
HETATM   21  O5  UNL     1      14.482  46.952  26.445  1.00  0.00    -0.390 OA
ATOM     22  H5  UNL     1      15.071  46.447  26.994  1.00  0.00     0.210 HD
ENDBRANCH  13  21
BRANCH  14  23
HETATM   23  O6  UNL     1      11.060  47.140  27.346  1.00  0.00    -0.390 OA
ATOM     24  H6  UNL     1      10.834  46.901  28.236  1.00  0.00     0.210 HD
ENDBRANCH  14  23
BRANCH  15  25
HETATM   25  O7  UNL     1      13.828  49.344  26.757  1.00  0.00    -0.388 OA
ATOM     26  H7  UNL     1      14.427  48.658  26.487  1.00  0.00     0.210 HD
ENDBRANCH  15  25
ENDBRANCH   9  10
ENDBRANCH   2   9
BRANCH   1  27
HETATM   27  C2  UNL     1       9.259  50.609  23.101  1.00  0.00    -0.029 C 
HETATM   28  C1  UNL     1       8.653  51.354  23.997  1.00  0.00     0.007 C 
ENDBRANCH   1  27
BRANCH   3  29
HETATM   29  O8  UNL     1      14.106  50.058  23.221  1.00  0.00    -0.390 OA
ATOM     30  H8  UNL     1      14.869  50.621  23.169  1.00  0.00     0.210 HD
ENDBRANCH   3  29
BRANCH   4  31
HETATM   31  O9  UNL     1      12.743  52.361  21.092  1.00  0.00    -0.376 OA
BRANCH  31  32
HETATM   32  C14 UNL     1      13.526  52.872  20.088  1.00  0.00     0.149 C 
HETATM   33  C15 UNL     1      14.913  52.276  20.137  1.00  0.00     0.061 C 
HETATM   34  C16 UNL     1      15.368  52.138  18.707  1.00  0.00     0.235 C 
HETATM   35  N2  UNL     1      14.255  52.502  17.868  1.00  0.00    -0.073 N 
HETATM   36  C17 UNL     1      13.064  52.463  18.697  1.00  0.00     0.264 C 
ATOM     37  H22 UNL     1      14.385  53.397  17.397  1.00  0.00     0.277 HD
ATOM     38  H21 UNL     1      14.179  51.924  17.031  1.00  0.00     0.277 HD
ENDBRANCH  31  32
ENDBRANCH   4  31
TORSDOF 12
ENDMDL
