MODEL 1
REMARK VINA RESULT: -7.843214835      0.000      0.000
REMARK  13 active torsions:
REMARK  status: ('A' for Active; 'I' for Inactive)
REMARK    1  A    between atoms: O1_2  and  C2_3 
REMARK    2  A    between atoms: C5_6  and  C6_7 
REMARK    3  A    between atoms: C7_8  and  C8_9 
REMARK    4  A    between atoms: C8_9  and  O2_10 
REMARK    5  A    between atoms: O2_10  and  C9_11 
REMARK    6  A    between atoms: C13_15  and  N1_16 
REMARK    7  A    between atoms: C15_22  and  O4_23 
REMARK    8  A    between atoms: O4_23  and  C16_24 
REMARK    9  A    between atoms: C17_26  and  C18_27 
REMARK   10  A    between atoms: C18_27  and  N2_28 
REMARK   11  A    between atoms: C19_32  and  O6_33 
REMARK   12  A    between atoms: C20_35  and  N3_36 
REMARK   13  A    between atoms: C21_40  and  O7_41 
ROOT
HETATM    1  C6  UNL     1      12.004  49.650  21.507  1.00  0.00     0.081 C 
HETATM    2  C7  UNL     1      10.584  49.994  21.173  1.00  0.00     0.156 C 
HETATM    3  O3  UNL     1       9.888  50.050  22.383  1.00  0.00    -0.380 OA
HETATM    4  C14 UNL     1      10.798  50.549  23.311  1.00  0.00     0.201 C 
HETATM    5  C15 UNL     1      12.051  49.781  22.986  1.00  0.00     0.159 C 
ENDROOT
BRANCH   5   6
HETATM    6  O4  UNL     1      11.922  48.530  23.616  1.00  0.00    -0.350 OA
BRANCH   6   7
HETATM    7  C16 UNL     1      11.515  48.640  24.934  1.00  0.00     0.291 C 
HETATM    8  O5  UNL     1      10.705  47.579  25.331  1.00  0.00    -0.349 OA
HETATM    9  C17 UNL     1      11.327  46.350  25.241  1.00  0.00     0.181 C 
HETATM   10  C19 UNL     1      12.749  46.482  25.617  1.00  0.00     0.182 C 
HETATM   11  C20 UNL     1      12.987  47.590  26.625  1.00  0.00     0.247 C 
HETATM   12  C21 UNL     1      12.631  48.894  25.906  1.00  0.00     0.206 C 
BRANCH   9  13
HETATM   13  C18 UNL     1      10.537  45.360  26.040  1.00  0.00     0.264 C 
BRANCH  13  14
HETATM   14  N2  UNL     1      10.710  44.001  25.644  1.00  0.00    -0.077 N 
ATOM     15  H23 UNL     1      11.699  43.799  25.493  1.00  0.00     0.274 HD
ATOM     16  H22 UNL     1      10.521  43.377  26.429  1.00  0.00     0.274 HD
ATOM     17  H21 UNL     1      10.163  43.720  24.830  1.00  0.00     0.274 HD
ENDBRANCH  13  14
ENDBRANCH   9  13
BRANCH  10  18
HETATM   18  O6  UNL     1      13.360  45.294  26.007  1.00  0.00    -0.391 OA
ATOM     19  H6  UNL     1      14.286  45.369  26.201  1.00  0.00     0.210 HD
ENDBRANCH  10  18
BRANCH  11  20
HETATM   20  N3  UNL     1      12.248  47.420  27.838  1.00  0.00    -0.070 N 
ATOM     21  H33 UNL     1      11.646  48.225  28.010  1.00  0.00     0.274 HD
ATOM     22  H32 UNL     1      11.537  46.697  27.730  1.00  0.00     0.274 HD
ATOM     23  H31 UNL     1      12.839  47.230  28.647  1.00  0.00     0.274 HD
ENDBRANCH  11  20
BRANCH  12  24
HETATM   24  O7  UNL     1      13.792  49.363  25.330  1.00  0.00    -0.388 OA
ATOM     25  H7  UNL     1      14.581  48.920  25.622  1.00  0.00     0.210 HD
ENDBRANCH  12  24
ENDBRANCH   6   7
ENDBRANCH   5   6
BRANCH   1  26
HETATM   26  C5  UNL     1      13.035  50.361  20.777  1.00  0.00    -0.049 A 
HETATM   27  C4  UNL     1      13.564  49.878  19.605  1.00  0.00     0.010 A 
HETATM   28  C3  UNL     1      14.568  50.576  18.920  1.00  0.00     0.037 A 
HETATM   29  C2  UNL     1      15.042  51.774  19.423  1.00  0.00     0.068 A 
HETATM   30  C23 UNL     1      14.521  52.276  20.601  1.00  0.00     0.037 A 
HETATM   31  C22 UNL     1      13.536  51.558  21.241  1.00  0.00     0.010 A 
BRANCH  29  32
HETATM   32  O1  UNL     1      16.043  52.467  18.737  1.00  0.00    -0.356 OA
HETATM   33  C1  UNL     1      16.483  52.113  17.461  1.00  0.00     0.210 C 
ENDBRANCH  29  32
ENDBRANCH   1  26
BRANCH   2  34
HETATM   34  C8  UNL     1      10.363  51.258  20.432  1.00  0.00     0.200 C 
BRANCH  34  35
HETATM   35  O2  UNL     1       9.614  50.907  19.279  1.00  0.00    -0.381 OA
BRANCH  35  36
HETATM   36  C9  UNL     1       9.809  51.806  18.260  1.00  0.00     0.151 C 
HETATM   37  C10 UNL     1       8.887  52.989  18.498  1.00  0.00     0.034 C 
HETATM   38  C11 UNL     1       9.585  54.081  17.709  1.00  0.00     0.005 C 
HETATM   39  C12 UNL     1      11.024  53.893  18.132  1.00  0.00     0.035 C 
HETATM   40  C13 UNL     1      11.209  52.397  18.266  1.00  0.00     0.212 C 
BRANCH  40  41
HETATM   41  N1  UNL     1      11.959  51.918  17.122  1.00  0.00    -0.073 N 
ATOM     42  H13 UNL     1      12.418  51.028  17.314  1.00  0.00     0.274 HD
ATOM     43  H12 UNL     1      11.347  51.612  16.367  1.00  0.00     0.274 HD
ATOM     44  H11 UNL     1      12.621  52.629  16.813  1.00  0.00     0.274 HD
ENDBRANCH  40  41
ENDBRANCH  35  36
ENDBRANCH  34  35
ENDBRANCH   2  34
TORSDOF 13
ENDMDL
MODEL 2
REMARK VINA RESULT: -7.401700380      2.186      8.428
REMARK  13 active torsions:
REMARK  status: ('A' for Active; 'I' for Inactive)
REMARK    1  A    between atoms: O1_2  and  C2_3 
REMARK    2  A    between atoms: C5_6  and  C6_7 
REMARK    3  A    between atoms: C7_8  and  C8_9 
REMARK    4  A    between atoms: C8_9  and  O2_10 
REMARK    5  A    between atoms: O2_10  and  C9_11 
REMARK    6  A    between atoms: C13_15  and  N1_16 
REMARK    7  A    between atoms: C15_22  and  O4_23 
REMARK    8  A    between atoms: O4_23  and  C16_24 
REMARK    9  A    between atoms: C17_26  and  C18_27 
REMARK   10  A    between atoms: C18_27  and  N2_28 
REMARK   11  A    between atoms: C19_32  and  O6_33 
REMARK   12  A    between atoms: C20_35  and  N3_36 
REMARK   13  A    between atoms: C21_40  and  O7_41 
ROOT
HETATM    1  C6  UNL     1      12.466  49.873  23.041  1.00  0.00     0.081 C 
HETATM    2  C7  UNL     1      13.397  49.235  24.027  1.00  0.00     0.156 C 
HETATM    3  O3  UNL     1      14.576  49.983  24.011  1.00  0.00    -0.380 OA
HETATM    4  C14 UNL     1      14.177  51.299  23.786  1.00  0.00     0.201 C 
HETATM    5  C15 UNL     1      13.147  51.148  22.698  1.00  0.00     0.159 C 
ENDROOT
BRANCH   5   6
HETATM    6  O4  UNL     1      13.861  51.040  21.492  1.00  0.00    -0.350 OA
BRANCH   6   7
HETATM    7  C16 UNL     1      13.479  51.992  20.564  1.00  0.00     0.291 C 
HETATM    8  O5  UNL     1      14.569  52.604  19.949  1.00  0.00    -0.349 OA
HETATM    9  C17 UNL     1      15.376  51.722  19.259  1.00  0.00     0.181 C 
HETATM   10  C19 UNL     1      14.545  50.686  18.613  1.00  0.00     0.182 C 
HETATM   11  C20 UNL     1      13.163  51.192  18.242  1.00  0.00     0.247 C 
HETATM   12  C21 UNL     1      12.465  51.511  19.566  1.00  0.00     0.206 C 
BRANCH   9  13
HETATM   13  C18 UNL     1      16.258  52.508  18.338  1.00  0.00     0.264 C 
BRANCH  13  14
HETATM   14  N2  UNL     1      17.343  51.771  17.778  1.00  0.00    -0.077 N 
ATOM     15  H23 UNL     1      17.004  50.901  17.366  1.00  0.00     0.274 HD
ATOM     16  H22 UNL     1      17.693  52.238  16.941  1.00  0.00     0.274 HD
ATOM     17  H21 UNL     1      18.109  51.582  18.423  1.00  0.00     0.274 HD
ENDBRANCH  13  14
ENDBRANCH   9  13
BRANCH  10  18
HETATM   18  O6  UNL     1      15.154  50.033  17.546  1.00  0.00    -0.391 OA
ATOM     19  H6  UNL     1      16.033  49.719  17.723  1.00  0.00     0.210 HD
ENDBRANCH  10  18
BRANCH  11  20
HETATM   20  N3  UNL     1      13.191  52.317  17.359  1.00  0.00    -0.070 N 
ATOM     21  H33 UNL     1      13.800  53.049  17.724  1.00  0.00     0.274 HD
ATOM     22  H32 UNL     1      13.693  52.091  16.501  1.00  0.00     0.274 HD
ATOM     23  H31 UNL     1      12.264  52.688  17.150  1.00  0.00     0.274 HD
ENDBRANCH  11  20
BRANCH  12  24
HETATM   24  O7  UNL     1      11.790  50.371  19.947  1.00  0.00    -0.388 OA
ATOM     25  H7  UNL     1      10.965  50.533  20.391  1.00  0.00     0.210 HD
ENDBRANCH  12  24
ENDBRANCH   6   7
ENDBRANCH   5   6
BRANCH   1  26
HETATM   26  C5  UNL     1      11.076  49.986  23.437  1.00  0.00    -0.049 A 
HETATM   27  C4  UNL     1      10.277  48.883  23.620  1.00  0.00     0.010 A 
HETATM   28  C3  UNL     1       8.932  49.015  23.993  1.00  0.00     0.037 A 
HETATM   29  C2  UNL     1       8.389  50.273  24.184  1.00  0.00     0.068 A 
HETATM   30  C23 UNL     1       9.178  51.394  24.004  1.00  0.00     0.037 A 
HETATM   31  C22 UNL     1      10.494  51.218  23.638  1.00  0.00     0.010 A 
BRANCH  29  32
HETATM   32  O1  UNL     1       7.049  50.401  24.555  1.00  0.00    -0.356 OA
HETATM   33  C1  UNL     1       6.362  51.616  24.536  1.00  0.00     0.210 C 
ENDBRANCH  29  32
ENDBRANCH   1  26
BRANCH   2  34
HETATM   34  C8  UNL     1      12.914  49.130  25.425  1.00  0.00     0.200 C 
BRANCH  34  35
HETATM   35  O2  UNL     1      13.679  48.094  26.023  1.00  0.00    -0.381 OA
BRANCH  35  36
HETATM   36  C9  UNL     1      12.874  47.170  26.642  1.00  0.00     0.151 C 
HETATM   37  C10 UNL     1      11.541  47.834  26.937  1.00  0.00     0.034 C 
HETATM   38  C11 UNL     1      10.623  46.631  27.055  1.00  0.00     0.005 C 
HETATM   39  C12 UNL     1      11.035  45.813  25.852  1.00  0.00     0.035 C 
HETATM   40  C13 UNL     1      12.533  45.998  25.738  1.00  0.00     0.212 C 
BRANCH  40  41
HETATM   41  N1  UNL     1      13.186  44.794  26.211  1.00  0.00    -0.073 N 
ATOM     42  H13 UNL     1      13.376  44.140  25.452  1.00  0.00     0.274 HD
ATOM     43  H12 UNL     1      14.148  44.970  26.501  1.00  0.00     0.274 HD
ATOM     44  H11 UNL     1      12.637  44.364  26.955  1.00  0.00     0.274 HD
ENDBRANCH  40  41
ENDBRANCH  35  36
ENDBRANCH  34  35
ENDBRANCH   2  34
TORSDOF 13
ENDMDL
MODEL 3
REMARK VINA RESULT: -7.379615734      1.503      2.278
REMARK  13 active torsions:
REMARK  status: ('A' for Active; 'I' for Inactive)
REMARK    1  A    between atoms: O1_2  and  C2_3 
REMARK    2  A    between atoms: C5_6  and  C6_7 
REMARK    3  A    between atoms: C7_8  and  C8_9 
REMARK    4  A    between atoms: C8_9  and  O2_10 
REMARK    5  A    between atoms: O2_10  and  C9_11 
REMARK    6  A    between atoms: C13_15  and  N1_16 
REMARK    7  A    between atoms: C15_22  and  O4_23 
REMARK    8  A    between atoms: O4_23  and  C16_24 
REMARK    9  A    between atoms: C17_26  and  C18_27 
REMARK   10  A    between atoms: C18_27  and  N2_28 
REMARK   11  A    between atoms: C19_32  and  O6_33 
REMARK   12  A    between atoms: C20_35  and  N3_36 
REMARK   13  A    between atoms: C21_40  and  O7_41 
ROOT
HETATM    1  C6  UNL     1      11.865  49.675  21.530  1.00  0.00     0.081 C 
HETATM    2  C7  UNL     1      10.542  50.379  21.531  1.00  0.00     0.156 C 
HETATM    3  O3  UNL     1       9.991  50.202  22.801  1.00  0.00    -0.380 OA
HETATM    4  C14 UNL     1      11.073  50.202  23.678  1.00  0.00     0.201 C 
HETATM    5  C15 UNL     1      12.075  49.336  22.962  1.00  0.00     0.159 C 
ENDROOT
BRANCH   5   6
HETATM    6  O4  UNL     1      11.712  48.005  23.233  1.00  0.00    -0.350 OA
BRANCH   6   7
HETATM    7  C16 UNL     1      12.753  47.271  23.772  1.00  0.00     0.291 C 
HETATM    8  O5  UNL     1      12.734  47.264  25.165  1.00  0.00    -0.349 OA
HETATM    9  C17 UNL     1      11.584  46.713  25.695  1.00  0.00     0.181 C 
HETATM   10  C19 UNL     1      11.147  45.574  24.862  1.00  0.00     0.182 C 
HETATM   11  C20 UNL     1      12.304  44.871  24.179  1.00  0.00     0.247 C 
HETATM   12  C21 UNL     1      12.896  45.889  23.202  1.00  0.00     0.206 C 
BRANCH   9  13
HETATM   13  C18 UNL     1      11.831  46.399  27.138  1.00  0.00     0.264 C 
BRANCH  13  14
HETATM   14  N2  UNL     1      10.659  46.095  27.891  1.00  0.00    -0.077 N 
ATOM     15  H23 UNL     1       9.931  46.787  27.709  1.00  0.00     0.274 HD
ATOM     16  H22 UNL     1      10.205  45.260  27.519  1.00  0.00     0.274 HD
ATOM     17  H21 UNL     1      10.809  45.997  28.895  1.00  0.00     0.274 HD
ENDBRANCH  13  14
ENDBRANCH   9  13
BRANCH  10  18
HETATM   18  O6  UNL     1      10.306  44.672  25.506  1.00  0.00    -0.391 OA
ATOM     19  H6  UNL     1       9.522  44.445  25.021  1.00  0.00     0.210 HD
ENDBRANCH  10  18
BRANCH  11  20
HETATM   20  N3  UNL     1      13.281  44.368  25.095  1.00  0.00    -0.070 N 
ATOM     21  H33 UNL     1      14.051  43.923  24.595  1.00  0.00     0.274 HD
ATOM     22  H32 UNL     1      13.787  45.133  25.540  1.00  0.00     0.274 HD
ATOM     23  H31 UNL     1      12.890  43.736  25.794  1.00  0.00     0.274 HD
ENDBRANCH  11  20
BRANCH  12  24
HETATM   24  O7  UNL     1      12.257  45.704  21.995  1.00  0.00    -0.388 OA
ATOM     25  H7  UNL     1      12.790  45.902  21.234  1.00  0.00     0.210 HD
ENDBRANCH  12  24
ENDBRANCH   6   7
ENDBRANCH   5   6
BRANCH   1  26
HETATM   26  C5  UNL     1      12.965  50.355  20.875  1.00  0.00    -0.049 A 
HETATM   27  C4  UNL     1      13.637  51.397  21.468  1.00  0.00     0.010 A 
HETATM   28  C3  UNL     1      14.691  52.047  20.812  1.00  0.00     0.037 A 
HETATM   29  C2  UNL     1      15.071  51.642  19.546  1.00  0.00     0.068 A 
HETATM   30  C23 UNL     1      14.407  50.596  18.933  1.00  0.00     0.037 A 
HETATM   31  C22 UNL     1      13.377  49.984  19.614  1.00  0.00     0.010 A 
BRANCH  29  32
HETATM   32  O1  UNL     1      16.123  52.293  18.895  1.00  0.00    -0.356 OA
HETATM   33  C1  UNL     1      16.520  51.990  17.592  1.00  0.00     0.210 C 
ENDBRANCH  29  32
ENDBRANCH   1  26
BRANCH   2  34
HETATM   34  C8  UNL     1      10.560  51.827  21.212  1.00  0.00     0.200 C 
BRANCH  34  35
HETATM   35  O2  UNL     1       9.435  52.055  20.378  1.00  0.00    -0.381 OA
BRANCH  35  36
HETATM   36  C9  UNL     1       9.809  52.562  19.158  1.00  0.00     0.151 C 
HETATM   37  C10 UNL     1      11.254  53.017  19.264  1.00  0.00     0.034 C 
HETATM   38  C11 UNL     1      11.688  52.990  17.810  1.00  0.00     0.005 C 
HETATM   39  C12 UNL     1      11.139  51.658  17.352  1.00  0.00     0.035 C 
HETATM   40  C13 UNL     1       9.814  51.504  18.067  1.00  0.00     0.212 C 
BRANCH  40  41
HETATM   41  N1  UNL     1       8.745  51.756  17.121  1.00  0.00    -0.073 N 
ATOM     42  H13 UNL     1       7.953  52.228  17.558  1.00  0.00     0.274 HD
ATOM     43  H12 UNL     1       8.996  52.478  16.446  1.00  0.00     0.274 HD
ATOM     44  H11 UNL     1       8.466  50.888  16.665  1.00  0.00     0.274 HD
ENDBRANCH  40  41
ENDBRANCH  35  36
ENDBRANCH  34  35
ENDBRANCH   2  34
TORSDOF 13
ENDMDL
MODEL 4
REMARK VINA RESULT: -7.321411363      3.717      8.441
REMARK  13 active torsions:
REMARK  status: ('A' for Active; 'I' for Inactive)
REMARK    1  A    between atoms: O1_2  and  C2_3 
REMARK    2  A    between atoms: C5_6  and  C6_7 
REMARK    3  A    between atoms: C7_8  and  C8_9 
REMARK    4  A    between atoms: C8_9  and  O2_10 
REMARK    5  A    between atoms: O2_10  and  C9_11 
REMARK    6  A    between atoms: C13_15  and  N1_16 
REMARK    7  A    between atoms: C15_22  and  O4_23 
REMARK    8  A    between atoms: O4_23  and  C16_24 
REMARK    9  A    between atoms: C17_26  and  C18_27 
REMARK   10  A    between atoms: C18_27  and  N2_28 
REMARK   11  A    between atoms: C19_32  and  O6_33 
REMARK   12  A    between atoms: C20_35  and  N3_36 
REMARK   13  A    between atoms: C21_40  and  O7_41 
ROOT
HETATM    1  C6  UNL     1      13.329  47.186  21.988  1.00  0.00     0.081 C 
HETATM    2  C7  UNL     1      13.126  47.299  23.469  1.00  0.00     0.156 C 
HETATM    3  O3  UNL     1      12.444  48.498  23.691  1.00  0.00    -0.380 OA
HETATM    4  C14 UNL     1      11.597  48.652  22.597  1.00  0.00     0.201 C 
HETATM    5  C15 UNL     1      12.487  48.280  21.440  1.00  0.00     0.159 C 
ENDROOT
BRANCH   5   6
HETATM    6  O4  UNL     1      13.254  49.422  21.149  1.00  0.00    -0.350 OA
BRANCH   6   7
HETATM    7  C16 UNL     1      12.485  50.569  21.064  1.00  0.00     0.291 C 
HETATM    8  O5  UNL     1      12.943  51.580  21.905  1.00  0.00    -0.349 OA
HETATM    9  C17 UNL     1      14.234  51.983  21.626  1.00  0.00     0.181 C 
HETATM   10  C19 UNL     1      14.459  51.965  20.167  1.00  0.00     0.182 C 
HETATM   11  C20 UNL     1      13.192  52.237  19.377  1.00  0.00     0.247 C 
HETATM   12  C21 UNL     1      12.259  51.058  19.662  1.00  0.00     0.206 C 
BRANCH   9  13
HETATM   13  C18 UNL     1      14.476  53.298  22.300  1.00  0.00     0.264 C 
BRANCH  13  14
HETATM   14  N2  UNL     1      13.566  53.605  23.354  1.00  0.00    -0.077 N 
ATOM     15  H23 UNL     1      13.312  52.757  23.861  1.00  0.00     0.274 HD
ATOM     16  H22 UNL     1      14.043  54.117  24.096  1.00  0.00     0.274 HD
ATOM     17  H21 UNL     1      12.727  54.107  23.062  1.00  0.00     0.274 HD
ENDBRANCH  13  14
ENDBRANCH   9  13
BRANCH  10  18
HETATM   18  O6  UNL     1      15.515  52.758  19.731  1.00  0.00    -0.391 OA
ATOM     19  H6  UNL     1      16.159  52.305  19.199  1.00  0.00     0.210 HD
ENDBRANCH  10  18
BRANCH  11  20
HETATM   20  N3  UNL     1      12.589  53.495  19.691  1.00  0.00    -0.070 N 
ATOM     21  H33 UNL     1      13.301  54.200  19.882  1.00  0.00     0.274 HD
ATOM     22  H32 UNL     1      12.160  53.907  18.863  1.00  0.00     0.274 HD
ATOM     23  H31 UNL     1      11.918  53.440  20.457  1.00  0.00     0.274 HD
ENDBRANCH  11  20
BRANCH  12  24
HETATM   24  O7  UNL     1      12.496  50.115  18.685  1.00  0.00    -0.388 OA
ATOM     25  H7  UNL     1      12.991  50.437  17.941  1.00  0.00     0.210 HD
ENDBRANCH  12  24
ENDBRANCH   6   7
ENDBRANCH   5   6
BRANCH   1  26
HETATM   26  C5  UNL     1      13.124  45.877  21.401  1.00  0.00    -0.049 A 
HETATM   27  C4  UNL     1      11.898  45.471  20.933  1.00  0.00     0.010 A 
HETATM   28  C3  UNL     1      11.718  44.196  20.377  1.00  0.00     0.037 A 
HETATM   29  C2  UNL     1      12.788  43.323  20.293  1.00  0.00     0.068 A 
HETATM   30  C23 UNL     1      14.029  43.714  20.760  1.00  0.00     0.037 A 
HETATM   31  C22 UNL     1      14.161  44.975  21.298  1.00  0.00     0.010 A 
BRANCH  29  32
HETATM   32  O1  UNL     1      12.605  42.053  19.740  1.00  0.00    -0.356 OA
HETATM   33  C1  UNL     1      13.293  40.921  20.180  1.00  0.00     0.210 C 
ENDBRANCH  29  32
ENDBRANCH   1  26
BRANCH   2  34
HETATM   34  C8  UNL     1      12.384  46.196  24.124  1.00  0.00     0.200 C 
BRANCH  34  35
HETATM   35  O2  UNL     1      13.366  45.390  24.757  1.00  0.00    -0.381 OA
BRANCH  35  36
HETATM   36  C9  UNL     1      12.885  44.133  25.028  1.00  0.00     0.151 C 
HETATM   37  C10 UNL     1      11.532  43.995  24.355  1.00  0.00     0.034 C 
HETATM   38  C11 UNL     1      11.405  42.487  24.234  1.00  0.00     0.005 C 
HETATM   39  C12 UNL     1      12.772  42.107  23.712  1.00  0.00     0.035 C 
HETATM   40  C13 UNL     1      13.740  43.038  24.411  1.00  0.00     0.212 C 
BRANCH  40  41
HETATM   41  N1  UNL     1      14.430  42.297  25.448  1.00  0.00    -0.073 N 
ATOM     42  H13 UNL     1      14.988  41.535  25.063  1.00  0.00     0.274 HD
ATOM     43  H12 UNL     1      15.185  42.840  25.866  1.00  0.00     0.274 HD
ATOM     44  H11 UNL     1      13.765  41.968  26.147  1.00  0.00     0.274 HD
ENDBRANCH  40  41
ENDBRANCH  35  36
ENDBRANCH  34  35
ENDBRANCH   2  34
TORSDOF 13
ENDMDL
MODEL 5
REMARK VINA RESULT: -7.117594291      3.271      5.957
REMARK  13 active torsions:
REMARK  status: ('A' for Active; 'I' for Inactive)
REMARK    1  A    between atoms: O1_2  and  C2_3 
REMARK    2  A    between atoms: C5_6  and  C6_7 
REMARK    3  A    between atoms: C7_8  and  C8_9 
REMARK    4  A    between atoms: C8_9  and  O2_10 
REMARK    5  A    between atoms: O2_10  and  C9_11 
REMARK    6  A    between atoms: C13_15  and  N1_16 
REMARK    7  A    between atoms: C15_22  and  O4_23 
REMARK    8  A    between atoms: O4_23  and  C16_24 
REMARK    9  A    between atoms: C17_26  and  C18_27 
REMARK   10  A    between atoms: C18_27  and  N2_28 
REMARK   11  A    between atoms: C19_32  and  O6_33 
REMARK   12  A    between atoms: C20_35  and  N3_36 
REMARK   13  A    between atoms: C21_40  and  O7_41 
ROOT
HETATM    1  C6  UNL     1      12.079  47.588  24.775  1.00  0.00     0.081 C 
HETATM    2  C7  UNL     1      13.250  48.519  24.870  1.00  0.00     0.156 C 
HETATM    3  O3  UNL     1      14.282  47.947  24.124  1.00  0.00    -0.380 OA
HETATM    4  C14 UNL     1      13.657  47.304  23.058  1.00  0.00     0.201 C 
HETATM    5  C15 UNL     1      12.492  46.622  23.724  1.00  0.00     0.159 C 
ENDROOT
BRANCH   5   6
HETATM    6  O4  UNL     1      12.998  45.437  24.287  1.00  0.00    -0.350 OA
BRANCH   6   7
HETATM    7  C16 UNL     1      12.022  44.472  24.459  1.00  0.00     0.291 C 
HETATM    8  O5  UNL     1      12.189  43.387  23.602  1.00  0.00    -0.349 OA
HETATM    9  C17 UNL     1      13.389  42.728  23.779  1.00  0.00     0.181 C 
HETATM   10  C19 UNL     1      13.738  42.703  25.213  1.00  0.00     0.182 C 
HETATM   11  C20 UNL     1      12.516  42.698  26.112  1.00  0.00     0.247 C 
HETATM   12  C21 UNL     1      11.822  44.042  25.884  1.00  0.00     0.206 C 
BRANCH   9  13
HETATM   13  C18 UNL     1      13.298  41.390  23.113  1.00  0.00     0.264 C 
BRANCH  13  14
HETATM   14  N2  UNL     1      14.529  40.903  22.582  1.00  0.00    -0.077 N 
ATOM     15  H23 UNL     1      14.569  41.067  21.576  1.00  0.00     0.274 HD
ATOM     16  H22 UNL     1      15.304  41.491  22.888  1.00  0.00     0.274 HD
ATOM     17  H21 UNL     1      14.725  39.923  22.789  1.00  0.00     0.274 HD
ENDBRANCH  13  14
ENDBRANCH   9  13
BRANCH  10  18
HETATM   18  O6  UNL     1      14.644  41.710  25.574  1.00  0.00    -0.391 OA
ATOM     19  H6  UNL     1      15.382  41.612  24.984  1.00  0.00     0.210 HD
ENDBRANCH  10  18
BRANCH  11  20
HETATM   20  N3  UNL     1      11.644  41.590  25.875  1.00  0.00    -0.070 N 
ATOM     21  H33 UNL     1      12.170  40.776  25.556  1.00  0.00     0.274 HD
ATOM     22  H32 UNL     1      11.279  41.221  26.753  1.00  0.00     0.274 HD
ATOM     23  H31 UNL     1      10.884  41.806  25.229  1.00  0.00     0.274 HD
ENDBRANCH  11  20
BRANCH  12  24
HETATM   24  O7  UNL     1      12.331  44.918  26.819  1.00  0.00    -0.388 OA
ATOM     25  H7  UNL     1      11.740  45.624  27.057  1.00  0.00     0.210 HD
ENDBRANCH  12  24
ENDBRANCH   6   7
ENDBRANCH   5   6
BRANCH   1  26
HETATM   26  C5  UNL     1      10.776  48.196  24.595  1.00  0.00    -0.049 A 
HETATM   27  C4  UNL     1       9.711  47.894  25.410  1.00  0.00     0.010 A 
HETATM   28  C3  UNL     1       8.456  48.486  25.213  1.00  0.00     0.037 A 
HETATM   29  C2  UNL     1       8.274  49.393  24.185  1.00  0.00     0.068 A 
HETATM   30  C23 UNL     1       9.334  49.709  23.355  1.00  0.00     0.037 A 
HETATM   31  C22 UNL     1      10.549  49.104  23.584  1.00  0.00     0.010 A 
BRANCH  29  32
HETATM   32  O1  UNL     1       7.021  49.981  23.991  1.00  0.00    -0.356 OA
HETATM   33  C1  UNL     1       6.753  51.321  24.273  1.00  0.00     0.210 C 
ENDBRANCH  29  32
ENDBRANCH   1  26
BRANCH   2  34
HETATM   34  C8  UNL     1      13.033  49.909  24.403  1.00  0.00     0.200 C 
BRANCH  34  35
HETATM   35  O2  UNL     1      14.176  50.242  23.631  1.00  0.00    -0.381 OA
BRANCH  35  36
HETATM   36  C9  UNL     1      13.885  51.197  22.689  1.00  0.00     0.151 C 
HETATM   37  C10 UNL     1      13.332  50.490  21.464  1.00  0.00     0.034 C 
HETATM   38  C11 UNL     1      12.550  51.607  20.796  1.00  0.00     0.005 C 
HETATM   39  C12 UNL     1      11.806  52.203  21.969  1.00  0.00     0.035 C 
HETATM   40  C13 UNL     1      12.772  52.132  23.133  1.00  0.00     0.212 C 
BRANCH  40  41
HETATM   41  N1  UNL     1      13.301  53.458  23.378  1.00  0.00    -0.073 N 
ATOM     42  H13 UNL     1      13.321  54.023  22.529  1.00  0.00     0.274 HD
ATOM     43  H12 UNL     1      12.657  54.030  23.924  1.00  0.00     0.274 HD
ATOM     44  H11 UNL     1      14.220  53.396  23.815  1.00  0.00     0.274 HD
ENDBRANCH  40  41
ENDBRANCH  35  36
ENDBRANCH  34  35
ENDBRANCH   2  34
TORSDOF 13
ENDMDL
