MODEL 1
REMARK VINA RESULT: -6.456705749      0.000      0.000
REMARK  16 active torsions:
REMARK  status: ('A' for Active; 'I' for Inactive)
REMARK    1  A    between atoms: N1_1  and  C1_4 
REMARK    2  A    between atoms: C3_8  and  N3_9 
REMARK    3  A    between atoms: C6_16  and  C7_17 
REMARK       I    between atoms: C7_17  and  N6_19 
REMARK    4  A    between atoms: N6_19  and  C8_21 
REMARK    5  A    between atoms: C8_21  and  C9_22 
REMARK    6  A    between atoms: C8_21  and  C12_29 
REMARK    7  A    between atoms: C9_22  and  C10_23 
REMARK    8  A    between atoms: C10_23  and  C11_24 
REMARK    9  A    between atoms: C11_24  and  N7_25 
REMARK       I    between atoms: C12_29  and  N8_31 
REMARK   10  A    between atoms: N8_31  and  C13_33 
REMARK   11  A    between atoms: C13_33  and  C14_34 
REMARK   12  A    between atoms: C13_33  and  C15_37 
REMARK   13  A    between atoms: C14_34  and  O3_35 
REMARK   14  A    between atoms: C15_37  and  O4_38 
REMARK   15  A    between atoms: O4_38  and  S1_39 
REMARK   16  A    between atoms: N9_43  and  N10_45 
ROOT
HETATM    1  C7  UNL     1      -7.204   1.202  66.987  1.00  0.00     0.270 C 
HETATM    2  O1  UNL     1      -7.015   0.398  66.020  1.00  0.00    -0.269 OA
HETATM    3  N6  UNL     1      -7.854   2.427  66.672  1.00  0.00    -0.344 N 
ATOM      4  H6  UNL     1      -8.032   3.105  67.414  1.00  0.00     0.163 HD
ENDROOT
BRANCH   1   5
HETATM    5  C6  UNL     1      -6.768   0.870  68.369  1.00  0.00     0.395 C 
HETATM    6  N3  UNL     1      -6.173   2.017  68.975  1.00  0.00    -0.251 N 
HETATM    7  N4  UNL     1      -7.057   2.868  69.704  1.00  0.00    -0.134 NA
HETATM    8  C4  UNL     1      -7.441   2.113  70.882  1.00  0.00     0.162 C 
HETATM    9  C5  UNL     1      -7.862   0.708  70.532  1.00  0.00     0.253 C 
HETATM   10  N5  UNL     1      -7.957   0.501  69.106  1.00  0.00    -0.043 N 
ATOM     11  H52 UNL     1      -8.217  -0.465  68.903  1.00  0.00     0.280 HD
ATOM     12  H51 UNL     1      -8.773   0.984  68.729  1.00  0.00     0.280 HD
BRANCH   6  13
HETATM   13  C3  UNL     1      -4.824   2.414  68.939  1.00  0.00     0.112 A 
HETATM   14  C2  UNL     1      -4.354   3.365  68.039  1.00  0.00     0.141 A 
HETATM   15  N2  UNL     1      -3.060   3.732  68.027  1.00  0.00    -0.200 N 
HETATM   16  C1  UNL     1      -2.174   3.194  68.883  1.00  0.00     0.677 A 
ATOM     17  H2  UNL     1      -2.746   4.432  67.356  1.00  0.00     0.183 HD
HETATM   18  N11 UNL     1      -2.585   2.272  69.769  1.00  0.00    -0.173 N 
HETATM   19  C16 UNL     1      -3.895   1.885  69.799  1.00  0.00     0.164 A 
ATOM     20  H11 UNL     1      -1.917   1.860  70.421  1.00  0.00     0.186 HD
HETATM   21  N9  UNL     1      -4.287   0.999  70.652  1.00  0.00    -0.290 N 
ATOM     22  H9  UNL     1      -5.264   0.708  70.676  1.00  0.00     0.188 HD
BRANCH  16  23
HETATM   23  N1  UNL     1      -0.921   3.545  68.875  1.00  0.00    -0.234 N 
ATOM     24  H12 UNL     1      -0.403   3.548  69.754  1.00  0.00     0.174 HD
ATOM     25  H11 UNL     1      -0.448   3.814  68.012  1.00  0.00     0.174 HD
ENDBRANCH  16  23
BRANCH  21  26
HETATM   26  N10 UNL     1      -3.373   0.442  71.538  1.00  0.00    -0.344 N 
ATOM     27 2H10 UNL     1      -3.666   0.246  72.496  1.00  0.00     0.176 HD
ATOM     28 1H10 UNL     1      -2.423   0.236  71.226  1.00  0.00     0.176 HD
ENDBRANCH  21  26
ENDBRANCH   6  13
ENDBRANCH   1   5
BRANCH   3  29
HETATM   29  C8  UNL     1      -8.273   2.734  65.301  1.00  0.00     0.176 C 
BRANCH  29  30
HETATM   30  C9  UNL     1      -7.847   4.151  65.067  1.00  0.00     0.036 C 
BRANCH  30  31
HETATM   31  C10 UNL     1      -6.838   4.712  65.996  1.00  0.00     0.030 C 
BRANCH  31  32
HETATM   32  C11 UNL     1      -7.572   5.779  66.839  1.00  0.00     0.230 C 
BRANCH  32  33
HETATM   33  N7  UNL     1      -7.374   5.541  68.237  1.00  0.00    -0.079 N 
ATOM     34  H73 UNL     1      -8.226   5.710  68.773  1.00  0.00     0.274 HD
ATOM     35  H72 UNL     1      -7.262   4.548  68.440  1.00  0.00     0.274 HD
ATOM     36  H71 UNL     1      -6.590   6.090  68.588  1.00  0.00     0.274 HD
ENDBRANCH  32  33
ENDBRANCH  31  32
ENDBRANCH  30  31
ENDBRANCH  29  30
BRANCH  29  37
HETATM   37  C12 UNL     1      -9.701   2.473  65.105  1.00  0.00     0.240 C 
HETATM   38  O2  UNL     1     -10.067   1.454  64.417  1.00  0.00    -0.271 OA
HETATM   39  N8  UNL     1     -10.761   3.262  65.611  1.00  0.00    -0.351 N 
ATOM     40  H8  UNL     1     -10.522   4.089  66.158  1.00  0.00     0.163 HD
BRANCH  39  41
HETATM   41  C13 UNL     1     -12.153   2.973  65.404  1.00  0.00     0.133 C 
BRANCH  41  42
HETATM   42  C14 UNL     1     -12.933   4.179  64.907  1.00  0.00     0.191 C 
BRANCH  42  43
HETATM   43  O3  UNL     1     -12.490   4.426  63.602  1.00  0.00    -0.399 OA
ATOM     44  H3  UNL     1     -12.016   5.249  63.631  1.00  0.00     0.209 HD
ENDBRANCH  42  43
ENDBRANCH  41  42
BRANCH  41  45
HETATM   45  C15 UNL     1     -12.833   2.498  66.673  1.00  0.00     0.218 C 
BRANCH  45  46
HETATM   46  O4  UNL     1     -12.679   1.108  66.756  1.00  0.00    -0.260 OA
BRANCH  46  47
HETATM   47  S1  UNL     1     -11.489   0.741  67.893  1.00  0.00     0.401 S 
HETATM   48  O5  UNL     1     -10.723   1.958  68.283  1.00  0.00    -0.179 OA
HETATM   49  O6  UNL     1     -10.542  -0.286  67.376  1.00  0.00    -0.179 OA
ENDBRANCH  46  47
ENDBRANCH  45  46
ENDBRANCH  41  45
ENDBRANCH  39  41
ENDBRANCH  29  37
ENDBRANCH   3  29
TORSDOF 16
ENDMDL
MODEL 2
REMARK VINA RESULT: -6.188421853      3.050      6.199
REMARK  16 active torsions:
REMARK  status: ('A' for Active; 'I' for Inactive)
REMARK    1  A    between atoms: N1_1  and  C1_4 
REMARK    2  A    between atoms: C3_8  and  N3_9 
REMARK    3  A    between atoms: C6_16  and  C7_17 
REMARK       I    between atoms: C7_17  and  N6_19 
REMARK    4  A    between atoms: N6_19  and  C8_21 
REMARK    5  A    between atoms: C8_21  and  C9_22 
REMARK    6  A    between atoms: C8_21  and  C12_29 
REMARK    7  A    between atoms: C9_22  and  C10_23 
REMARK    8  A    between atoms: C10_23  and  C11_24 
REMARK    9  A    between atoms: C11_24  and  N7_25 
REMARK       I    between atoms: C12_29  and  N8_31 
REMARK   10  A    between atoms: N8_31  and  C13_33 
REMARK   11  A    between atoms: C13_33  and  C14_34 
REMARK   12  A    between atoms: C13_33  and  C15_37 
REMARK   13  A    between atoms: C14_34  and  O3_35 
REMARK   14  A    between atoms: C15_37  and  O4_38 
REMARK   15  A    between atoms: O4_38  and  S1_39 
REMARK   16  A    between atoms: N9_43  and  N10_45 
ROOT
HETATM    1  C7  UNL     1      -4.677   0.873  69.983  1.00  0.00     0.270 C 
HETATM    2  O1  UNL     1      -5.285   0.660  68.887  1.00  0.00    -0.269 OA
HETATM    3  N6  UNL     1      -3.676   1.883  69.964  1.00  0.00    -0.344 N 
ATOM      4  H6  UNL     1      -3.160   2.093  70.819  1.00  0.00     0.163 HD
ENDROOT
BRANCH   1   5
HETATM    5  C6  UNL     1      -5.001   0.102  71.213  1.00  0.00     0.395 C 
HETATM    6  N3  UNL     1      -6.158  -0.701  70.987  1.00  0.00    -0.251 N 
HETATM    7  N4  UNL     1      -5.917  -2.021  70.501  1.00  0.00    -0.134 NA
HETATM    8  C4  UNL     1      -5.305  -2.737  71.604  1.00  0.00     0.162 C 
HETATM    9  C5  UNL     1      -4.185  -1.946  72.232  1.00  0.00     0.253 C 
HETATM   10  N5  UNL     1      -3.866  -0.754  71.481  1.00  0.00    -0.043 N 
ATOM     11  H52 UNL     1      -3.125  -0.229  71.945  1.00  0.00     0.280 HD
ATOM     12  H51 UNL     1      -3.391  -0.996  70.612  1.00  0.00     0.280 HD
BRANCH   6  13
HETATM   13  C3  UNL     1      -7.507  -0.353  71.181  1.00  0.00     0.112 A 
HETATM   14  C2  UNL     1      -8.019  -0.034  72.434  1.00  0.00     0.141 A 
HETATM   15  N2  UNL     1      -9.311   0.301  72.594  1.00  0.00    -0.200 N 
HETATM   16  C1  UNL     1     -10.157   0.339  71.549  1.00  0.00     0.677 A 
ATOM     17  H2  UNL     1      -9.657   0.530  73.525  1.00  0.00     0.183 HD
HETATM   18  N11 UNL     1      -9.705   0.038  70.320  1.00  0.00    -0.173 N 
HETATM   19  C16 UNL     1      -8.395  -0.304  70.136  1.00  0.00     0.164 A 
ATOM     20  H11 UNL     1     -10.342   0.065  69.524  1.00  0.00     0.186 HD
HETATM   21  N9  UNL     1      -7.964  -0.592  68.954  1.00  0.00    -0.290 N 
ATOM     22  H9  UNL     1      -6.987  -0.848  68.814  1.00  0.00     0.188 HD
BRANCH  16  23
HETATM   23  N1  UNL     1     -11.409   0.661  71.698  1.00  0.00    -0.234 N 
ATOM     24  H12 UNL     1     -12.120  -0.062  71.590  1.00  0.00     0.174 HD
ATOM     25  H11 UNL     1     -11.692   1.615  71.921  1.00  0.00     0.174 HD
ENDBRANCH  16  23
BRANCH  21  26
HETATM   26  N10 UNL     1      -8.835  -0.553  67.872  1.00  0.00    -0.344 N 
ATOM     27 2H10 UNL     1      -9.506   0.213  67.803  1.00  0.00     0.176 HD
ATOM     28 1H10 UNL     1      -8.797  -1.285  67.163  1.00  0.00     0.176 HD
ENDBRANCH  21  26
ENDBRANCH   6  13
ENDBRANCH   1   5
BRANCH   3  29
HETATM   29  C8  UNL     1      -3.372   2.628  68.738  1.00  0.00     0.176 C 
BRANCH  29  30
HETATM   30  C9  UNL     1      -2.130   3.406  69.049  1.00  0.00     0.036 C 
BRANCH  30  31
HETATM   31  C10 UNL     1      -1.357   3.927  67.897  1.00  0.00     0.030 C 
BRANCH  31  32
HETATM   32  C11 UNL     1      -0.277   4.862  68.489  1.00  0.00     0.230 C 
BRANCH  32  33
HETATM   33  N7  UNL     1       0.604   4.132  69.350  1.00  0.00    -0.079 N 
ATOM     34  H73 UNL     1       0.443   4.356  70.332  1.00  0.00     0.274 HD
ATOM     35  H72 UNL     1       0.369   3.140  69.380  1.00  0.00     0.274 HD
ATOM     36  H71 UNL     1       1.576   4.283  69.082  1.00  0.00     0.274 HD
ENDBRANCH  32  33
ENDBRANCH  31  32
ENDBRANCH  30  31
ENDBRANCH  29  30
BRANCH  29  37
HETATM   37  C12 UNL     1      -4.515   3.431  68.301  1.00  0.00     0.240 C 
HETATM   38  O2  UNL     1      -4.754   4.553  68.876  1.00  0.00    -0.271 OA
HETATM   39  N8  UNL     1      -5.423   3.085  67.272  1.00  0.00    -0.351 N 
ATOM     40  H8  UNL     1      -5.281   2.197  66.789  1.00  0.00     0.163 HD
BRANCH  39  41
HETATM   41  C13 UNL     1      -6.533   3.901  66.864  1.00  0.00     0.133 C 
BRANCH  41  42
HETATM   42  C14 UNL     1      -7.797   3.608  67.655  1.00  0.00     0.191 C 
BRANCH  42  43
HETATM   43  O3  UNL     1      -7.654   2.312  68.164  1.00  0.00    -0.399 OA
ATOM     44  H3  UNL     1      -8.277   1.770  67.695  1.00  0.00     0.209 HD
ENDBRANCH  42  43
ENDBRANCH  41  42
BRANCH  41  45
HETATM   45  C15 UNL     1      -6.873   3.712  65.399  1.00  0.00     0.218 C 
BRANCH  45  46
HETATM   46  O4  UNL     1      -7.862   2.725  65.304  1.00  0.00    -0.260 OA
BRANCH  46  47
HETATM   47  S1  UNL     1      -7.160   1.269  64.825  1.00  0.00     0.401 S 
HETATM   48  O5  UNL     1      -6.871   0.398  65.999  1.00  0.00    -0.179 OA
HETATM   49  O6  UNL     1      -5.898   1.499  64.067  1.00  0.00    -0.179 OA
ENDBRANCH  46  47
ENDBRANCH  45  46
ENDBRANCH  41  45
ENDBRANCH  39  41
ENDBRANCH  29  37
ENDBRANCH   3  29
TORSDOF 16
ENDMDL
MODEL 3
REMARK VINA RESULT: -6.119607589      1.680      2.086
REMARK  16 active torsions:
REMARK  status: ('A' for Active; 'I' for Inactive)
REMARK    1  A    between atoms: N1_1  and  C1_4 
REMARK    2  A    between atoms: C3_8  and  N3_9 
REMARK    3  A    between atoms: C6_16  and  C7_17 
REMARK       I    between atoms: C7_17  and  N6_19 
REMARK    4  A    between atoms: N6_19  and  C8_21 
REMARK    5  A    between atoms: C8_21  and  C9_22 
REMARK    6  A    between atoms: C8_21  and  C12_29 
REMARK    7  A    between atoms: C9_22  and  C10_23 
REMARK    8  A    between atoms: C10_23  and  C11_24 
REMARK    9  A    between atoms: C11_24  and  N7_25 
REMARK       I    between atoms: C12_29  and  N8_31 
REMARK   10  A    between atoms: N8_31  and  C13_33 
REMARK   11  A    between atoms: C13_33  and  C14_34 
REMARK   12  A    between atoms: C13_33  and  C15_37 
REMARK   13  A    between atoms: C14_34  and  O3_35 
REMARK   14  A    between atoms: C15_37  and  O4_38 
REMARK   15  A    between atoms: O4_38  and  S1_39 
REMARK   16  A    between atoms: N9_43  and  N10_45 
ROOT
HETATM    1  C7  UNL     1      -7.279   0.837  67.590  1.00  0.00     0.270 C 
HETATM    2  O1  UNL     1      -7.052   0.245  66.488  1.00  0.00    -0.269 OA
HETATM    3  N6  UNL     1      -8.280   1.847  67.571  1.00  0.00    -0.344 N 
ATOM      4  H6  UNL     1      -8.501   2.350  68.431  1.00  0.00     0.163 HD
ENDROOT
BRANCH   1   5
HETATM    5  C6  UNL     1      -6.533   0.485  68.828  1.00  0.00     0.395 C 
HETATM    6  N3  UNL     1      -5.993   1.667  69.416  1.00  0.00    -0.251 N 
HETATM    7  N4  UNL     1      -6.822   2.322  70.376  1.00  0.00    -0.134 NA
HETATM    8  C4  UNL     1      -6.855   1.441  71.528  1.00  0.00     0.162 C 
HETATM    9  C5  UNL     1      -7.139   0.013  71.132  1.00  0.00     0.253 C 
HETATM   10  N5  UNL     1      -7.488  -0.110  69.736  1.00  0.00    -0.043 N 
ATOM     11  H52 UNL     1      -7.647  -1.089  69.495  1.00  0.00     0.280 HD
ATOM     12  H51 UNL     1      -8.421   0.265  69.568  1.00  0.00     0.280 HD
BRANCH   6  13
HETATM   13  C3  UNL     1      -4.747   2.269  69.165  1.00  0.00     0.112 A 
HETATM   14  C2  UNL     1      -4.552   3.165  68.119  1.00  0.00     0.141 A 
HETATM   15  N2  UNL     1      -3.352   3.731  67.902  1.00  0.00    -0.200 N 
HETATM   16  C1  UNL     1      -2.296   3.453  68.687  1.00  0.00     0.677 A 
ATOM     17  H2  UNL     1      -3.240   4.385  67.128  1.00  0.00     0.183 HD
HETATM   18  N11 UNL     1      -2.439   2.593  69.709  1.00  0.00    -0.173 N 
HETATM   19  C16 UNL     1      -3.651   2.007  69.948  1.00  0.00     0.164 A 
ATOM     20  H11 UNL     1      -1.642   2.378  70.308  1.00  0.00     0.186 HD
HETATM   21  N9  UNL     1      -3.784   1.182  70.931  1.00  0.00    -0.290 N 
ATOM     22  H9  UNL     1      -4.687   0.742  71.111  1.00  0.00     0.188 HD
BRANCH  16  23
HETATM   23  N1  UNL     1      -1.132   3.997  68.480  1.00  0.00    -0.234 N 
ATOM     24  H12 UNL     1      -0.836   4.180  67.521  1.00  0.00     0.174 HD
ATOM     25  H11 UNL     1      -0.514   4.244  69.253  1.00  0.00     0.174 HD
ENDBRANCH  16  23
BRANCH  21  26
HETATM   26  N10 UNL     1      -2.695   0.892  71.744  1.00  0.00    -0.344 N 
ATOM     27 2H10 UNL     1      -2.803   0.951  72.757  1.00  0.00     0.176 HD
ATOM     28 1H10 UNL     1      -1.804   0.626  71.324  1.00  0.00     0.176 HD
ENDBRANCH  21  26
ENDBRANCH   6  13
ENDBRANCH   1   5
BRANCH   3  29
HETATM   29  C8  UNL     1      -9.001   2.178  66.337  1.00  0.00     0.176 C 
BRANCH  29  30
HETATM   30  C9  UNL     1      -8.765   3.642  66.126  1.00  0.00     0.036 C 
BRANCH  30  31
HETATM   31  C10 UNL     1      -7.540   4.026  65.386  1.00  0.00     0.030 C 
BRANCH  31  32
HETATM   32  C11 UNL     1      -7.321   2.933  64.315  1.00  0.00     0.230 C 
BRANCH  32  33
HETATM   33  N7  UNL     1      -6.045   2.307  64.487  1.00  0.00    -0.079 N 
ATOM     34  H73 UNL     1      -5.278   2.966  64.347  1.00  0.00     0.274 HD
ATOM     35  H72 UNL     1      -5.867   2.072  65.463  1.00  0.00     0.274 HD
ATOM     36  H71 UNL     1      -5.959   1.493  63.879  1.00  0.00     0.274 HD
ENDBRANCH  32  33
ENDBRANCH  31  32
ENDBRANCH  30  31
ENDBRANCH  29  30
BRANCH  29  37
HETATM   37  C12 UNL     1     -10.408   1.779  66.414  1.00  0.00     0.240 C 
HETATM   38  O2  UNL     1     -11.080   1.630  65.332  1.00  0.00    -0.271 OA
HETATM   39  N8  UNL     1     -11.134   1.536  67.604  1.00  0.00    -0.351 N 
ATOM     40  H8  UNL     1     -10.645   1.650  68.493  1.00  0.00     0.163 HD
BRANCH  39  41
HETATM   41  C13 UNL     1     -12.514   1.140  67.643  1.00  0.00     0.133 C 
BRANCH  41  42
HETATM   42  C14 UNL     1     -13.453   2.312  67.880  1.00  0.00     0.191 C 
BRANCH  42  43
HETATM   43  O3  UNL     1     -13.631   2.933  66.639  1.00  0.00    -0.399 OA
ATOM     44  H3  UNL     1     -14.566   3.064  66.536  1.00  0.00     0.209 HD
ENDBRANCH  42  43
ENDBRANCH  41  42
BRANCH  41  45
HETATM   45  C15 UNL     1     -12.787   0.125  68.735  1.00  0.00     0.218 C 
BRANCH  45  46
HETATM   46  O4  UNL     1     -11.596  -0.088  69.441  1.00  0.00    -0.260 OA
BRANCH  46  47
HETATM   47  S1  UNL     1     -10.935  -1.572  68.993  1.00  0.00     0.401 S 
HETATM   48  O5  UNL     1      -9.867  -1.400  67.968  1.00  0.00    -0.179 OA
HETATM   49  O6  UNL     1     -11.978  -2.493  68.459  1.00  0.00    -0.179 OA
ENDBRANCH  46  47
ENDBRANCH  45  46
ENDBRANCH  41  45
ENDBRANCH  39  41
ENDBRANCH  29  37
ENDBRANCH   3  29
TORSDOF 16
ENDMDL
MODEL 4
REMARK VINA RESULT: -6.021056820      2.458      2.860
REMARK  16 active torsions:
REMARK  status: ('A' for Active; 'I' for Inactive)
REMARK    1  A    between atoms: N1_1  and  C1_4 
REMARK    2  A    between atoms: C3_8  and  N3_9 
REMARK    3  A    between atoms: C6_16  and  C7_17 
REMARK       I    between atoms: C7_17  and  N6_19 
REMARK    4  A    between atoms: N6_19  and  C8_21 
REMARK    5  A    between atoms: C8_21  and  C9_22 
REMARK    6  A    between atoms: C8_21  and  C12_29 
REMARK    7  A    between atoms: C9_22  and  C10_23 
REMARK    8  A    between atoms: C10_23  and  C11_24 
REMARK    9  A    between atoms: C11_24  and  N7_25 
REMARK       I    between atoms: C12_29  and  N8_31 
REMARK   10  A    between atoms: N8_31  and  C13_33 
REMARK   11  A    between atoms: C13_33  and  C14_34 
REMARK   12  A    between atoms: C13_33  and  C15_37 
REMARK   13  A    between atoms: C14_34  and  O3_35 
REMARK   14  A    between atoms: C15_37  and  O4_38 
REMARK   15  A    between atoms: O4_38  and  S1_39 
REMARK   16  A    between atoms: N9_43  and  N10_45 
ROOT
HETATM    1  C7  UNL     1      -7.668   0.080  68.665  1.00  0.00     0.270 C 
HETATM    2  O1  UNL     1      -8.281  -1.020  68.493  1.00  0.00    -0.269 OA
HETATM    3  N6  UNL     1      -7.783   1.038  67.620  1.00  0.00    -0.344 N 
ATOM      4  H6  UNL     1      -7.312   1.938  67.710  1.00  0.00     0.163 HD
ENDROOT
BRANCH   1   5
HETATM    5  C6  UNL     1      -6.876   0.344  69.896  1.00  0.00     0.395 C 
HETATM    6  N3  UNL     1      -6.442   1.703  69.907  1.00  0.00    -0.251 N 
HETATM    7  N4  UNL     1      -7.316   2.633  70.547  1.00  0.00    -0.134 NA
HETATM    8  C4  UNL     1      -7.251   2.319  71.962  1.00  0.00     0.162 C 
HETATM    9  C5  UNL     1      -7.403   0.840  72.214  1.00  0.00     0.253 C 
HETATM   10  N5  UNL     1      -7.758   0.112  71.019  1.00  0.00    -0.043 N 
ATOM     11  H52 UNL     1      -7.827  -0.886  71.217  1.00  0.00     0.280 HD
ATOM     12  H51 UNL     1      -8.724   0.305  70.757  1.00  0.00     0.280 HD
BRANCH   6  13
HETATM   13  C3  UNL     1      -5.262   2.242  69.363  1.00  0.00     0.112 A 
HETATM   14  C2  UNL     1      -5.267   3.044  68.227  1.00  0.00     0.141 A 
HETATM   15  N2  UNL     1      -4.126   3.551  67.728  1.00  0.00    -0.200 N 
HETATM   16  C1  UNL     1      -2.938   3.301  68.308  1.00  0.00     0.677 A 
ATOM     17  H2  UNL     1      -4.162   4.137  66.895  1.00  0.00     0.183 HD
HETATM   18  N11 UNL     1      -2.887   2.530  69.406  1.00  0.00    -0.173 N 
HETATM   19  C16 UNL     1      -4.035   2.006  69.931  1.00  0.00     0.164 A 
ATOM     20  H11 UNL     1      -1.990   2.337  69.850  1.00  0.00     0.186 HD
HETATM   21  N9  UNL     1      -3.982   1.266  70.987  1.00  0.00    -0.290 N 
ATOM     22  H9  UNL     1      -4.838   0.873  71.379  1.00  0.00     0.188 HD
BRANCH  16  23
HETATM   23  N1  UNL     1      -1.831   3.788  67.828  1.00  0.00    -0.234 N 
ATOM     24  H12 UNL     1      -1.540   4.724  68.111  1.00  0.00     0.174 HD
ATOM     25  H11 UNL     1      -1.251   3.256  67.179  1.00  0.00     0.174 HD
ENDBRANCH  16  23
BRANCH  21  26
HETATM   26  N10 UNL     1      -2.757   1.006  71.588  1.00  0.00    -0.344 N 
ATOM     27 2H10 UNL     1      -2.012   1.700  71.517  1.00  0.00     0.176 HD
ATOM     28 1H10 UNL     1      -2.614   0.130  72.092  1.00  0.00     0.176 HD
ENDBRANCH  21  26
ENDBRANCH   6  13
ENDBRANCH   1   5
BRANCH   3  29
HETATM   29  C8  UNL     1      -8.568   0.755  66.414  1.00  0.00     0.176 C 
BRANCH  29  30
HETATM   30  C9  UNL     1      -7.587   0.814  65.283  1.00  0.00     0.036 C 
BRANCH  30  31
HETATM   31  C10 UNL     1      -6.464   1.772  65.417  1.00  0.00     0.030 C 
BRANCH  31  32
HETATM   32  C11 UNL     1      -6.713   2.880  64.369  1.00  0.00     0.230 C 
BRANCH  32  33
HETATM   33  N7  UNL     1      -6.416   4.169  64.917  1.00  0.00    -0.079 N 
ATOM     34  H73 UNL     1      -7.204   4.810  64.824  1.00  0.00     0.274 HD
ATOM     35  H72 UNL     1      -6.360   4.144  65.934  1.00  0.00     0.274 HD
ATOM     36  H71 UNL     1      -5.566   4.550  64.500  1.00  0.00     0.274 HD
ENDBRANCH  32  33
ENDBRANCH  31  32
ENDBRANCH  30  31
ENDBRANCH  29  30
BRANCH  29  37
HETATM   37  C12 UNL     1      -9.712   1.660  66.293  1.00  0.00     0.240 C 
HETATM   38  O2  UNL     1     -10.860   1.186  65.968  1.00  0.00    -0.271 OA
HETATM   39  N8  UNL     1      -9.684   3.060  66.500  1.00  0.00    -0.351 N 
ATOM     40  H8  UNL     1      -8.792   3.486  66.752  1.00  0.00     0.163 HD
BRANCH  39  41
HETATM   41  C13 UNL     1     -10.828   3.919  66.378  1.00  0.00     0.133 C 
BRANCH  41  42
HETATM   42  C14 UNL     1     -10.863   4.663  65.053  1.00  0.00     0.191 C 
BRANCH  42  43
HETATM   43  O3  UNL     1      -9.538   4.748  64.612  1.00  0.00    -0.399 OA
ATOM     44  H3  UNL     1      -9.552   5.270  63.819  1.00  0.00     0.209 HD
ENDBRANCH  42  43
ENDBRANCH  41  42
BRANCH  41  45
HETATM   45  C15 UNL     1     -10.879   4.964  67.475  1.00  0.00     0.218 C 
BRANCH  45  46
HETATM   46  O4  UNL     1     -10.295   6.139  66.985  1.00  0.00    -0.260 OA
BRANCH  46  47
HETATM   47  S1  UNL     1      -8.793   6.368  67.715  1.00  0.00     0.401 S 
HETATM   48  O5  UNL     1      -8.359   7.791  67.623  1.00  0.00    -0.179 OA
HETATM   49  O6  UNL     1      -7.751   5.501  67.097  1.00  0.00    -0.179 OA
ENDBRANCH  46  47
ENDBRANCH  45  46
ENDBRANCH  41  45
ENDBRANCH  39  41
ENDBRANCH  29  37
ENDBRANCH   3  29
TORSDOF 16
ENDMDL
MODEL 5
REMARK VINA RESULT: -5.940005756      3.020      6.889
REMARK  16 active torsions:
REMARK  status: ('A' for Active; 'I' for Inactive)
REMARK    1  A    between atoms: N1_1  and  C1_4 
REMARK    2  A    between atoms: C3_8  and  N3_9 
REMARK    3  A    between atoms: C6_16  and  C7_17 
REMARK       I    between atoms: C7_17  and  N6_19 
REMARK    4  A    between atoms: N6_19  and  C8_21 
REMARK    5  A    between atoms: C8_21  and  C9_22 
REMARK    6  A    between atoms: C8_21  and  C12_29 
REMARK    7  A    between atoms: C9_22  and  C10_23 
REMARK    8  A    between atoms: C10_23  and  C11_24 
REMARK    9  A    between atoms: C11_24  and  N7_25 
REMARK       I    between atoms: C12_29  and  N8_31 
REMARK   10  A    between atoms: N8_31  and  C13_33 
REMARK   11  A    between atoms: C13_33  and  C14_34 
REMARK   12  A    between atoms: C13_33  and  C15_37 
REMARK   13  A    between atoms: C14_34  and  O3_35 
REMARK   14  A    between atoms: C15_37  and  O4_38 
REMARK   15  A    between atoms: O4_38  and  S1_39 
REMARK   16  A    between atoms: N9_43  and  N10_45 
ROOT
HETATM    1  C7  UNL     1      -8.260  -0.255  69.686  1.00  0.00     0.270 C 
HETATM    2  O1  UNL     1      -7.663  -1.158  69.019  1.00  0.00    -0.269 OA
HETATM    3  N6  UNL     1      -7.455   0.817  70.160  1.00  0.00    -0.344 N 
ATOM      4  H6  UNL     1      -7.887   1.568  70.698  1.00  0.00     0.163 HD
ENDROOT
BRANCH   1   5
HETATM    5  C6  UNL     1      -9.722  -0.324  69.951  1.00  0.00     0.395 C 
HETATM    6  N3  UNL     1     -10.424  -0.535  68.727  1.00  0.00    -0.251 N 
HETATM    7  N4  UNL     1     -10.658  -1.896  68.368  1.00  0.00    -0.134 NA
HETATM    8  C4  UNL     1     -11.631  -2.390  69.323  1.00  0.00     0.162 C 
HETATM    9  C5  UNL     1     -11.254  -2.036  70.740  1.00  0.00     0.253 C 
HETATM   10  N5  UNL     1      -9.935  -1.455  70.828  1.00  0.00    -0.043 N 
ATOM     11  H52 UNL     1      -9.721  -1.202  71.793  1.00  0.00     0.280 HD
ATOM     12  H51 UNL     1      -9.220  -2.166  70.671  1.00  0.00     0.280 HD
BRANCH   6  13
HETATM   13  C3  UNL     1     -10.911   0.432  67.830  1.00  0.00     0.112 A 
HETATM   14  C2  UNL     1     -12.110   1.105  68.041  1.00  0.00     0.141 A 
HETATM   15  N2  UNL     1     -12.552   2.029  67.170  1.00  0.00    -0.200 N 
HETATM   16  C1  UNL     1     -11.854   2.336  66.063  1.00  0.00     0.677 A 
ATOM     17  H2  UNL     1     -13.435   2.506  67.354  1.00  0.00     0.183 HD
HETATM   18  N11 UNL     1     -10.691   1.710  65.819  1.00  0.00    -0.173 N 
HETATM   19  C16 UNL     1     -10.222   0.768  66.691  1.00  0.00     0.164 A 
ATOM     20  H11 UNL     1     -10.157   1.938  64.980  1.00  0.00     0.186 HD
HETATM   21  N9  UNL     1      -9.104   0.169  66.453  1.00  0.00    -0.290 N 
ATOM     22  H9  UNL     1      -8.753  -0.535  67.103  1.00  0.00     0.188 HD
BRANCH  16  23
HETATM   23  N1  UNL     1     -12.279   3.228  65.216  1.00  0.00    -0.234 N 
ATOM     24  H12 UNL     1     -12.873   3.986  65.554  1.00  0.00     0.174 HD
ATOM     25  H11 UNL     1     -12.031   3.186  64.228  1.00  0.00     0.174 HD
ENDBRANCH  16  23
BRANCH  21  26
HETATM   26  N10 UNL     1      -8.380   0.485  65.310  1.00  0.00    -0.344 N 
ATOM     27 2H10 UNL     1      -8.747   1.190  64.670  1.00  0.00     0.176 HD
ATOM     28 1H10 UNL     1      -7.495   0.013  65.123  1.00  0.00     0.176 HD
ENDBRANCH  21  26
ENDBRANCH   6  13
ENDBRANCH   1   5
BRANCH   3  29
HETATM   29  C8  UNL     1      -6.014   0.863  69.887  1.00  0.00     0.176 C 
BRANCH  29  30
HETATM   30  C9  UNL     1      -5.357   0.708  71.225  1.00  0.00     0.036 C 
BRANCH  30  31
HETATM   31  C10 UNL     1      -4.674  -0.579  71.495  1.00  0.00     0.030 C 
BRANCH  31  32
HETATM   32  C11 UNL     1      -5.706  -1.473  72.219  1.00  0.00     0.230 C 
BRANCH  32  33
HETATM   33  N7  UNL     1      -6.158  -2.522  71.356  1.00  0.00    -0.079 N 
ATOM     34  H73 UNL     1      -5.742  -3.420  71.603  1.00  0.00     0.274 HD
ATOM     35  H72 UNL     1      -7.136  -2.755  71.525  1.00  0.00     0.274 HD
ATOM     36  H71 UNL     1      -5.989  -2.281  70.379  1.00  0.00     0.274 HD
ENDBRANCH  32  33
ENDBRANCH  31  32
ENDBRANCH  30  31
ENDBRANCH  29  30
BRANCH  29  37
HETATM   37  C12 UNL     1      -5.645   2.072  69.149  1.00  0.00     0.240 C 
HETATM   38  O2  UNL     1      -4.537   2.660  69.416  1.00  0.00    -0.271 OA
HETATM   39  N8  UNL     1      -6.415   2.687  68.133  1.00  0.00    -0.351 N 
ATOM     40  H8  UNL     1      -7.310   2.261  67.889  1.00  0.00     0.163 HD
BRANCH  39  41
HETATM   41  C13 UNL     1      -6.019   3.871  67.424  1.00  0.00     0.133 C 
BRANCH  41  42
HETATM   42  C14 UNL     1      -6.580   5.140  68.045  1.00  0.00     0.191 C 
BRANCH  42  43
HETATM   43  O3  UNL     1      -5.648   5.558  69.001  1.00  0.00    -0.399 OA
ATOM     44  H3  UNL     1      -4.936   5.966  68.522  1.00  0.00     0.209 HD
ENDBRANCH  42  43
ENDBRANCH  41  42
BRANCH  41  45
HETATM   45  C15 UNL     1      -6.471   3.849  65.977  1.00  0.00     0.218 C 
BRANCH  45  46
HETATM   46  O4  UNL     1      -7.815   3.453  65.945  1.00  0.00    -0.260 OA
BRANCH  46  47
HETATM   47  S1  UNL     1      -8.512   3.947  64.492  1.00  0.00     0.401 S 
HETATM   48  O5  UNL     1      -9.824   4.614  64.722  1.00  0.00    -0.179 OA
HETATM   49  O6  UNL     1      -8.706   2.797  63.565  1.00  0.00    -0.179 OA
ENDBRANCH  46  47
ENDBRANCH  45  46
ENDBRANCH  41  45
ENDBRANCH  39  41
ENDBRANCH  29  37
ENDBRANCH   3  29
TORSDOF 16
ENDMDL
