MODEL 1
REMARK VINA RESULT: -6.911174434      0.000      0.000
REMARK  17 active torsions:
REMARK  status: ('A' for Active; 'I' for Inactive)
REMARK    1  A    between atoms: O1_2  and  N1_3 
REMARK       I    between atoms: N1_3  and  C2_5 
REMARK    2  A    between atoms: C2_5  and  C3_7 
REMARK    3  A    between atoms: C3_7  and  O3_8 
REMARK    4  A    between atoms: C3_7  and  N2_10 
REMARK    5  A    between atoms: N2_10  and  C4_12 
REMARK    6  A    between atoms: C4_12  and  C5_13 
REMARK    7  A    between atoms: C4_12  and  C14_39 
REMARK       I    between atoms: C5_13  and  N3_15 
REMARK    8  A    between atoms: N3_15  and  C6_17 
REMARK    9  A    between atoms: C6_17  and  C7_18 
REMARK   10  A    between atoms: C6_17  and  C11_32 
REMARK   11  A    between atoms: C7_18  and  O5_19 
REMARK   12  A    between atoms: C7_18  and  C8_21 
REMARK   13  A    between atoms: C8_21  and  C9_23 
REMARK   14  A    between atoms: C9_23  and  N5_28 
REMARK   15  A    between atoms: N4_24  and  O7_26 
REMARK   16  A    between atoms: C11_32  and  O8_33 
REMARK   17  A    between atoms: C16_42  and  N7_43 
ROOT
HETATM    1  N5  UNL     1      -9.158   1.530  64.673  1.00  0.00    -0.275 N 
ATOM      2  H5  UNL     1      -9.118   1.492  63.654  1.00  0.00     0.180 HD
HETATM    3  C10 UNL     1     -10.377   1.736  65.320  1.00  0.00     0.183 C 
HETATM    4  N6  UNL     1     -11.391   1.890  65.838  1.00  0.00    -0.172 NA
ENDROOT
BRANCH   1   5
HETATM    5  C9  UNL     1      -7.967   1.373  65.445  1.00  0.00     0.183 C 
HETATM    6  N4  UNL     1      -7.950   0.365  66.242  1.00  0.00    -0.249 N 
ATOM      7  H4  UNL     1      -8.764  -0.248  66.290  1.00  0.00     0.196 HD
BRANCH   5   8
HETATM    8  C8  UNL     1      -6.824   2.234  65.369  1.00  0.00     0.226 C 
HETATM    9  O6  UNL     1      -5.728   1.760  64.979  1.00  0.00    -0.286 OA
BRANCH   8  10
HETATM   10  C7  UNL     1      -6.830   3.675  65.723  1.00  0.00     0.222 C 
BRANCH  10  11
HETATM   11  C6  UNL     1      -6.592   3.986  67.148  1.00  0.00     0.167 C 
BRANCH  11  12
HETATM   12  N3  UNL     1      -5.570   3.020  67.617  1.00  0.00    -0.348 N 
HETATM   13  C5  UNL     1      -4.486   3.368  68.453  1.00  0.00     0.246 C 
HETATM   14  O4  UNL     1      -4.405   4.564  68.813  1.00  0.00    -0.271 OA
ATOM     15  H3  UNL     1      -5.654   2.049  67.319  1.00  0.00     0.163 HD
BRANCH  13  16
HETATM   16  C4  UNL     1      -3.503   2.323  68.867  1.00  0.00     0.223 C 
BRANCH  16  17
HETATM   17  N2  UNL     1      -3.845   1.670  70.072  1.00  0.00    -0.372 N 
ATOM     18  H2  UNL     1      -3.185   1.655  70.850  1.00  0.00     0.157 HD
BRANCH  17  19
HETATM   19  C3  UNL     1      -5.100   1.036  70.199  1.00  0.00     0.310 C 
BRANCH  19  20
HETATM   20  C2  UNL     1      -4.944  -0.439  70.223  1.00  0.00     0.289 C 
HETATM   21  N1  UNL     1      -4.130  -1.089  71.214  1.00  0.00    -0.232 N 
ATOM     22  H1  UNL     1      -3.660  -0.511  71.912  1.00  0.00     0.197 HD
HETATM   23  O2  UNL     1      -5.501  -1.227  69.398  1.00  0.00    -0.266 OA
BRANCH  21  24
HETATM   24  O1  UNL     1      -3.961  -2.416  71.265  1.00  0.00    -0.283 OA
HETATM   25  C1  UNL     1      -2.828  -2.754  71.982  1.00  0.00     0.237 C 
ENDBRANCH  21  24
ENDBRANCH  19  20
BRANCH  19  26
HETATM   26  O3  UNL     1      -5.662   1.411  71.423  1.00  0.00    -0.368 OA
ATOM     27  H3  UNL     1      -6.047   2.271  71.303  1.00  0.00     0.212 HD
ENDBRANCH  19  26
ENDBRANCH  17  19
ENDBRANCH  16  17
BRANCH  16  28
HETATM   28  C14 UNL     1      -2.149   3.036  69.088  1.00  0.00     0.049 A 
HETATM   29  C15 UNL     1      -1.426   2.791  70.231  1.00  0.00     0.081 A 
HETATM   30  S1  UNL     1      -0.070   3.807  70.029  1.00  0.00    -0.064 SA
HETATM   31  C16 UNL     1      -0.485   4.481  68.521  1.00  0.00     0.142 A 
HETATM   32  N8  UNL     1      -1.647   3.900  68.235  1.00  0.00    -0.338 N 
ATOM     33  H8  UNL     1      -2.139   4.120  67.369  1.00  0.00     0.168 HD
BRANCH  31  34
HETATM   34  N7  UNL     1       0.169   5.375  67.797  1.00  0.00    -0.380 N 
ATOM     35  H72 UNL     1       0.831   6.076  68.127  1.00  0.00     0.158 HD
ATOM     36  H71 UNL     1       0.146   5.529  66.789  1.00  0.00     0.158 HD
ENDBRANCH  31  34
ENDBRANCH  16  28
ENDBRANCH  13  16
ENDBRANCH  11  12
BRANCH  11  37
HETATM   37  C11 UNL     1      -7.698   4.035  68.106  1.00  0.00     0.190 C 
HETATM   38  C12 UNL     1      -7.745   4.827  69.331  1.00  0.00     0.229 C 
HETATM   39  O9  UNL     1      -7.558   3.654  70.148  1.00  0.00    -0.315 OA
HETATM   40  C13 UNL     1      -7.866   2.891  68.990  1.00  0.00     0.298 C 
HETATM   41  O10 UNL     1      -8.171   1.659  68.849  1.00  0.00    -0.262 OA
BRANCH  37  42
HETATM   42  O8  UNL     1      -8.899   4.236  67.347  1.00  0.00    -0.376 OA
ATOM     43  H8  UNL     1      -8.899   5.143  67.065  1.00  0.00     0.211 HD
ENDBRANCH  37  42
ENDBRANCH  11  37
ENDBRANCH  10  11
BRANCH  10  44
HETATM   44  O5  UNL     1      -6.067   4.456  64.857  1.00  0.00    -0.385 OA
ATOM     45  H5  UNL     1      -5.533   3.942  64.262  1.00  0.00     0.210 HD
ENDBRANCH  10  44
ENDBRANCH   8  10
ENDBRANCH   5   8
BRANCH   6  46
HETATM   46  O7  UNL     1      -6.862   0.097  67.027  1.00  0.00    -0.288 OA
ATOM     47  H7  UNL     1      -6.845   0.335  67.947  1.00  0.00     0.244 HD
ENDBRANCH   6  46
ENDBRANCH   1   5
TORSDOF 17
ENDMDL
MODEL 2
REMARK VINA RESULT: -6.759669615      3.464      7.155
REMARK  17 active torsions:
REMARK  status: ('A' for Active; 'I' for Inactive)
REMARK    1  A    between atoms: O1_2  and  N1_3 
REMARK       I    between atoms: N1_3  and  C2_5 
REMARK    2  A    between atoms: C2_5  and  C3_7 
REMARK    3  A    between atoms: C3_7  and  O3_8 
REMARK    4  A    between atoms: C3_7  and  N2_10 
REMARK    5  A    between atoms: N2_10  and  C4_12 
REMARK    6  A    between atoms: C4_12  and  C5_13 
REMARK    7  A    between atoms: C4_12  and  C14_39 
REMARK       I    between atoms: C5_13  and  N3_15 
REMARK    8  A    between atoms: N3_15  and  C6_17 
REMARK    9  A    between atoms: C6_17  and  C7_18 
REMARK   10  A    between atoms: C6_17  and  C11_32 
REMARK   11  A    between atoms: C7_18  and  O5_19 
REMARK   12  A    between atoms: C7_18  and  C8_21 
REMARK   13  A    between atoms: C8_21  and  C9_23 
REMARK   14  A    between atoms: C9_23  and  N5_28 
REMARK   15  A    between atoms: N4_24  and  O7_26 
REMARK   16  A    between atoms: C11_32  and  O8_33 
REMARK   17  A    between atoms: C16_42  and  N7_43 
ROOT
HETATM    1  N5  UNL     1      -3.891   3.719  67.629  1.00  0.00    -0.275 N 
ATOM      2  H5  UNL     1      -3.531   4.140  66.773  1.00  0.00     0.180 HD
HETATM    3  C10 UNL     1      -3.010   3.250  68.605  1.00  0.00     0.183 C 
HETATM    4  N6  UNL     1      -2.273   2.883  69.406  1.00  0.00    -0.172 NA
ENDROOT
BRANCH   1   5
HETATM    5  C9  UNL     1      -5.299   3.606  67.837  1.00  0.00     0.183 C 
HETATM    6  N4  UNL     1      -5.665   2.734  68.707  1.00  0.00    -0.249 N 
ATOM      7  H4  UNL     1      -4.956   2.176  69.183  1.00  0.00     0.196 HD
BRANCH   5   8
HETATM    8  C8  UNL     1      -6.290   4.396  67.168  1.00  0.00     0.226 C 
HETATM    9  O6  UNL     1      -6.895   5.288  67.812  1.00  0.00    -0.286 OA
BRANCH   8  10
HETATM   10  C7  UNL     1      -6.669   4.240  65.742  1.00  0.00     0.222 C 
BRANCH  10  11
HETATM   11  C6  UNL     1      -7.705   3.223  65.460  1.00  0.00     0.167 C 
BRANCH  11  12
HETATM   12  N3  UNL     1      -8.499   3.087  66.704  1.00  0.00    -0.348 N 
HETATM   13  C5  UNL     1      -9.911   3.094  66.738  1.00  0.00     0.246 C 
HETATM   14  O4  UNL     1     -10.507   3.217  65.645  1.00  0.00    -0.271 OA
ATOM     15  H3  UNL     1      -7.998   2.982  67.586  1.00  0.00     0.163 HD
BRANCH  13  16
HETATM   16  C4  UNL     1     -10.622   2.957  68.044  1.00  0.00     0.223 C 
BRANCH  16  17
HETATM   17  N2  UNL     1      -9.867   3.405  69.150  1.00  0.00    -0.372 N 
ATOM     18  H2  UNL     1      -9.270   2.753  69.659  1.00  0.00     0.157 HD
BRANCH  17  19
HETATM   19  C3  UNL     1      -9.938   4.757  69.552  1.00  0.00     0.310 C 
BRANCH  19  20
HETATM   20  C2  UNL     1      -8.767   5.120  70.386  1.00  0.00     0.289 C 
HETATM   21  N1  UNL     1      -8.222   6.451  70.373  1.00  0.00    -0.232 N 
ATOM     22  H1  UNL     1      -8.664   7.151  69.776  1.00  0.00     0.197 HD
HETATM   23  O2  UNL     1      -8.168   4.312  71.161  1.00  0.00    -0.266 OA
BRANCH  21  24
HETATM   24  O1  UNL     1      -7.164   6.814  71.109  1.00  0.00    -0.283 OA
HETATM   25  C1  UNL     1      -7.517   7.728  72.084  1.00  0.00     0.237 C 
ENDBRANCH  21  24
ENDBRANCH  19  20
BRANCH  19  26
HETATM   26  O3  UNL     1      -9.894   5.560  68.407  1.00  0.00    -0.368 OA
ATOM     27  H3  UNL     1      -9.324   5.128  67.783  1.00  0.00     0.212 HD
ENDBRANCH  19  26
ENDBRANCH  17  19
ENDBRANCH  16  17
BRANCH  16  28
HETATM   28  C14 UNL     1     -10.906   1.451  68.249  1.00  0.00     0.049 A 
HETATM   29  C15 UNL     1     -12.178   1.030  68.555  1.00  0.00     0.081 A 
HETATM   30  S1  UNL     1     -11.976  -0.657  68.710  1.00  0.00    -0.064 SA
HETATM   31  C16 UNL     1     -10.307  -0.741  68.381  1.00  0.00     0.142 A 
HETATM   32  N8  UNL     1      -9.974   0.529  68.167  1.00  0.00    -0.338 N 
ATOM     33  H8  UNL     1      -9.011   0.783  67.942  1.00  0.00     0.168 HD
BRANCH  31  34
HETATM   34  N7  UNL     1      -9.514  -1.798  68.352  1.00  0.00    -0.380 N 
ATOM     35  H72 UNL     1      -8.720  -1.997  68.960  1.00  0.00     0.158 HD
ATOM     36  H71 UNL     1      -9.544  -2.610  67.734  1.00  0.00     0.158 HD
ENDBRANCH  31  34
ENDBRANCH  16  28
ENDBRANCH  13  16
ENDBRANCH  11  12
BRANCH  11  37
HETATM   37  C11 UNL     1      -7.343   1.896  64.960  1.00  0.00     0.190 C 
HETATM   38  C12 UNL     1      -8.154   1.049  64.090  1.00  0.00     0.229 C 
HETATM   39  O9  UNL     1      -8.474   0.162  65.180  1.00  0.00    -0.315 OA
HETATM   40  C13 UNL     1      -7.419   0.785  65.899  1.00  0.00     0.298 C 
HETATM   41  O10 UNL     1      -6.809   0.442  66.967  1.00  0.00    -0.262 OA
BRANCH  37  42
HETATM   42  O8  UNL     1      -6.009   1.994  64.441  1.00  0.00    -0.376 OA
ATOM     43  H8  UNL     1      -5.942   2.837  64.009  1.00  0.00     0.211 HD
ENDBRANCH  37  42
ENDBRANCH  11  37
ENDBRANCH  10  11
BRANCH  10  44
HETATM   44  O5  UNL     1      -6.908   5.455  65.102  1.00  0.00    -0.385 OA
ATOM     45  H5  UNL     1      -7.773   5.806  65.277  1.00  0.00     0.210 HD
ENDBRANCH  10  44
ENDBRANCH   8  10
ENDBRANCH   5   8
BRANCH   6  46
HETATM   46  O7  UNL     1      -6.985   2.537  69.007  1.00  0.00    -0.288 OA
ATOM     47  H7  UNL     1      -7.306   2.606  69.898  1.00  0.00     0.244 HD
ENDBRANCH   6  46
ENDBRANCH   1   5
TORSDOF 17
ENDMDL
MODEL 3
REMARK VINA RESULT: -6.747474531      3.864      5.854
REMARK  17 active torsions:
REMARK  status: ('A' for Active; 'I' for Inactive)
REMARK    1  A    between atoms: O1_2  and  N1_3 
REMARK       I    between atoms: N1_3  and  C2_5 
REMARK    2  A    between atoms: C2_5  and  C3_7 
REMARK    3  A    between atoms: C3_7  and  O3_8 
REMARK    4  A    between atoms: C3_7  and  N2_10 
REMARK    5  A    between atoms: N2_10  and  C4_12 
REMARK    6  A    between atoms: C4_12  and  C5_13 
REMARK    7  A    between atoms: C4_12  and  C14_39 
REMARK       I    between atoms: C5_13  and  N3_15 
REMARK    8  A    between atoms: N3_15  and  C6_17 
REMARK    9  A    between atoms: C6_17  and  C7_18 
REMARK   10  A    between atoms: C6_17  and  C11_32 
REMARK   11  A    between atoms: C7_18  and  O5_19 
REMARK   12  A    between atoms: C7_18  and  C8_21 
REMARK   13  A    between atoms: C8_21  and  C9_23 
REMARK   14  A    between atoms: C9_23  and  N5_28 
REMARK   15  A    between atoms: N4_24  and  O7_26 
REMARK   16  A    between atoms: C11_32  and  O8_33 
REMARK   17  A    between atoms: C16_42  and  N7_43 
ROOT
HETATM    1  N5  UNL     1      -6.885   4.580  66.598  1.00  0.00    -0.275 N 
ATOM      2  H5  UNL     1      -6.212   4.087  67.184  1.00  0.00     0.180 HD
HETATM    3  C10 UNL     1      -7.451   5.778  67.036  1.00  0.00     0.183 C 
HETATM    4  N6  UNL     1      -7.896   6.772  67.403  1.00  0.00    -0.172 NA
ENDROOT
BRANCH   1   5
HETATM    5  C9  UNL     1      -7.253   4.050  65.325  1.00  0.00     0.183 C 
HETATM    6  N4  UNL     1      -8.048   4.779  64.627  1.00  0.00    -0.249 N 
ATOM      7  H4  UNL     1      -8.374   5.668  65.007  1.00  0.00     0.196 HD
BRANCH   5   8
HETATM    8  C8  UNL     1      -6.787   2.803  64.792  1.00  0.00     0.226 C 
HETATM    9  O6  UNL     1      -6.156   2.802  63.707  1.00  0.00    -0.286 OA
BRANCH   8  10
HETATM   10  C7  UNL     1      -6.997   1.482  65.436  1.00  0.00     0.222 C 
BRANCH  10  11
HETATM   11  C6  UNL     1      -8.247   1.338  66.212  1.00  0.00     0.167 C 
BRANCH  11  12
HETATM   12  N3  UNL     1      -7.938   0.406  67.323  1.00  0.00    -0.348 N 
HETATM   13  C5  UNL     1      -7.928   0.784  68.684  1.00  0.00     0.246 C 
HETATM   14  O4  UNL     1      -8.205   1.976  68.946  1.00  0.00    -0.271 OA
ATOM     15  H3  UNL     1      -7.720  -0.562  67.092  1.00  0.00     0.163 HD
BRANCH  13  16
HETATM   16  C4  UNL     1      -7.598  -0.227  69.732  1.00  0.00     0.223 C 
BRANCH  16  17
HETATM   17  N2  UNL     1      -7.028  -1.412  69.216  1.00  0.00    -0.372 N 
ATOM     18  H2  UNL     1      -7.629  -2.153  68.855  1.00  0.00     0.157 HD
BRANCH  17  19
HETATM   19  C3  UNL     1      -5.625  -1.571  69.200  1.00  0.00     0.310 C 
BRANCH  19  20
HETATM   20  C2  UNL     1      -5.143  -2.112  70.494  1.00  0.00     0.289 C 
HETATM   21  N1  UNL     1      -3.977  -1.574  71.142  1.00  0.00    -0.232 N 
ATOM     22  H1  UNL     1      -3.483  -0.802  70.692  1.00  0.00     0.197 HD
HETATM   23  O2  UNL     1      -5.704  -3.062  71.121  1.00  0.00    -0.266 OA
BRANCH  21  24
HETATM   24  O1  UNL     1      -3.509  -2.039  72.307  1.00  0.00    -0.283 OA
HETATM   25  C1  UNL     1      -2.363  -2.791  72.127  1.00  0.00     0.237 C 
ENDBRANCH  21  24
ENDBRANCH  19  20
BRANCH  19  26
HETATM   26  O3  UNL     1      -5.298  -2.507  68.213  1.00  0.00    -0.368 OA
ATOM     27  H3  UNL     1      -6.107  -2.756  67.783  1.00  0.00     0.212 HD
ENDBRANCH  19  26
ENDBRANCH  17  19
ENDBRANCH  16  17
BRANCH  16  28
HETATM   28  C14 UNL     1      -8.925  -0.609  70.426  1.00  0.00     0.049 A 
HETATM   29  C15 UNL     1      -8.907  -1.117  71.703  1.00  0.00     0.081 A 
HETATM   30  S1  UNL     1     -10.561  -1.403  72.006  1.00  0.00    -0.064 SA
HETATM   31  C16 UNL     1     -11.184  -0.869  70.513  1.00  0.00     0.142 A 
HETATM   32  N8  UNL     1     -10.097  -0.493  69.845  1.00  0.00    -0.338 N 
ATOM     33  H8  UNL     1     -10.172  -0.122  68.898  1.00  0.00     0.168 HD
BRANCH  31  34
HETATM   34  N7  UNL     1     -12.438  -0.836  70.096  1.00  0.00    -0.380 N 
ATOM     35  H72 UNL     1     -13.282  -0.981  70.650  1.00  0.00     0.158 HD
ATOM     36  H71 UNL     1     -12.802  -0.656  69.159  1.00  0.00     0.158 HD
ENDBRANCH  31  34
ENDBRANCH  16  28
ENDBRANCH  13  16
ENDBRANCH  11  12
BRANCH  11  37
HETATM   37  C11 UNL     1      -9.495   0.933  65.564  1.00  0.00     0.190 C 
HETATM   38  C12 UNL     1     -10.206   1.668  64.522  1.00  0.00     0.229 C 
HETATM   39  O9  UNL     1     -11.233   2.075  65.449  1.00  0.00    -0.315 OA
HETATM   40  C13 UNL     1     -10.724   1.083  66.330  1.00  0.00     0.298 C 
HETATM   41  O10 UNL     1     -11.217   0.562  67.386  1.00  0.00    -0.262 OA
BRANCH  37  42
HETATM   42  O8  UNL     1      -9.338  -0.439  65.173  1.00  0.00    -0.376 OA
ATOM     43  H8  UNL     1      -8.491  -0.510  64.750  1.00  0.00     0.211 HD
ENDBRANCH  37  42
ENDBRANCH  11  37
ENDBRANCH  10  11
BRANCH  10  44
HETATM   44  O5  UNL     1      -6.758   0.410  64.577  1.00  0.00    -0.385 OA
ATOM     45  H5  UNL     1      -5.938  -0.036  64.756  1.00  0.00     0.210 HD
ENDBRANCH  10  44
ENDBRANCH   8  10
ENDBRANCH   5   8
BRANCH   6  46
HETATM   46  O7  UNL     1      -8.466   4.389  63.384  1.00  0.00    -0.288 OA
ATOM     47  H7  UNL     1      -8.812   3.518  63.228  1.00  0.00     0.244 HD
ENDBRANCH   6  46
ENDBRANCH   1   5
TORSDOF 17
ENDMDL
MODEL 4
REMARK VINA RESULT: -6.710662675      1.423      2.352
REMARK  17 active torsions:
REMARK  status: ('A' for Active; 'I' for Inactive)
REMARK    1  A    between atoms: O1_2  and  N1_3 
REMARK       I    between atoms: N1_3  and  C2_5 
REMARK    2  A    between atoms: C2_5  and  C3_7 
REMARK    3  A    between atoms: C3_7  and  O3_8 
REMARK    4  A    between atoms: C3_7  and  N2_10 
REMARK    5  A    between atoms: N2_10  and  C4_12 
REMARK    6  A    between atoms: C4_12  and  C5_13 
REMARK    7  A    between atoms: C4_12  and  C14_39 
REMARK       I    between atoms: C5_13  and  N3_15 
REMARK    8  A    between atoms: N3_15  and  C6_17 
REMARK    9  A    between atoms: C6_17  and  C7_18 
REMARK   10  A    between atoms: C6_17  and  C11_32 
REMARK   11  A    between atoms: C7_18  and  O5_19 
REMARK   12  A    between atoms: C7_18  and  C8_21 
REMARK   13  A    between atoms: C8_21  and  C9_23 
REMARK   14  A    between atoms: C9_23  and  N5_28 
REMARK   15  A    between atoms: N4_24  and  O7_26 
REMARK   16  A    between atoms: C11_32  and  O8_33 
REMARK   17  A    between atoms: C16_42  and  N7_43 
ROOT
HETATM    1  N5  UNL     1      -9.326   1.255  64.546  1.00  0.00    -0.275 N 
ATOM      2  H5  UNL     1      -9.689   0.380  64.169  1.00  0.00     0.180 HD
HETATM    3  C10 UNL     1      -9.897   2.472  64.170  1.00  0.00     0.183 C 
HETATM    4  N6  UNL     1     -10.388   3.464  63.864  1.00  0.00    -0.172 NA
ENDROOT
BRANCH   1   5
HETATM    5  C9  UNL     1      -8.230   1.243  65.461  1.00  0.00     0.183 C 
HETATM    6  N4  UNL     1      -8.334   0.421  66.443  1.00  0.00    -0.249 N 
ATOM      7  H4  UNL     1      -9.171  -0.157  66.524  1.00  0.00     0.196 HD
BRANCH   5   8
HETATM    8  C8  UNL     1      -7.054   2.053  65.339  1.00  0.00     0.226 C 
HETATM    9  O6  UNL     1      -5.978   1.515  64.981  1.00  0.00    -0.286 OA
BRANCH   8  10
HETATM   10  C7  UNL     1      -7.005   3.512  65.609  1.00  0.00     0.222 C 
BRANCH  10  11
HETATM   11  C6  UNL     1      -6.916   3.897  67.034  1.00  0.00     0.167 C 
BRANCH  11  12
HETATM   12  N3  UNL     1      -5.984   2.933  67.666  1.00  0.00    -0.348 N 
HETATM   13  C5  UNL     1      -4.880   3.314  68.460  1.00  0.00     0.246 C 
HETATM   14  O4  UNL     1      -4.700   4.540  68.634  1.00  0.00    -0.271 OA
ATOM     15  H3  UNL     1      -6.149   1.938  67.518  1.00  0.00     0.163 HD
BRANCH  13  16
HETATM   16  C4  UNL     1      -3.994   2.267  69.049  1.00  0.00     0.223 C 
BRANCH  16  17
HETATM   17  N2  UNL     1      -4.404   1.832  70.329  1.00  0.00    -0.372 N 
ATOM     18  H2  UNL     1      -4.070   2.313  71.164  1.00  0.00     0.157 HD
BRANCH  17  19
HETATM   19  C3  UNL     1      -5.278   0.729  70.452  1.00  0.00     0.310 C 
BRANCH  19  20
HETATM   20  C2  UNL     1      -6.664   1.185  70.719  1.00  0.00     0.289 C 
HETATM   21  N1  UNL     1      -7.798   0.373  70.371  1.00  0.00    -0.232 N 
ATOM     22  H1  UNL     1      -7.631  -0.535  69.936  1.00  0.00     0.197 HD
HETATM   23  O2  UNL     1      -6.956   2.294  71.263  1.00  0.00    -0.266 OA
BRANCH  21  24
HETATM   24  O1  UNL     1      -9.064   0.752  70.592  1.00  0.00    -0.283 OA
HETATM   25  C1  UNL     1      -9.640   0.017  71.611  1.00  0.00     0.237 C 
ENDBRANCH  21  24
ENDBRANCH  19  20
BRANCH  19  26
HETATM   26  O3  UNL     1      -5.297   0.043  69.233  1.00  0.00    -0.368 OA
ATOM     27  H3  UNL     1      -4.842  -0.780  69.369  1.00  0.00     0.212 HD
ENDBRANCH  19  26
ENDBRANCH  17  19
ENDBRANCH  16  17
BRANCH  16  28
HETATM   28  C14 UNL     1      -2.588   2.894  69.196  1.00  0.00     0.049 A 
HETATM   29  C15 UNL     1      -1.857   2.674  70.339  1.00  0.00     0.081 A 
HETATM   30  S1  UNL     1      -0.438   3.573  70.044  1.00  0.00    -0.064 SA
HETATM   31  C16 UNL     1      -0.840   4.175  68.502  1.00  0.00     0.142 A 
HETATM   32  N8  UNL     1      -2.046   3.661  68.278  1.00  0.00    -0.338 N 
ATOM     33  H8  UNL     1      -2.542   3.859  67.409  1.00  0.00     0.168 HD
BRANCH  31  34
HETATM   34  N7  UNL     1      -0.142   4.969  67.707  1.00  0.00    -0.380 N 
ATOM     35  H72 UNL     1       0.712   4.744  67.198  1.00  0.00     0.158 HD
ATOM     36  H71 UNL     1      -0.322   5.939  67.446  1.00  0.00     0.158 HD
ENDBRANCH  31  34
ENDBRANCH  16  28
ENDBRANCH  13  16
ENDBRANCH  11  12
BRANCH  11  37
HETATM   37  C11 UNL     1      -8.120   4.029  67.857  1.00  0.00     0.190 C 
HETATM   38  C12 UNL     1      -9.409   4.557  67.423  1.00  0.00     0.229 C 
HETATM   39  O9  UNL     1      -9.204   5.781  68.156  1.00  0.00    -0.315 OA
HETATM   40  C13 UNL     1      -8.148   5.112  68.830  1.00  0.00     0.298 C 
HETATM   41  O10 UNL     1      -7.505   5.407  69.893  1.00  0.00    -0.262 OA
BRANCH  37  42
HETATM   42  O8  UNL     1      -8.305   2.775  68.529  1.00  0.00    -0.376 OA
ATOM     43  H8  UNL     1      -8.834   2.950  69.298  1.00  0.00     0.211 HD
ENDBRANCH  37  42
ENDBRANCH  11  37
ENDBRANCH  10  11
BRANCH  10  44
HETATM   44  O5  UNL     1      -6.093   4.189  64.801  1.00  0.00    -0.385 OA
ATOM     45  H5  UNL     1      -6.046   3.841  63.919  1.00  0.00     0.210 HD
ENDBRANCH  10  44
ENDBRANCH   8  10
ENDBRANCH   5   8
BRANCH   6  46
HETATM   46  O7  UNL     1      -7.346   0.304  67.382  1.00  0.00    -0.288 OA
ATOM     47  H7  UNL     1      -6.731  -0.420  67.367  1.00  0.00     0.244 HD
ENDBRANCH   6  46
ENDBRANCH   1   5
TORSDOF 17
ENDMDL
MODEL 5
REMARK VINA RESULT: -6.610104032      3.917      8.250
REMARK  17 active torsions:
REMARK  status: ('A' for Active; 'I' for Inactive)
REMARK    1  A    between atoms: O1_2  and  N1_3 
REMARK       I    between atoms: N1_3  and  C2_5 
REMARK    2  A    between atoms: C2_5  and  C3_7 
REMARK    3  A    between atoms: C3_7  and  O3_8 
REMARK    4  A    between atoms: C3_7  and  N2_10 
REMARK    5  A    between atoms: N2_10  and  C4_12 
REMARK    6  A    between atoms: C4_12  and  C5_13 
REMARK    7  A    between atoms: C4_12  and  C14_39 
REMARK       I    between atoms: C5_13  and  N3_15 
REMARK    8  A    between atoms: N3_15  and  C6_17 
REMARK    9  A    between atoms: C6_17  and  C7_18 
REMARK   10  A    between atoms: C6_17  and  C11_32 
REMARK   11  A    between atoms: C7_18  and  O5_19 
REMARK   12  A    between atoms: C7_18  and  C8_21 
REMARK   13  A    between atoms: C8_21  and  C9_23 
REMARK   14  A    between atoms: C9_23  and  N5_28 
REMARK   15  A    between atoms: N4_24  and  O7_26 
REMARK   16  A    between atoms: C11_32  and  O8_33 
REMARK   17  A    between atoms: C16_42  and  N7_43 
ROOT
HETATM    1  N5  UNL     1      -4.601   3.648  67.484  1.00  0.00    -0.275 N 
ATOM      2  H5  UNL     1      -3.875   3.876  66.806  1.00  0.00     0.180 HD
HETATM    3  C10 UNL     1      -4.263   3.062  68.704  1.00  0.00     0.183 C 
HETATM    4  N6  UNL     1      -3.967   2.594  69.711  1.00  0.00    -0.172 NA
ENDROOT
BRANCH   1   5
HETATM    5  C9  UNL     1      -5.970   3.926  67.190  1.00  0.00     0.183 C 
HETATM    6  N4  UNL     1      -6.744   4.050  68.209  1.00  0.00    -0.249 N 
ATOM      7  H4  UNL     1      -6.357   3.939  69.146  1.00  0.00     0.196 HD
BRANCH   5   8
HETATM    8  C8  UNL     1      -6.508   4.088  65.871  1.00  0.00     0.226 C 
HETATM    9  O6  UNL     1      -6.882   5.228  65.501  1.00  0.00    -0.286 OA
BRANCH   8  10
HETATM   10  C7  UNL     1      -6.661   2.990  64.884  1.00  0.00     0.222 C 
BRANCH  10  11
HETATM   11  C6  UNL     1      -7.998   2.361  64.827  1.00  0.00     0.167 C 
BRANCH  11  12
HETATM   12  N3  UNL     1      -8.954   3.375  65.332  1.00  0.00    -0.348 N 
HETATM   13  C5  UNL     1     -10.125   3.762  64.644  1.00  0.00     0.246 C 
HETATM   14  O4  UNL     1     -10.354   3.200  63.549  1.00  0.00    -0.271 OA
ATOM     15  H3  UNL     1      -8.755   3.819  66.228  1.00  0.00     0.163 HD
BRANCH  13  16
HETATM   16  C4  UNL     1     -11.023   4.799  65.233  1.00  0.00     0.223 C 
BRANCH  16  17
HETATM   17  N2  UNL     1     -10.447   5.498  66.317  1.00  0.00    -0.372 N 
ATOM     18  H2  UNL     1      -9.603   5.141  66.764  1.00  0.00     0.157 HD
BRANCH  17  19
HETATM   19  C3  UNL     1     -11.043   6.691  66.783  1.00  0.00     0.310 C 
BRANCH  19  20
HETATM   20  C2  UNL     1     -10.094   7.455  67.628  1.00  0.00     0.289 C 
HETATM   21  N1  UNL     1      -9.390   6.830  68.715  1.00  0.00    -0.232 N 
ATOM     22  H1  UNL     1      -9.553   5.839  68.894  1.00  0.00     0.197 HD
HETATM   23  O2  UNL     1      -9.829   8.686  67.467  1.00  0.00    -0.266 OA
BRANCH  21  24
HETATM   24  O1  UNL     1      -8.530   7.488  69.503  1.00  0.00    -0.283 OA
HETATM   25  C1  UNL     1      -8.473   6.928  70.766  1.00  0.00     0.237 C 
ENDBRANCH  21  24
ENDBRANCH  19  20
BRANCH  19  26
HETATM   26  O3  UNL     1     -11.348   7.492  65.677  1.00  0.00    -0.368 OA
ATOM     27  H3  UNL     1     -11.307   6.936  64.908  1.00  0.00     0.212 HD
ENDBRANCH  19  26
ENDBRANCH  17  19
ENDBRANCH  16  17
BRANCH  16  28
HETATM   28  C14 UNL     1     -12.277   4.065  65.761  1.00  0.00     0.049 A 
HETATM   29  C15 UNL     1     -13.519   4.631  65.600  1.00  0.00     0.081 A 
HETATM   30  S1  UNL     1     -14.540   3.491  66.354  1.00  0.00    -0.064 SA
HETATM   31  C16 UNL     1     -13.351   2.366  66.828  1.00  0.00     0.142 A 
HETATM   32  N8  UNL     1     -12.221   2.912  66.388  1.00  0.00    -0.338 N 
ATOM     33  H8  UNL     1     -11.326   2.445  66.536  1.00  0.00     0.168 HD
BRANCH  31  34
HETATM   34  N7  UNL     1     -13.494   1.226  67.483  1.00  0.00    -0.380 N 
ATOM     35  H72 UNL     1     -14.018   1.065  68.342  1.00  0.00     0.158 HD
ATOM     36  H71 UNL     1     -13.124   0.302  67.258  1.00  0.00     0.158 HD
ENDBRANCH  31  34
ENDBRANCH  16  28
ENDBRANCH  13  16
ENDBRANCH  11  12
BRANCH  11  37
HETATM   37  C11 UNL     1      -8.256   1.075  65.478  1.00  0.00     0.190 C 
HETATM   38  C12 UNL     1      -9.280   0.106  65.100  1.00  0.00     0.229 C 
HETATM   39  O9  UNL     1     -10.086   0.445  66.246  1.00  0.00    -0.315 OA
HETATM   40  C13 UNL     1      -8.938   1.103  66.764  1.00  0.00     0.298 C 
HETATM   41  O10 UNL     1      -8.670   1.532  67.936  1.00  0.00    -0.262 OA
BRANCH  37  42
HETATM   42  O8  UNL     1      -6.989   0.418  65.621  1.00  0.00    -0.376 OA
ATOM     43  H8  UNL     1      -7.166  -0.457  65.946  1.00  0.00     0.211 HD
ENDBRANCH  37  42
ENDBRANCH  11  37
ENDBRANCH  10  11
BRANCH  10  44
HETATM   44  O5  UNL     1      -6.152   3.308  63.626  1.00  0.00    -0.385 OA
ATOM     45  H5  UNL     1      -6.639   3.997  63.190  1.00  0.00     0.210 HD
ENDBRANCH  10  44
ENDBRANCH   8  10
ENDBRANCH   5   8
BRANCH   6  46
HETATM   46  O7  UNL     1      -8.076   4.330  68.063  1.00  0.00    -0.288 OA
ATOM     47  H7  UNL     1      -8.435   5.173  68.312  1.00  0.00     0.244 HD
ENDBRANCH   6  46
ENDBRANCH   1   5
TORSDOF 17
ENDMDL
