MODEL 1
REMARK VINA RESULT: -8.319596224      0.000      0.000
REMARK  12 active torsions:
REMARK  status: ('A' for Active; 'I' for Inactive)
REMARK    1  A    between atoms: N1_1  and  C1_5 
REMARK    2  A    between atoms: C6_10  and  N2_11 
REMARK    3  A    between atoms: N2_11  and  C7_13 
REMARK    4  A    between atoms: C7_13  and  C8_14 
REMARK    5  A    between atoms: C8_14  and  C9_15 
REMARK    6  A    between atoms: C9_15  and  C10_16 
REMARK    7  A    between atoms: C10_16  and  C11_17 
REMARK    8  A    between atoms: C11_17  and  C12_18 
REMARK    9  A    between atoms: C12_18  and  N3_19 
REMARK   10  A    between atoms: N3_19  and  C13_21 
REMARK   11  A    between atoms: C16_26  and  C17_27 
REMARK   12  A    between atoms: C17_27  and  C18_28 
ROOT
HETATM    1  C11 UNL     1     184.837 126.084  32.241  1.00  0.00     0.020 C 
ENDROOT
BRANCH   1   2
HETATM    2  C10 UNL     1     183.405 126.065  31.708  1.00  0.00     0.002 C 
BRANCH   2   3
HETATM    3  C9  UNL     1     183.109 127.330  30.976  1.00  0.00     0.002 C 
BRANCH   3   4
HETATM    4  C8  UNL     1     183.057 127.185  29.510  1.00  0.00     0.019 C 
BRANCH   4   5
HETATM    5  C7  UNL     1     184.016 128.170  28.826  1.00  0.00     0.114 C 
BRANCH   5   6
HETATM    6  N2  UNL     1     183.343 128.891  27.794  1.00  0.00    -0.415 N 
ATOM      7  H2  UNL     1     182.366 129.155  27.918  1.00  0.00     0.153 HD
BRANCH   6   8
HETATM    8  C6  UNL     1     184.009 129.240  26.613  1.00  0.00     0.106 C 
HETATM    9  C1  UNL     1     183.125 129.790  25.542  1.00  0.00     0.205 C 
HETATM   10  C2  UNL     1     181.921 128.871  25.463  1.00  0.00     0.035 C 
HETATM   11  C3  UNL     1     182.306 127.421  25.614  1.00  0.00     0.002 C 
HETATM   12  C4  UNL     1     183.730 127.103  25.342  1.00  0.00     0.002 C 
HETATM   13  C5  UNL     1     184.717 128.041  25.989  1.00  0.00     0.027 C 
BRANCH   9  14
HETATM   14  N1  UNL     1     182.714 131.128  25.773  1.00  0.00    -0.073 N 
ATOM     15  H13 UNL     1     183.472 131.791  25.609  1.00  0.00     0.274 HD
ATOM     16  H12 UNL     1     182.068 131.456  25.054  1.00  0.00     0.274 HD
ATOM     17  H11 UNL     1     182.320 131.225  26.709  1.00  0.00     0.274 HD
ENDBRANCH   9  14
ENDBRANCH   6   8
ENDBRANCH   5   6
ENDBRANCH   4   5
ENDBRANCH   3   4
ENDBRANCH   2   3
ENDBRANCH   1   2
BRANCH   1  18
HETATM   18  C12 UNL     1     185.720 125.193  31.406  1.00  0.00     0.119 C 
BRANCH  18  19
HETATM   19  N3  UNL     1     185.017 124.387  30.458  1.00  0.00    -0.390 N 
ATOM     20  H3  UNL     1     184.683 124.834  29.604  1.00  0.00     0.159 HD
BRANCH  19  21
HETATM   21  C13 UNL     1     184.757 123.011  30.630  1.00  0.00     0.031 A 
HETATM   22  C14 UNL     1     183.758 122.326  30.011  1.00  0.00     0.046 A 
HETATM   23  C15 UNL     1     183.546 120.966  30.228  1.00  0.00     0.090 A 
HETATM   24  N4  UNL     1     184.363 120.307  31.085  1.00  0.00    -0.369 N 
HETATM   25  C16 UNL     1     185.359 120.950  31.715  1.00  0.00     0.015 A 
ATOM     26  H4  UNL     1     184.219 119.311  31.253  1.00  0.00     0.165 HD
HETATM   27  C24 UNL     1     185.571 122.285  31.504  1.00  0.00     0.054 A 
BRANCH  25  28
HETATM   28  C17 UNL     1     186.222 120.211  32.652  1.00  0.00     0.095 C 
BRANCH  28  29
HETATM   29  C18 UNL     1     187.656 120.565  32.366  1.00  0.00    -0.053 A 
HETATM   30  C19 UNL     1     188.199 120.114  31.191  1.00  0.00     0.007 A 
HETATM   31  C20 UNL     1     189.526 120.441  30.935  1.00  0.00     0.001 A 
HETATM   32  C21 UNL     1     190.300 121.182  31.794  1.00  0.00     0.000 A 
HETATM   33  C22 UNL     1     189.714 121.619  32.972  1.00  0.00     0.001 A 
HETATM   34  C23 UNL     1     188.391 121.312  33.263  1.00  0.00     0.007 A 
ENDBRANCH  28  29
ENDBRANCH  25  28
ENDBRANCH  19  21
ENDBRANCH  18  19
ENDBRANCH   1  18
TORSDOF 12
ENDMDL
MODEL 2
REMARK VINA RESULT: -8.041108764      2.925      8.024
REMARK  12 active torsions:
REMARK  status: ('A' for Active; 'I' for Inactive)
REMARK    1  A    between atoms: N1_1  and  C1_5 
REMARK    2  A    between atoms: C6_10  and  N2_11 
REMARK    3  A    between atoms: N2_11  and  C7_13 
REMARK    4  A    between atoms: C7_13  and  C8_14 
REMARK    5  A    between atoms: C8_14  and  C9_15 
REMARK    6  A    between atoms: C9_15  and  C10_16 
REMARK    7  A    between atoms: C10_16  and  C11_17 
REMARK    8  A    between atoms: C11_17  and  C12_18 
REMARK    9  A    between atoms: C12_18  and  N3_19 
REMARK   10  A    between atoms: N3_19  and  C13_21 
REMARK   11  A    between atoms: C16_26  and  C17_27 
REMARK   12  A    between atoms: C17_27  and  C18_28 
ROOT
HETATM    1  C11 UNL     1     187.690 127.855  34.251  1.00  0.00     0.020 C 
ENDROOT
BRANCH   1   2
HETATM    2  C10 UNL     1     188.329 126.627  33.604  1.00  0.00     0.002 C 
BRANCH   2   3
HETATM    3  C9  UNL     1     187.275 125.665  33.169  1.00  0.00     0.002 C 
BRANCH   3   4
HETATM    4  C8  UNL     1     187.357 125.279  31.748  1.00  0.00     0.019 C 
BRANCH   4   5
HETATM    5  C7  UNL     1     188.649 124.499  31.464  1.00  0.00     0.114 C 
BRANCH   5   6
HETATM    6  N2  UNL     1     188.422 123.094  31.571  1.00  0.00    -0.415 N 
ATOM      7  H2  UNL     1     187.791 122.634  30.915  1.00  0.00     0.153 HD
BRANCH   6   8
HETATM    8  C6  UNL     1     189.053 122.341  32.567  1.00  0.00     0.106 C 
HETATM    9  C1  UNL     1     189.740 121.109  32.071  1.00  0.00     0.205 C 
HETATM   10  C2  UNL     1     188.766 120.421  31.135  1.00  0.00     0.035 C 
HETATM   11  C3  UNL     1     187.350 120.480  31.649  1.00  0.00     0.002 C 
HETATM   12  C4  UNL     1     187.205 120.742  33.103  1.00  0.00     0.002 C 
HETATM   13  C5  UNL     1     188.065 121.863  33.626  1.00  0.00     0.027 C 
BRANCH   9  14
HETATM   14  N1  UNL     1     190.968 121.369  31.408  1.00  0.00    -0.073 N 
ATOM     15  H13 UNL     1     191.643 121.822  32.025  1.00  0.00     0.274 HD
ATOM     16  H12 UNL     1     191.485 120.510  31.220  1.00  0.00     0.274 HD
ATOM     17  H11 UNL     1     190.808 121.910  30.558  1.00  0.00     0.274 HD
ENDBRANCH   9  14
ENDBRANCH   6   8
ENDBRANCH   5   6
ENDBRANCH   4   5
ENDBRANCH   3   4
ENDBRANCH   2   3
ENDBRANCH   1   2
BRANCH   1  18
HETATM   18  C12 UNL     1     187.950 129.083  33.417  1.00  0.00     0.119 C 
BRANCH  18  19
HETATM   19  N3  UNL     1     186.797 129.593  32.744  1.00  0.00    -0.390 N 
ATOM     20  H3  UNL     1     186.392 130.466  33.083  1.00  0.00     0.159 HD
BRANCH  19  21
HETATM   21  C13 UNL     1     186.184 128.965  31.640  1.00  0.00     0.031 A 
HETATM   22  C14 UNL     1     186.639 129.027  30.359  1.00  0.00     0.046 A 
HETATM   23  C15 UNL     1     185.984 128.390  29.307  1.00  0.00     0.090 A 
HETATM   24  N4  UNL     1     184.857 127.687  29.571  1.00  0.00    -0.369 N 
HETATM   25  C16 UNL     1     184.377 127.603  30.822  1.00  0.00     0.015 A 
ATOM     26  H4  UNL     1     184.367 127.215  28.811  1.00  0.00     0.165 HD
HETATM   27  C24 UNL     1     185.018 128.226  31.858  1.00  0.00     0.054 A 
BRANCH  25  28
HETATM   28  C17 UNL     1     183.142 126.843  31.077  1.00  0.00     0.095 C 
BRANCH  28  29
HETATM   29  C18 UNL     1     183.513 125.481  31.596  1.00  0.00    -0.053 A 
HETATM   30  C19 UNL     1     183.882 124.531  30.679  1.00  0.00     0.007 A 
HETATM   31  C20 UNL     1     184.220 123.273  31.164  1.00  0.00     0.001 A 
HETATM   32  C21 UNL     1     184.200 122.948  32.499  1.00  0.00     0.000 A 
HETATM   33  C22 UNL     1     183.821 123.937  33.394  1.00  0.00     0.001 A 
HETATM   34  C23 UNL     1     183.476 125.205  32.947  1.00  0.00     0.007 A 
ENDBRANCH  28  29
ENDBRANCH  25  28
ENDBRANCH  19  21
ENDBRANCH  18  19
ENDBRANCH   1  18
TORSDOF 12
ENDMDL
MODEL 3
REMARK VINA RESULT: -7.992292175      1.185      1.590
REMARK  12 active torsions:
REMARK  status: ('A' for Active; 'I' for Inactive)
REMARK    1  A    between atoms: N1_1  and  C1_5 
REMARK    2  A    between atoms: C6_10  and  N2_11 
REMARK    3  A    between atoms: N2_11  and  C7_13 
REMARK    4  A    between atoms: C7_13  and  C8_14 
REMARK    5  A    between atoms: C8_14  and  C9_15 
REMARK    6  A    between atoms: C9_15  and  C10_16 
REMARK    7  A    between atoms: C10_16  and  C11_17 
REMARK    8  A    between atoms: C11_17  and  C12_18 
REMARK    9  A    between atoms: C12_18  and  N3_19 
REMARK   10  A    between atoms: N3_19  and  C13_21 
REMARK   11  A    between atoms: C16_26  and  C17_27 
REMARK   12  A    between atoms: C17_27  and  C18_28 
ROOT
HETATM    1  C11 UNL     1     183.364 126.064  30.853  1.00  0.00     0.020 C 
ENDROOT
BRANCH   1   2
HETATM    2  C10 UNL     1     183.279 127.563  30.569  1.00  0.00     0.002 C 
BRANCH   2   3
HETATM    3  C9  UNL     1     184.567 128.056  30.001  1.00  0.00     0.002 C 
BRANCH   3   4
HETATM    4  C8  UNL     1     184.665 129.523  29.903  1.00  0.00     0.019 C 
BRANCH   4   5
HETATM    5  C7  UNL     1     185.017 129.956  28.472  1.00  0.00     0.114 C 
BRANCH   5   6
HETATM    6  N2  UNL     1     183.936 129.676  27.583  1.00  0.00    -0.415 N 
ATOM      7  H2  UNL     1     182.978 129.692  27.933  1.00  0.00     0.153 HD
BRANCH   6   8
HETATM    8  C6  UNL     1     184.175 129.379  26.237  1.00  0.00     0.106 C 
HETATM    9  C1  UNL     1     182.944 129.264  25.398  1.00  0.00     0.205 C 
HETATM   10  C2  UNL     1     181.970 128.402  26.179  1.00  0.00     0.035 C 
HETATM   11  C3  UNL     1     182.661 127.255  26.873  1.00  0.00     0.002 C 
HETATM   12  C4  UNL     1     183.992 126.885  26.331  1.00  0.00     0.002 C 
HETATM   13  C5  UNL     1     184.911 128.052  26.073  1.00  0.00     0.027 C 
BRANCH   9  14
HETATM   14  N1  UNL     1     182.354 130.513  25.077  1.00  0.00    -0.073 N 
ATOM     15  H13 UNL     1     181.464 130.399  24.591  1.00  0.00     0.274 HD
ATOM     16  H12 UNL     1     182.013 130.997  25.908  1.00  0.00     0.274 HD
ATOM     17  H11 UNL     1     183.006 131.090  24.544  1.00  0.00     0.274 HD
ENDBRANCH   9  14
ENDBRANCH   6   8
ENDBRANCH   5   6
ENDBRANCH   4   5
ENDBRANCH   3   4
ENDBRANCH   2   3
ENDBRANCH   1   2
BRANCH   1  18
HETATM   18  C12 UNL     1     184.128 125.364  29.759  1.00  0.00     0.119 C 
BRANCH  18  19
HETATM   19  N3  UNL     1     183.519 124.156  29.295  1.00  0.00    -0.390 N 
ATOM     20  H3  UNL     1     182.881 124.216  28.502  1.00  0.00     0.159 HD
BRANCH  19  21
HETATM   21  C13 UNL     1     183.747 122.887  29.866  1.00  0.00     0.031 A 
HETATM   22  C14 UNL     1     183.064 121.755  29.544  1.00  0.00     0.046 A 
HETATM   23  C15 UNL     1     183.330 120.530  30.150  1.00  0.00     0.090 A 
HETATM   24  N4  UNL     1     184.301 120.465  31.093  1.00  0.00    -0.369 N 
HETATM   25  C16 UNL     1     184.996 121.562  31.438  1.00  0.00     0.015 A 
ATOM     26  H4  UNL     1     184.507 119.575  31.545  1.00  0.00     0.165 HD
HETATM   27  C24 UNL     1     184.739 122.767  30.844  1.00  0.00     0.054 A 
BRANCH  25  28
HETATM   28  C17 UNL     1     186.037 121.465  32.476  1.00  0.00     0.095 C 
BRANCH  28  29
HETATM   29  C18 UNL     1     187.382 121.417  31.806  1.00  0.00    -0.053 A 
HETATM   30  C19 UNL     1     188.015 122.609  31.566  1.00  0.00     0.007 A 
HETATM   31  C20 UNL     1     189.256 122.558  30.943  1.00  0.00     0.001 A 
HETATM   32  C21 UNL     1     189.864 121.386  30.564  1.00  0.00     0.000 A 
HETATM   33  C22 UNL     1     189.191 120.202  30.824  1.00  0.00     0.001 A 
HETATM   34  C23 UNL     1     187.949 120.212  31.445  1.00  0.00     0.007 A 
ENDBRANCH  28  29
ENDBRANCH  25  28
ENDBRANCH  19  21
ENDBRANCH  18  19
ENDBRANCH   1  18
TORSDOF 12
ENDMDL
MODEL 4
REMARK VINA RESULT: -7.905737886      1.474      3.408
REMARK  12 active torsions:
REMARK  status: ('A' for Active; 'I' for Inactive)
REMARK    1  A    between atoms: N1_1  and  C1_5 
REMARK    2  A    between atoms: C6_10  and  N2_11 
REMARK    3  A    between atoms: N2_11  and  C7_13 
REMARK    4  A    between atoms: C7_13  and  C8_14 
REMARK    5  A    between atoms: C8_14  and  C9_15 
REMARK    6  A    between atoms: C9_15  and  C10_16 
REMARK    7  A    between atoms: C10_16  and  C11_17 
REMARK    8  A    between atoms: C11_17  and  C12_18 
REMARK    9  A    between atoms: C12_18  and  N3_19 
REMARK   10  A    between atoms: N3_19  and  C13_21 
REMARK   11  A    between atoms: C16_26  and  C17_27 
REMARK   12  A    between atoms: C17_27  and  C18_28 
ROOT
HETATM    1  C11 UNL     1     184.345 125.876  32.753  1.00  0.00     0.020 C 
ENDROOT
BRANCH   1   2
HETATM    2  C10 UNL     1     183.506 125.627  31.502  1.00  0.00     0.002 C 
BRANCH   2   3
HETATM    3  C9  UNL     1     183.143 126.921  30.855  1.00  0.00     0.002 C 
BRANCH   3   4
HETATM    4  C8  UNL     1     183.246 126.915  29.385  1.00  0.00     0.019 C 
BRANCH   4   5
HETATM    5  C7  UNL     1     184.080 128.105  28.888  1.00  0.00     0.114 C 
BRANCH   5   6
HETATM    6  N2  UNL     1     183.384 128.810  27.859  1.00  0.00    -0.415 N 
ATOM      7  H2  UNL     1     182.405 129.061  27.994  1.00  0.00     0.153 HD
BRANCH   6   8
HETATM    8  C6  UNL     1     184.031 129.161  26.669  1.00  0.00     0.106 C 
HETATM    9  C1  UNL     1     183.129 129.712  25.612  1.00  0.00     0.205 C 
HETATM   10  C2  UNL     1     181.925 128.792  25.551  1.00  0.00     0.035 C 
HETATM   11  C3  UNL     1     182.314 127.341  25.694  1.00  0.00     0.002 C 
HETATM   12  C4  UNL     1     183.734 127.025  25.399  1.00  0.00     0.002 C 
HETATM   13  C5  UNL     1     184.729 127.964  26.032  1.00  0.00     0.027 C 
BRANCH   9  14
HETATM   14  N1  UNL     1     182.721 131.049  25.851  1.00  0.00    -0.073 N 
ATOM     15  H13 UNL     1     181.707 131.152  25.796  1.00  0.00     0.274 HD
ATOM     16  H12 UNL     1     182.847 131.315  26.828  1.00  0.00     0.274 HD
ATOM     17  H11 UNL     1     183.202 131.689  25.219  1.00  0.00     0.274 HD
ENDBRANCH   9  14
ENDBRANCH   6   8
ENDBRANCH   5   6
ENDBRANCH   4   5
ENDBRANCH   3   4
ENDBRANCH   2   3
ENDBRANCH   1   2
BRANCH   1  18
HETATM   18  C12 UNL     1     185.790 126.090  32.383  1.00  0.00     0.119 C 
BRANCH  18  19
HETATM   19  N3  UNL     1     186.700 125.184  33.011  1.00  0.00    -0.390 N 
ATOM     20  H3  UNL     1     187.076 125.439  33.925  1.00  0.00     0.159 HD
BRANCH  19  21
HETATM   21  C13 UNL     1     187.112 123.959  32.446  1.00  0.00     0.031 A 
HETATM   22  C14 UNL     1     188.247 123.782  31.716  1.00  0.00     0.046 A 
HETATM   23  C15 UNL     1     188.596 122.547  31.176  1.00  0.00     0.090 A 
HETATM   24  N4  UNL     1     187.778 121.487  31.385  1.00  0.00    -0.369 N 
HETATM   25  C16 UNL     1     186.649 121.624  32.100  1.00  0.00     0.015 A 
ATOM     26  H4  UNL     1     188.021 120.577  30.996  1.00  0.00     0.165 HD
HETATM   27  C24 UNL     1     186.303 122.835  32.633  1.00  0.00     0.054 A 
BRANCH  25  28
HETATM   28  C17 UNL     1     185.771 120.458  32.300  1.00  0.00     0.095 C 
BRANCH  28  29
HETATM   29  C18 UNL     1     184.514 120.659  31.498  1.00  0.00    -0.053 A 
HETATM   30  C19 UNL     1     183.430 119.881  31.811  1.00  0.00     0.007 A 
HETATM   31  C20 UNL     1     182.273 120.068  31.063  1.00  0.00     0.001 A 
HETATM   32  C21 UNL     1     182.174 120.983  30.044  1.00  0.00     0.000 A 
HETATM   33  C22 UNL     1     183.292 121.751  29.759  1.00  0.00     0.001 A 
HETATM   34  C23 UNL     1     184.466 121.593  30.484  1.00  0.00     0.007 A 
ENDBRANCH  28  29
ENDBRANCH  25  28
ENDBRANCH  19  21
ENDBRANCH  18  19
ENDBRANCH   1  18
TORSDOF 12
ENDMDL
MODEL 5
REMARK VINA RESULT: -7.894622426      3.569      8.598
REMARK  12 active torsions:
REMARK  status: ('A' for Active; 'I' for Inactive)
REMARK    1  A    between atoms: N1_1  and  C1_5 
REMARK    2  A    between atoms: C6_10  and  N2_11 
REMARK    3  A    between atoms: N2_11  and  C7_13 
REMARK    4  A    between atoms: C7_13  and  C8_14 
REMARK    5  A    between atoms: C8_14  and  C9_15 
REMARK    6  A    between atoms: C9_15  and  C10_16 
REMARK    7  A    between atoms: C10_16  and  C11_17 
REMARK    8  A    between atoms: C11_17  and  C12_18 
REMARK    9  A    between atoms: C12_18  and  N3_19 
REMARK   10  A    between atoms: N3_19  and  C13_21 
REMARK   11  A    between atoms: C16_26  and  C17_27 
REMARK   12  A    between atoms: C17_27  and  C18_28 
ROOT
HETATM    1  C11 UNL     1     189.487 121.018  30.642  1.00  0.00     0.020 C 
ENDROOT
BRANCH   1   2
HETATM    2  C10 UNL     1     189.718 122.372  31.310  1.00  0.00     0.002 C 
BRANCH   2   3
HETATM    3  C9  UNL     1     190.866 122.291  32.259  1.00  0.00     0.002 C 
BRANCH   3   4
HETATM    4  C8  UNL     1     191.138 123.543  32.990  1.00  0.00     0.019 C 
BRANCH   4   5
HETATM    5  C7  UNL     1     192.599 123.979  32.807  1.00  0.00     0.114 C 
BRANCH   5   6
HETATM    6  N2  UNL     1     192.844 124.354  31.451  1.00  0.00    -0.415 N 
ATOM      7  H2  UNL     1     192.090 124.757  30.895  1.00  0.00     0.153 HD
BRANCH   6   8
HETATM    8  C6  UNL     1     194.107 124.175  30.876  1.00  0.00     0.106 C 
HETATM    9  C1  UNL     1     194.182 124.519  29.424  1.00  0.00     0.205 C 
HETATM   10  C2  UNL     1     192.977 123.875  28.766  1.00  0.00     0.035 C 
HETATM   11  C3  UNL     1     192.697 122.502  29.322  1.00  0.00     0.002 C 
HETATM   12  C4  UNL     1     193.834 121.843  30.011  1.00  0.00     0.002 C 
HETATM   13  C5  UNL     1     194.575 122.727  30.981  1.00  0.00     0.027 C 
BRANCH   9  14
HETATM   14  N1  UNL     1     194.202 125.915  29.169  1.00  0.00    -0.073 N 
ATOM     15  H13 UNL     1     195.150 126.260  29.022  1.00  0.00     0.274 HD
ATOM     16  H12 UNL     1     193.815 126.138  28.252  1.00  0.00     0.274 HD
ATOM     17  H11 UNL     1     193.724 126.421  29.915  1.00  0.00     0.274 HD
ENDBRANCH   9  14
ENDBRANCH   6   8
ENDBRANCH   5   6
ENDBRANCH   4   5
ENDBRANCH   3   4
ENDBRANCH   2   3
ENDBRANCH   1   2
BRANCH   1  18
HETATM   18  C12 UNL     1     188.335 120.299  31.295  1.00  0.00     0.119 C 
BRANCH  18  19
HETATM   19  N3  UNL     1     187.593 121.095  32.223  1.00  0.00    -0.390 N 
ATOM     20  H3  UNL     1     188.103 121.543  32.984  1.00  0.00     0.159 HD
BRANCH  19  21
HETATM   21  C13 UNL     1     186.200 121.298  32.151  1.00  0.00     0.031 A 
HETATM   22  C14 UNL     1     185.300 120.373  31.719  1.00  0.00     0.046 A 
HETATM   23  C15 UNL     1     183.933 120.637  31.664  1.00  0.00     0.090 A 
HETATM   24  N4  UNL     1     183.487 121.856  32.051  1.00  0.00    -0.369 N 
HETATM   25  C16 UNL     1     184.346 122.795  32.482  1.00  0.00     0.015 A 
ATOM     26  H4  UNL     1     182.490 122.063  32.016  1.00  0.00     0.165 HD
HETATM   27  C24 UNL     1     185.688 122.540  32.539  1.00  0.00     0.054 A 
BRANCH  25  28
HETATM   28  C17 UNL     1     183.834 124.117  32.883  1.00  0.00     0.095 C 
BRANCH  28  29
HETATM   29  C18 UNL     1     183.653 124.958  31.650  1.00  0.00    -0.053 A 
HETATM   30  C19 UNL     1     183.350 126.284  31.824  1.00  0.00     0.007 A 
HETATM   31  C20 UNL     1     183.180 127.055  30.680  1.00  0.00     0.001 A 
HETATM   32  C21 UNL     1     183.300 126.553  29.407  1.00  0.00     0.000 A 
HETATM   33  C22 UNL     1     183.607 125.208  29.273  1.00  0.00     0.001 A 
HETATM   34  C23 UNL     1     183.785 124.406  30.393  1.00  0.00     0.007 A 
ENDBRANCH  28  29
ENDBRANCH  25  28
ENDBRANCH  19  21
ENDBRANCH  18  19
ENDBRANCH   1  18
TORSDOF 12
ENDMDL
