MODEL 1
REMARK VINA RESULT: -7.559485557      0.000      0.000
REMARK  13 active torsions:
REMARK  status: ('A' for Active; 'I' for Inactive)
REMARK    1  A    between atoms: N1_1  and  C1_5 
REMARK    2  A    between atoms: C1_5  and  C2_6 
REMARK    3  A    between atoms: C2_6  and  C3_7 
REMARK    4  A    between atoms: C3_7  and  C4_8 
REMARK    5  A    between atoms: C4_8  and  N2_9 
REMARK    6  A    between atoms: N2_9  and  C5_11 
REMARK    7  A    between atoms: C5_11  and  O1_12 
REMARK    8  A    between atoms: C5_11  and  C6_14 
REMARK    9  A    between atoms: C9_17  and  C10_18 
REMARK   10  A    between atoms: C10_18  and  C11_19 
REMARK   11  A    between atoms: C11_19  and  C12_20 
REMARK   12  A    between atoms: C12_20  and  C13_21 
REMARK   13  A    between atoms: C13_21  and  C14_22 
ROOT
HETATM    1  C6  UNL     1     190.028 122.278  30.932  1.00  0.00     0.017 A 
HETATM    2  C7  UNL     1     189.707 120.960  30.661  1.00  0.00     0.014 A 
HETATM    3  C8  UNL     1     188.634 120.329  31.242  1.00  0.00     0.009 A 
HETATM    4  C9  UNL     1     187.837 121.020  32.133  1.00  0.00    -0.046 A 
HETATM    5  C20 UNL     1     188.115 122.320  32.431  1.00  0.00    -0.002 A 
HETATM    6  C21 UNL     1     187.350 123.035  33.291  1.00  0.00     0.015 A 
HETATM    7  C22 UNL     1     187.678 124.360  33.549  1.00  0.00     0.018 A 
HETATM    8  C23 UNL     1     188.757 124.979  32.960  1.00  0.00     0.088 A 
HETATM    9  N3  UNL     1     189.483 124.232  32.115  1.00  0.00    -0.365 N 
ATOM     10  H3  UNL     1     190.288 124.667  31.665  1.00  0.00     0.165 HD
HETATM   11  C24 UNL     1     189.218 122.948  31.824  1.00  0.00     0.053 A 
ENDROOT
BRANCH   1  12
HETATM   12  C5  UNL     1     191.189 122.968  30.311  1.00  0.00     0.250 C 
BRANCH  12  13
HETATM   13  N2  UNL     1     191.926 122.157  29.419  1.00  0.00    -0.393 N 
ATOM     14  H2  UNL     1     191.527 121.296  29.044  1.00  0.00     0.156 HD
BRANCH  13  15
HETATM   15  C4  UNL     1     193.232 122.569  29.057  1.00  0.00     0.116 C 
BRANCH  15  16
HETATM   16  C3  UNL     1     194.045 122.702  30.323  1.00  0.00     0.021 C 
BRANCH  16  17
HETATM   17  C2  UNL     1     194.650 124.074  30.385  1.00  0.00     0.029 C 
BRANCH  17  18
HETATM   18  C1  UNL     1     194.237 124.895  29.193  1.00  0.00     0.229 C 
BRANCH  18  19
HETATM   19  N1  UNL     1     193.370 125.955  29.723  1.00  0.00    -0.079 N 
ATOM     20  H13 UNL     1     192.449 125.625  30.012  1.00  0.00     0.274 HD
ATOM     21  H12 UNL     1     193.663 126.307  30.634  1.00  0.00     0.274 HD
ATOM     22  H11 UNL     1     193.338 126.673  28.998  1.00  0.00     0.274 HD
ENDBRANCH  18  19
ENDBRANCH  17  18
ENDBRANCH  16  17
ENDBRANCH  15  16
ENDBRANCH  13  15
ENDBRANCH  12  13
BRANCH  12  23
HETATM   23  O1  UNL     1     190.796 124.154  29.685  1.00  0.00    -0.373 OA
ATOM     24  H1  UNL     1     191.210 124.903  30.099  1.00  0.00     0.212 HD
ENDBRANCH  12  23
ENDBRANCH   1  12
BRANCH   4  25
HETATM   25  C10 UNL     1     186.694 120.288  32.790  1.00  0.00     0.039 C 
BRANCH  25  26
HETATM   26  C11 UNL     1     185.647 120.114  31.746  1.00  0.00     0.005 C 
BRANCH  26  27
HETATM   27  C12 UNL     1     184.475 120.993  31.785  1.00  0.00     0.001 C 
BRANCH  27  28
HETATM   28  C13 UNL     1     184.249 122.037  30.788  1.00  0.00     0.004 C 
BRANCH  28  29
HETATM   29  C14 UNL     1     183.959 123.422  31.202  1.00  0.00    -0.014 C 
HETATM   30  C15 UNL     1     185.090 124.366  30.813  1.00  0.00     0.004 C 
HETATM   31  C16 UNL     1     184.680 125.755  31.184  1.00  0.00     0.000 C 
HETATM   32  C17 UNL     1     184.477 125.871  32.681  1.00  0.00     0.000 C 
HETATM   33  C18 UNL     1     183.531 124.798  33.174  1.00  0.00     0.000 C 
HETATM   34  C19 UNL     1     183.982 123.435  32.760  1.00  0.00     0.004 C 
ENDBRANCH  28  29
ENDBRANCH  27  28
ENDBRANCH  26  27
ENDBRANCH  25  26
ENDBRANCH   4  25
TORSDOF 13
ENDMDL
MODEL 2
REMARK VINA RESULT: -7.342103729      4.151      7.107
REMARK  13 active torsions:
REMARK  status: ('A' for Active; 'I' for Inactive)
REMARK    1  A    between atoms: N1_1  and  C1_5 
REMARK    2  A    between atoms: C1_5  and  C2_6 
REMARK    3  A    between atoms: C2_6  and  C3_7 
REMARK    4  A    between atoms: C3_7  and  C4_8 
REMARK    5  A    between atoms: C4_8  and  N2_9 
REMARK    6  A    between atoms: N2_9  and  C5_11 
REMARK    7  A    between atoms: C5_11  and  O1_12 
REMARK    8  A    between atoms: C5_11  and  C6_14 
REMARK    9  A    between atoms: C9_17  and  C10_18 
REMARK   10  A    between atoms: C10_18  and  C11_19 
REMARK   11  A    between atoms: C11_19  and  C12_20 
REMARK   12  A    between atoms: C12_20  and  C13_21 
REMARK   13  A    between atoms: C13_21  and  C14_22 
ROOT
HETATM    1  C6  UNL     1     183.746 124.654  29.541  1.00  0.00     0.017 A 
HETATM    2  C7  UNL     1     183.690 123.420  28.919  1.00  0.00     0.014 A 
HETATM    3  C8  UNL     1     183.660 122.241  29.624  1.00  0.00     0.009 A 
HETATM    4  C9  UNL     1     183.687 122.270  31.004  1.00  0.00    -0.046 A 
HETATM    5  C20 UNL     1     183.742 123.463  31.659  1.00  0.00    -0.002 A 
HETATM    6  C21 UNL     1     183.758 123.534  33.012  1.00  0.00     0.015 A 
HETATM    7  C22 UNL     1     183.805 124.780  33.625  1.00  0.00     0.018 A 
HETATM    8  C23 UNL     1     183.836 125.953  32.907  1.00  0.00     0.088 A 
HETATM    9  N3  UNL     1     183.817 125.832  31.571  1.00  0.00    -0.365 N 
ATOM     10  H3  UNL     1     183.838 126.687  31.015  1.00  0.00     0.165 HD
HETATM   11  C24 UNL     1     183.771 124.659  30.919  1.00  0.00     0.053 A 
ENDROOT
BRANCH   1  12
HETATM   12  C5  UNL     1     183.782 125.935  28.787  1.00  0.00     0.250 C 
BRANCH  12  13
HETATM   13  N2  UNL     1     184.279 125.809  27.470  1.00  0.00    -0.393 N 
ATOM     14  H2  UNL     1     185.213 125.436  27.298  1.00  0.00     0.156 HD
BRANCH  13  15
HETATM   15  C4  UNL     1     183.450 126.214  26.396  1.00  0.00     0.116 C 
BRANCH  15  16
HETATM   16  C3  UNL     1     184.018 127.492  25.826  1.00  0.00     0.021 C 
BRANCH  16  17
HETATM   17  C2  UNL     1     182.924 128.512  25.703  1.00  0.00     0.029 C 
BRANCH  17  18
HETATM   18  C1  UNL     1     181.573 127.848  25.674  1.00  0.00     0.229 C 
BRANCH  18  19
HETATM   19  N1  UNL     1     180.810 128.453  26.773  1.00  0.00    -0.079 N 
ATOM     20  H13 UNL     1     180.390 129.351  26.533  1.00  0.00     0.274 HD
ATOM     21  H12 UNL     1     179.939 127.965  26.984  1.00  0.00     0.274 HD
ATOM     22  H11 UNL     1     181.454 128.501  27.562  1.00  0.00     0.274 HD
ENDBRANCH  18  19
ENDBRANCH  17  18
ENDBRANCH  16  17
ENDBRANCH  15  16
ENDBRANCH  13  15
ENDBRANCH  12  13
BRANCH  12  23
HETATM   23  O1  UNL     1     182.529 126.553  28.781  1.00  0.00    -0.373 OA
ATOM     24  H1  UNL     1     182.529 127.301  28.194  1.00  0.00     0.212 HD
ENDBRANCH  12  23
ENDBRANCH   1  12
BRANCH   4  25
HETATM   25  C10 UNL     1     183.699 120.959  31.750  1.00  0.00     0.039 C 
BRANCH  25  26
HETATM   26  C11 UNL     1     185.000 120.306  31.436  1.00  0.00     0.005 C 
BRANCH  26  27
HETATM   27  C12 UNL     1     186.114 120.495  32.370  1.00  0.00     0.001 C 
BRANCH  27  28
HETATM   28  C13 UNL     1     187.439 120.919  31.929  1.00  0.00     0.004 C 
BRANCH  28  29
HETATM   29  C14 UNL     1     187.836 122.338  31.993  1.00  0.00    -0.014 C 
HETATM   30  C15 UNL     1     187.144 123.055  33.145  1.00  0.00     0.004 C 
HETATM   31  C16 UNL     1     187.665 124.456  33.195  1.00  0.00     0.000 C 
HETATM   32  C17 UNL     1     187.326 125.199  31.920  1.00  0.00     0.000 C 
HETATM   33  C18 UNL     1     187.785 124.415  30.709  1.00  0.00     0.000 C 
HETATM   34  C19 UNL     1     187.248 123.021  30.722  1.00  0.00     0.004 C 
ENDBRANCH  28  29
ENDBRANCH  27  28
ENDBRANCH  26  27
ENDBRANCH  25  26
ENDBRANCH   4  25
TORSDOF 13
ENDMDL
MODEL 3
REMARK VINA RESULT: -7.283987751      2.176      4.281
REMARK  13 active torsions:
REMARK  status: ('A' for Active; 'I' for Inactive)
REMARK    1  A    between atoms: N1_1  and  C1_5 
REMARK    2  A    between atoms: C1_5  and  C2_6 
REMARK    3  A    between atoms: C2_6  and  C3_7 
REMARK    4  A    between atoms: C3_7  and  C4_8 
REMARK    5  A    between atoms: C4_8  and  N2_9 
REMARK    6  A    between atoms: N2_9  and  C5_11 
REMARK    7  A    between atoms: C5_11  and  O1_12 
REMARK    8  A    between atoms: C5_11  and  C6_14 
REMARK    9  A    between atoms: C9_17  and  C10_18 
REMARK   10  A    between atoms: C10_18  and  C11_19 
REMARK   11  A    between atoms: C11_19  and  C12_20 
REMARK   12  A    between atoms: C12_20  and  C13_21 
REMARK   13  A    between atoms: C13_21  and  C14_22 
ROOT
HETATM    1  C6  UNL     1     189.531 123.380  33.694  1.00  0.00     0.017 A 
HETATM    2  C7  UNL     1     188.228 123.062  34.030  1.00  0.00     0.014 A 
HETATM    3  C8  UNL     1     187.538 122.043  33.420  1.00  0.00     0.009 A 
HETATM    4  C9  UNL     1     188.151 121.300  32.431  1.00  0.00    -0.046 A 
HETATM    5  C20 UNL     1     189.434 121.578  32.067  1.00  0.00    -0.002 A 
HETATM    6  C21 UNL     1     190.075 120.864  31.109  1.00  0.00     0.015 A 
HETATM    7  C22 UNL     1     191.387 121.188  30.786  1.00  0.00     0.018 A 
HETATM    8  C23 UNL     1     192.065 122.212  31.405  1.00  0.00     0.088 A 
HETATM    9  N3  UNL     1     191.391 122.888  32.347  1.00  0.00    -0.365 N 
ATOM     10  H3  UNL     1     191.872 123.652  32.822  1.00  0.00     0.165 HD
HETATM   11  C24 UNL     1     190.123 122.625  32.705  1.00  0.00     0.053 A 
ENDROOT
BRANCH   1  12
HETATM   12  C5  UNL     1     190.285 124.482  34.347  1.00  0.00     0.250 C 
BRANCH  12  13
HETATM   13  N2  UNL     1     189.481 125.583  34.718  1.00  0.00    -0.393 N 
ATOM     14  H2  UNL     1     189.061 125.635  35.646  1.00  0.00     0.156 HD
BRANCH  13  15
HETATM   15  C4  UNL     1     189.273 126.615  33.769  1.00  0.00     0.116 C 
BRANCH  15  16
HETATM   16  C3  UNL     1     187.801 126.951  33.763  1.00  0.00     0.021 C 
BRANCH  16  17
HETATM   17  C2  UNL     1     187.127 126.215  32.642  1.00  0.00     0.029 C 
BRANCH  17  18
HETATM   18  C1  UNL     1     188.047 126.087  31.457  1.00  0.00     0.229 C 
BRANCH  18  19
HETATM   19  N1  UNL     1     187.729 124.789  30.847  1.00  0.00    -0.079 N 
ATOM     20  H13 UNL     1     186.772 124.724  30.499  1.00  0.00     0.274 HD
ATOM     21  H12 UNL     1     188.194 124.632  29.952  1.00  0.00     0.274 HD
ATOM     22  H11 UNL     1     187.956 124.090  31.553  1.00  0.00     0.274 HD
ENDBRANCH  18  19
ENDBRANCH  17  18
ENDBRANCH  16  17
ENDBRANCH  15  16
ENDBRANCH  13  15
ENDBRANCH  12  13
BRANCH  12  23
HETATM   23  O1  UNL     1     191.014 124.016  35.443  1.00  0.00    -0.373 OA
ATOM     24  H1  UNL     1     191.357 123.147  35.271  1.00  0.00     0.212 HD
ENDBRANCH  12  23
ENDBRANCH   1  12
BRANCH   4  25
HETATM   25  C10 UNL     1     187.354 120.218  31.747  1.00  0.00     0.039 C 
BRANCH  25  26
HETATM   26  C11 UNL     1     186.074 120.096  32.499  1.00  0.00     0.005 C 
BRANCH  26  27
HETATM   27  C12 UNL     1     184.822 120.365  31.785  1.00  0.00     0.001 C 
BRANCH  27  28
HETATM   28  C13 UNL     1     184.657 121.519  30.907  1.00  0.00     0.004 C 
BRANCH  28  29
HETATM   29  C14 UNL     1     184.654 122.888  31.456  1.00  0.00    -0.014 C 
HETATM   30  C15 UNL     1     183.794 122.981  32.710  1.00  0.00     0.004 C 
HETATM   31  C16 UNL     1     183.916 124.370  33.251  1.00  0.00     0.000 C 
HETATM   32  C17 UNL     1     183.389 125.381  32.254  1.00  0.00     0.000 C 
HETATM   33  C18 UNL     1     184.044 125.188  30.903  1.00  0.00     0.000 C 
HETATM   34  C19 UNL     1     183.904 123.780  30.422  1.00  0.00     0.004 C 
ENDBRANCH  28  29
ENDBRANCH  27  28
ENDBRANCH  26  27
ENDBRANCH  25  26
ENDBRANCH   4  25
TORSDOF 13
ENDMDL
MODEL 4
REMARK VINA RESULT: -7.282420639      2.660      5.043
REMARK  13 active torsions:
REMARK  status: ('A' for Active; 'I' for Inactive)
REMARK    1  A    between atoms: N1_1  and  C1_5 
REMARK    2  A    between atoms: C1_5  and  C2_6 
REMARK    3  A    between atoms: C2_6  and  C3_7 
REMARK    4  A    between atoms: C3_7  and  C4_8 
REMARK    5  A    between atoms: C4_8  and  N2_9 
REMARK    6  A    between atoms: N2_9  and  C5_11 
REMARK    7  A    between atoms: C5_11  and  O1_12 
REMARK    8  A    between atoms: C5_11  and  C6_14 
REMARK    9  A    between atoms: C9_17  and  C10_18 
REMARK   10  A    between atoms: C10_18  and  C11_19 
REMARK   11  A    between atoms: C11_19  and  C12_20 
REMARK   12  A    between atoms: C12_20  and  C13_21 
REMARK   13  A    between atoms: C13_21  and  C14_22 
ROOT
HETATM    1  C6  UNL     1     186.903 122.438  32.934  1.00  0.00     0.017 A 
HETATM    2  C7  UNL     1     186.929 123.773  33.295  1.00  0.00     0.014 A 
HETATM    3  C8  UNL     1     185.827 124.587  33.189  1.00  0.00     0.009 A 
HETATM    4  C9  UNL     1     184.642 124.070  32.706  1.00  0.00    -0.046 A 
HETATM    5  C20 UNL     1     184.569 122.760  32.338  1.00  0.00    -0.002 A 
HETATM    6  C21 UNL     1     183.421 122.213  31.871  1.00  0.00     0.015 A 
HETATM    7  C22 UNL     1     183.405 120.868  31.520  1.00  0.00     0.018 A 
HETATM    8  C23 UNL     1     184.516 120.066  31.630  1.00  0.00     0.088 A 
HETATM    9  N3  UNL     1     185.628 120.652  32.099  1.00  0.00    -0.365 N 
ATOM     10  H3  UNL     1     186.467 120.078  32.191  1.00  0.00     0.165 HD
HETATM   11  C24 UNL     1     185.709 121.944  32.455  1.00  0.00     0.053 A 
ENDROOT
BRANCH   1  12
HETATM   12  C5  UNL     1     188.091 121.551  33.043  1.00  0.00     0.250 C 
BRANCH  12  13
HETATM   13  N2  UNL     1     189.060 121.768  32.037  1.00  0.00    -0.393 N 
ATOM     14  H2  UNL     1     189.510 122.677  31.933  1.00  0.00     0.156 HD
BRANCH  13  15
HETATM   15  C4  UNL     1     189.390 120.691  31.178  1.00  0.00     0.116 C 
BRANCH  15  16
HETATM   16  C3  UNL     1     190.879 120.459  31.274  1.00  0.00     0.021 C 
BRANCH  16  17
HETATM   17  C2  UNL     1     191.586 121.782  31.341  1.00  0.00     0.029 C 
BRANCH  17  18
HETATM   18  C1  UNL     1     192.682 121.856  30.311  1.00  0.00     0.229 C 
BRANCH  18  19
HETATM   19  N1  UNL     1     192.074 122.479  29.129  1.00  0.00    -0.079 N 
ATOM     20  H13 UNL     1     191.681 121.808  28.469  1.00  0.00     0.274 HD
ATOM     21  H12 UNL     1     191.205 122.975  29.328  1.00  0.00     0.274 HD
ATOM     22  H11 UNL     1     192.800 123.072  28.726  1.00  0.00     0.274 HD
ENDBRANCH  18  19
ENDBRANCH  17  18
ENDBRANCH  16  17
ENDBRANCH  15  16
ENDBRANCH  13  15
ENDBRANCH  12  13
BRANCH  12  23
HETATM   23  O1  UNL     1     188.672 121.636  34.310  1.00  0.00    -0.373 OA
ATOM     24  H1  UNL     1     189.619 121.647  34.243  1.00  0.00     0.212 HD
ENDBRANCH  12  23
ENDBRANCH   1  12
BRANCH   4  25
HETATM   25  C10 UNL     1     183.462 124.997  32.558  1.00  0.00     0.039 C 
BRANCH  25  26
HETATM   26  C11 UNL     1     183.697 125.786  31.316  1.00  0.00     0.005 C 
BRANCH  26  27
HETATM   27  C12 UNL     1     183.749 127.247  31.422  1.00  0.00     0.001 C 
BRANCH  27  28
HETATM   28  C13 UNL     1     185.004 127.972  31.596  1.00  0.00     0.004 C 
BRANCH  28  29
HETATM   29  C14 UNL     1     185.478 128.345  32.942  1.00  0.00    -0.014 C 
HETATM   30  C15 UNL     1     185.450 129.855  33.140  1.00  0.00     0.004 C 
HETATM   31  C16 UNL     1     185.856 130.143  34.549  1.00  0.00     0.000 C 
HETATM   32  C17 UNL     1     187.273 129.671  34.806  1.00  0.00     0.000 C 
HETATM   33  C18 UNL     1     187.430 128.220  34.404  1.00  0.00     0.000 C 
HETATM   34  C19 UNL     1     186.994 127.990  32.993  1.00  0.00     0.004 C 
ENDBRANCH  28  29
ENDBRANCH  27  28
ENDBRANCH  26  27
ENDBRANCH  25  26
ENDBRANCH   4  25
TORSDOF 13
ENDMDL
MODEL 5
REMARK VINA RESULT: -7.248394404      1.581      1.912
REMARK  13 active torsions:
REMARK  status: ('A' for Active; 'I' for Inactive)
REMARK    1  A    between atoms: N1_1  and  C1_5 
REMARK    2  A    between atoms: C1_5  and  C2_6 
REMARK    3  A    between atoms: C2_6  and  C3_7 
REMARK    4  A    between atoms: C3_7  and  C4_8 
REMARK    5  A    between atoms: C4_8  and  N2_9 
REMARK    6  A    between atoms: N2_9  and  C5_11 
REMARK    7  A    between atoms: C5_11  and  O1_12 
REMARK    8  A    between atoms: C5_11  and  C6_14 
REMARK    9  A    between atoms: C9_17  and  C10_18 
REMARK   10  A    between atoms: C10_18  and  C11_19 
REMARK   11  A    between atoms: C11_19  and  C12_20 
REMARK   12  A    between atoms: C12_20  and  C13_21 
REMARK   13  A    between atoms: C13_21  and  C14_22 
ROOT
HETATM    1  C6  UNL     1     190.584 121.532  30.990  1.00  0.00     0.017 A 
HETATM    2  C7  UNL     1     189.584 120.709  30.504  1.00  0.00     0.014 A 
HETATM    3  C8  UNL     1     188.423 120.471  31.200  1.00  0.00     0.009 A 
HETATM    4  C9  UNL     1     188.232 121.064  32.432  1.00  0.00    -0.046 A 
HETATM    5  C20 UNL     1     189.190 121.882  32.950  1.00  0.00    -0.002 A 
HETATM    6  C21 UNL     1     189.035 122.493  34.150  1.00  0.00     0.015 A 
HETATM    7  C22 UNL     1     190.042 123.324  34.623  1.00  0.00     0.018 A 
HETATM    8  C23 UNL     1     191.200 123.553  33.916  1.00  0.00     0.088 A 
HETATM    9  N3  UNL     1     191.307 122.928  32.734  1.00  0.00    -0.365 N 
ATOM     10  H3  UNL     1     192.156 123.082  32.189  1.00  0.00     0.165 HD
HETATM   11  C24 UNL     1     190.370 122.114  32.221  1.00  0.00     0.053 A 
ENDROOT
BRANCH   1  12
HETATM   12  C5  UNL     1     191.843 121.794  30.246  1.00  0.00     0.250 C 
BRANCH  12  13
HETATM   13  N2  UNL     1     191.936 123.103  29.722  1.00  0.00    -0.393 N 
ATOM     14  H2  UNL     1     191.274 123.827  30.003  1.00  0.00     0.156 HD
BRANCH  13  15
HETATM   15  C4  UNL     1     192.971 123.386  28.796  1.00  0.00     0.116 C 
BRANCH  15  16
HETATM   16  C3  UNL     1     193.513 124.760  29.110  1.00  0.00     0.021 C 
BRANCH  16  17
HETATM   17  C2  UNL     1     193.923 124.815  30.552  1.00  0.00     0.029 C 
BRANCH  17  18
HETATM   18  C1  UNL     1     195.383 124.477  30.707  1.00  0.00     0.229 C 
BRANCH  18  19
HETATM   19  N1  UNL     1     195.419 123.190  31.415  1.00  0.00    -0.079 N 
ATOM     20  H13 UNL     1     196.215 123.092  32.044  1.00  0.00     0.274 HD
ATOM     21  H12 UNL     1     194.691 123.092  32.123  1.00  0.00     0.274 HD
ATOM     22  H11 UNL     1     195.381 122.476  30.688  1.00  0.00     0.274 HD
ENDBRANCH  18  19
ENDBRANCH  17  18
ENDBRANCH  16  17
ENDBRANCH  15  16
ENDBRANCH  13  15
ENDBRANCH  12  13
BRANCH  12  23
HETATM   23  O1  UNL     1     192.963 121.498  31.026  1.00  0.00    -0.373 OA
ATOM     24  H1  UNL     1     193.411 120.730  30.691  1.00  0.00     0.212 HD
ENDBRANCH  12  23
ENDBRANCH   1  12
BRANCH   4  25
HETATM   25  C10 UNL     1     186.969 120.747  33.193  1.00  0.00     0.039 C 
BRANCH  25  26
HETATM   26  C11 UNL     1     186.098 119.976  32.264  1.00  0.00     0.005 C 
BRANCH  26  27
HETATM   27  C12 UNL     1     184.775 120.519  31.941  1.00  0.00     0.001 C 
BRANCH  27  28
HETATM   28  C13 UNL     1     184.594 121.623  31.003  1.00  0.00     0.004 C 
BRANCH  28  29
HETATM   29  C14 UNL     1     184.599 123.021  31.474  1.00  0.00    -0.014 C 
HETATM   30  C15 UNL     1     183.768 123.181  32.741  1.00  0.00     0.004 C 
HETATM   31  C16 UNL     1     183.897 124.598  33.201  1.00  0.00     0.000 C 
HETATM   32  C17 UNL     1     183.343 125.551  32.162  1.00  0.00     0.000 C 
HETATM   33  C18 UNL     1     183.967 125.284  30.809  1.00  0.00     0.000 C 
HETATM   34  C19 UNL     1     183.821 123.851  30.410  1.00  0.00     0.004 C 
ENDBRANCH  28  29
ENDBRANCH  27  28
ENDBRANCH  26  27
ENDBRANCH  25  26
ENDBRANCH   4  25
TORSDOF 13
ENDMDL
