MODEL 1
REMARK VINA RESULT: -8.027735159      0.000      0.000
REMARK  13 active torsions:
REMARK  status: ('A' for Active; 'I' for Inactive)
REMARK    1  A    between atoms: C2_2  and  C3_3 
REMARK    2  A    between atoms: C3_3  and  C4_4 
REMARK    3  A    between atoms: C4_4  and  N1_5 
REMARK    4  A    between atoms: N1_5  and  C5_7 
REMARK    5  A    between atoms: C6_10  and  C7_11 
REMARK    6  A    between atoms: C7_11  and  C8_12 
REMARK    7  A    between atoms: C11_15  and  C12_16 
REMARK    8  A    between atoms: C12_16  and  C13_17 
REMARK    9  A    between atoms: C13_17  and  C14_18 
REMARK   10  A    between atoms: C14_18  and  N3_19 
REMARK   11  A    between atoms: C17_25  and  C18_26 
REMARK   12  A    between atoms: C18_26  and  C19_27 
REMARK   13  A    between atoms: C19_27  and  C20_28 
ROOT
HETATM    1  C5  UNL     1     184.808 128.614  27.732  1.00  0.00     0.171 C 
HETATM    2  N2  UNL     1     183.713 128.569  28.395  1.00  0.00    -0.356 N 
ATOM      3  H2  UNL     1     182.784 128.470  27.988  1.00  0.00     0.163 HD
HETATM    4  C6  UNL     1     183.993 128.678  29.789  1.00  0.00     0.111 C 
HETATM    5  C17 UNL     1     185.432 128.340  29.909  1.00  0.00     0.107 C 
HETATM    6  N4  UNL     1     185.919 128.750  28.609  1.00  0.00    -0.356 N 
ATOM      7  H4  UNL     1     186.858 129.068  28.372  1.00  0.00     0.163 HD
ENDROOT
BRANCH   4   8
HETATM    8  C7  UNL     1     183.071 127.915  30.684  1.00  0.00     0.065 C 
BRANCH   8   9
HETATM    9  C8  UNL     1     183.343 126.479  30.762  1.00  0.00    -0.056 A 
HETATM   10  C9  UNL     1     183.445 125.670  29.659  1.00  0.00     0.007 A 
HETATM   11  C10 UNL     1     183.707 124.299  29.746  1.00  0.00     0.007 A 
HETATM   12  C11 UNL     1     183.870 123.722  30.980  1.00  0.00    -0.058 A 
HETATM   13  C15 UNL     1     183.769 124.528  32.097  1.00  0.00     0.007 A 
HETATM   14  C16 UNL     1     183.513 125.863  31.986  1.00  0.00     0.007 A 
BRANCH  12  15
HETATM   15  C12 UNL     1     184.157 122.283  31.096  1.00  0.00     0.040 C 
BRANCH  15  16
HETATM   16  C13 UNL     1     185.280 121.930  32.011  1.00  0.00     0.032 C 
BRANCH  16  17
HETATM   17  C14 UNL     1     185.657 120.473  32.019  1.00  0.00     0.230 C 
BRANCH  17  18
HETATM   18  N3  UNL     1     186.717 120.172  32.932  1.00  0.00    -0.079 N 
ATOM     19  H33 UNL     1     187.149 121.027  33.282  1.00  0.00     0.274 HD
ATOM     20  H32 UNL     1     186.349 119.799  33.807  1.00  0.00     0.274 HD
ATOM     21  H31 UNL     1     187.419 119.545  32.537  1.00  0.00     0.274 HD
ENDBRANCH  17  18
ENDBRANCH  16  17
ENDBRANCH  15  16
ENDBRANCH  12  15
ENDBRANCH   8   9
ENDBRANCH   4   8
BRANCH   5  22
HETATM   22  C18 UNL     1     186.149 129.002  31.056  1.00  0.00     0.028 C 
BRANCH  22  23
HETATM   23  C19 UNL     1     186.469 127.944  32.066  1.00  0.00     0.007 C 
BRANCH  23  24
HETATM   24  C20 UNL     1     186.028 128.369  33.473  1.00  0.00    -0.014 C 
HETATM   25  C21 UNL     1     185.381 129.729  33.441  1.00  0.00     0.004 C 
HETATM   26  C22 UNL     1     185.797 130.388  34.745  1.00  0.00     0.000 C 
HETATM   27  C23 UNL     1     187.248 129.957  34.846  1.00  0.00     0.000 C 
HETATM   28  C24 UNL     1     187.223 128.528  34.380  1.00  0.00     0.004 C 
ENDBRANCH  23  24
ENDBRANCH  22  23
ENDBRANCH   5  22
BRANCH   1  29
HETATM   29  N1  UNL     1     184.821 128.524  26.298  1.00  0.00    -0.362 N 
ATOM     30  H1  UNL     1     185.087 127.635  25.874  1.00  0.00     0.162 HD
BRANCH  29  31
HETATM   31  C4  UNL     1     184.481 129.609  25.435  1.00  0.00     0.122 C 
BRANCH  31  32
HETATM   32  C3  UNL     1     183.030 129.557  25.002  1.00  0.00     0.019 C 
BRANCH  32  33
HETATM   33  C2  UNL     1     182.630 128.131  24.728  1.00  0.00    -0.003 C 
HETATM   34  C1  UNL     1     181.324 127.832  25.455  1.00  0.00     0.005 C 
ENDBRANCH  32  33
ENDBRANCH  31  32
ENDBRANCH  29  31
ENDBRANCH   1  29
TORSDOF 13
ENDMDL
MODEL 2
REMARK VINA RESULT: -7.907293312      2.894      7.284
REMARK  13 active torsions:
REMARK  status: ('A' for Active; 'I' for Inactive)
REMARK    1  A    between atoms: C2_2  and  C3_3 
REMARK    2  A    between atoms: C3_3  and  C4_4 
REMARK    3  A    between atoms: C4_4  and  N1_5 
REMARK    4  A    between atoms: N1_5  and  C5_7 
REMARK    5  A    between atoms: C6_10  and  C7_11 
REMARK    6  A    between atoms: C7_11  and  C8_12 
REMARK    7  A    between atoms: C11_15  and  C12_16 
REMARK    8  A    between atoms: C12_16  and  C13_17 
REMARK    9  A    between atoms: C13_17  and  C14_18 
REMARK   10  A    between atoms: C14_18  and  N3_19 
REMARK   11  A    between atoms: C17_25  and  C18_26 
REMARK   12  A    between atoms: C18_26  and  C19_27 
REMARK   13  A    between atoms: C19_27  and  C20_28 
ROOT
HETATM    1  C5  UNL     1     187.575 124.662  32.144  1.00  0.00     0.171 C 
HETATM    2  N2  UNL     1     186.468 125.053  32.655  1.00  0.00    -0.356 N 
ATOM      3  H2  UNL     1     186.212 126.024  32.830  1.00  0.00     0.163 HD
HETATM    4  C6  UNL     1     185.647 123.922  32.943  1.00  0.00     0.111 C 
HETATM    5  C17 UNL     1     186.220 122.827  32.121  1.00  0.00     0.107 C 
HETATM    6  N4  UNL     1     187.603 123.245  32.034  1.00  0.00    -0.356 N 
ATOM      7  H4  UNL     1     188.423 122.649  31.918  1.00  0.00     0.163 HD
ENDROOT
BRANCH   4   8
HETATM    8  C7  UNL     1     184.178 124.148  32.788  1.00  0.00     0.065 C 
BRANCH   8   9
HETATM    9  C8  UNL     1     183.809 125.070  31.713  1.00  0.00    -0.056 A 
HETATM   10  C9  UNL     1     183.487 126.386  31.927  1.00  0.00     0.007 A 
HETATM   11  C10 UNL     1     183.138 127.259  30.891  1.00  0.00     0.007 A 
HETATM   12  C11 UNL     1     183.110 126.794  29.600  1.00  0.00    -0.058 A 
HETATM   13  C15 UNL     1     183.433 125.470  29.375  1.00  0.00     0.007 A 
HETATM   14  C16 UNL     1     183.770 124.640  30.402  1.00  0.00     0.007 A 
BRANCH  12  15
HETATM   15  C12 UNL     1     182.756 127.697  28.493  1.00  0.00     0.040 C 
BRANCH  15  16
HETATM   16  C13 UNL     1     182.767 127.075  27.138  1.00  0.00     0.032 C 
BRANCH  16  17
HETATM   17  C14 UNL     1     181.774 127.656  26.167  1.00  0.00     0.230 C 
BRANCH  17  18
HETATM   18  N3  UNL     1     180.773 128.460  26.800  1.00  0.00    -0.079 N 
ATOM     19  H33 UNL     1     180.171 127.889  27.393  1.00  0.00     0.274 HD
ATOM     20  H32 UNL     1     181.187 129.062  27.512  1.00  0.00     0.274 HD
ATOM     21  H31 UNL     1     180.221 129.006  26.139  1.00  0.00     0.274 HD
ENDBRANCH  17  18
ENDBRANCH  16  17
ENDBRANCH  15  16
ENDBRANCH  12  15
ENDBRANCH   8   9
ENDBRANCH   4   8
BRANCH   5  22
HETATM   22  C18 UNL     1     186.043 121.444  32.690  1.00  0.00     0.028 C 
BRANCH  22  23
HETATM   23  C19 UNL     1     185.355 120.610  31.655  1.00  0.00     0.007 C 
BRANCH  23  24
HETATM   24  C20 UNL     1     183.873 120.987  31.534  1.00  0.00    -0.014 C 
HETATM   25  C21 UNL     1     182.997 119.901  32.102  1.00  0.00     0.004 C 
HETATM   26  C22 UNL     1     181.765 119.890  31.214  1.00  0.00     0.000 C 
HETATM   27  C23 UNL     1     182.385 120.080  29.842  1.00  0.00     0.000 C 
HETATM   28  C24 UNL     1     183.469 121.094  30.085  1.00  0.00     0.004 C 
ENDBRANCH  23  24
ENDBRANCH  22  23
ENDBRANCH   5  22
BRANCH   1  29
HETATM   29  N1  UNL     1     188.594 125.598  31.757  1.00  0.00    -0.362 N 
ATOM     30  H1  UNL     1     189.215 125.961  32.480  1.00  0.00     0.162 HD
BRANCH  29  31
HETATM   31  C4  UNL     1     188.786 126.047  30.415  1.00  0.00     0.122 C 
BRANCH  31  32
HETATM   32  C3  UNL     1     187.727 127.046  29.994  1.00  0.00     0.019 C 
BRANCH  32  33
HETATM   33  C2  UNL     1     186.820 126.424  28.965  1.00  0.00    -0.003 C 
HETATM   34  C1  UNL     1     186.468 127.470  27.914  1.00  0.00     0.005 C 
ENDBRANCH  32  33
ENDBRANCH  31  32
ENDBRANCH  29  31
ENDBRANCH   1  29
TORSDOF 13
ENDMDL
MODEL 3
REMARK VINA RESULT: -7.899694927      1.264      1.397
REMARK  13 active torsions:
REMARK  status: ('A' for Active; 'I' for Inactive)
REMARK    1  A    between atoms: C2_2  and  C3_3 
REMARK    2  A    between atoms: C3_3  and  C4_4 
REMARK    3  A    between atoms: C4_4  and  N1_5 
REMARK    4  A    between atoms: N1_5  and  C5_7 
REMARK    5  A    between atoms: C6_10  and  C7_11 
REMARK    6  A    between atoms: C7_11  and  C8_12 
REMARK    7  A    between atoms: C11_15  and  C12_16 
REMARK    8  A    between atoms: C12_16  and  C13_17 
REMARK    9  A    between atoms: C13_17  and  C14_18 
REMARK   10  A    between atoms: C14_18  and  N3_19 
REMARK   11  A    between atoms: C17_25  and  C18_26 
REMARK   12  A    between atoms: C18_26  and  C19_27 
REMARK   13  A    between atoms: C19_27  and  C20_28 
ROOT
HETATM    1  C5  UNL     1     184.851 128.947  27.683  1.00  0.00     0.171 C 
HETATM    2  N2  UNL     1     183.755 128.891  28.344  1.00  0.00    -0.356 N 
ATOM      3  H2  UNL     1     182.824 128.828  27.933  1.00  0.00     0.163 HD
HETATM    4  C6  UNL     1     184.037 128.930  29.741  1.00  0.00     0.111 C 
HETATM    5  C17 UNL     1     185.471 128.560  29.843  1.00  0.00     0.107 C 
HETATM    6  N4  UNL     1     185.964 129.022  28.563  1.00  0.00    -0.356 N 
ATOM      7  H4  UNL     1     186.909 129.334  28.340  1.00  0.00     0.163 HD
ENDROOT
BRANCH   4   8
HETATM    8  C7  UNL     1     183.102 128.141  30.600  1.00  0.00     0.065 C 
BRANCH   8   9
HETATM    9  C8  UNL     1     183.344 126.698  30.605  1.00  0.00    -0.056 A 
HETATM   10  C9  UNL     1     183.395 125.939  29.464  1.00  0.00     0.007 A 
HETATM   11  C10 UNL     1     183.629 124.560  29.481  1.00  0.00     0.007 A 
HETATM   12  C11 UNL     1     183.815 123.924  30.682  1.00  0.00    -0.058 A 
HETATM   13  C15 UNL     1     183.765 124.680  31.837  1.00  0.00     0.007 A 
HETATM   14  C16 UNL     1     183.535 126.023  31.794  1.00  0.00     0.007 A 
BRANCH  12  15
HETATM   15  C12 UNL     1     184.073 122.475  30.723  1.00  0.00     0.040 C 
BRANCH  15  16
HETATM   16  C13 UNL     1     183.211 121.650  29.829  1.00  0.00     0.032 C 
BRANCH  16  17
HETATM   17  C14 UNL     1     183.042 120.217  30.258  1.00  0.00     0.230 C 
BRANCH  17  18
HETATM   18  N3  UNL     1     181.842 119.992  31.005  1.00  0.00    -0.079 N 
ATOM     19  H33 UNL     1     181.907 120.411  31.933  1.00  0.00     0.274 HD
ATOM     20  H32 UNL     1     181.070 120.542  30.628  1.00  0.00     0.274 HD
ATOM     21  H31 UNL     1     181.589 119.006  31.068  1.00  0.00     0.274 HD
ENDBRANCH  17  18
ENDBRANCH  16  17
ENDBRANCH  15  16
ENDBRANCH  12  15
ENDBRANCH   8   9
ENDBRANCH   4   8
BRANCH   5  22
HETATM   22  C18 UNL     1     186.200 129.154  31.020  1.00  0.00     0.028 C 
BRANCH  22  23
HETATM   23  C19 UNL     1     186.459 128.052  31.999  1.00  0.00     0.007 C 
BRANCH  23  24
HETATM   24  C20 UNL     1     185.958 128.427  33.400  1.00  0.00    -0.014 C 
HETATM   25  C21 UNL     1     185.286 129.775  33.384  1.00  0.00     0.004 C 
HETATM   26  C22 UNL     1     185.641 130.402  34.721  1.00  0.00     0.000 C 
HETATM   27  C23 UNL     1     187.095 129.994  34.865  1.00  0.00     0.000 C 
HETATM   28  C24 UNL     1     187.114 128.579  34.356  1.00  0.00     0.004 C 
ENDBRANCH  23  24
ENDBRANCH  22  23
ENDBRANCH   5  22
BRANCH   1  29
HETATM   29  N1  UNL     1     184.861 128.925  26.246  1.00  0.00    -0.362 N 
ATOM     30  H1  UNL     1     185.471 129.582  25.758  1.00  0.00     0.162 HD
BRANCH  29  31
HETATM   31  C4  UNL     1     184.066 128.034  25.463  1.00  0.00     0.122 C 
BRANCH  31  32
HETATM   32  C3  UNL     1     182.768 128.676  25.015  1.00  0.00     0.019 C 
BRANCH  32  33
HETATM   33  C2  UNL     1     181.622 127.727  25.251  1.00  0.00    -0.003 C 
HETATM   34  C1  UNL     1     180.930 128.096  26.557  1.00  0.00     0.005 C 
ENDBRANCH  32  33
ENDBRANCH  31  32
ENDBRANCH  29  31
ENDBRANCH   1  29
TORSDOF 13
ENDMDL
MODEL 4
REMARK VINA RESULT: -7.844180809      3.808      8.497
REMARK  13 active torsions:
REMARK  status: ('A' for Active; 'I' for Inactive)
REMARK    1  A    between atoms: C2_2  and  C3_3 
REMARK    2  A    between atoms: C3_3  and  C4_4 
REMARK    3  A    between atoms: C4_4  and  N1_5 
REMARK    4  A    between atoms: N1_5  and  C5_7 
REMARK    5  A    between atoms: C6_10  and  C7_11 
REMARK    6  A    between atoms: C7_11  and  C8_12 
REMARK    7  A    between atoms: C11_15  and  C12_16 
REMARK    8  A    between atoms: C12_16  and  C13_17 
REMARK    9  A    between atoms: C13_17  and  C14_18 
REMARK   10  A    between atoms: C14_18  and  N3_19 
REMARK   11  A    between atoms: C17_25  and  C18_26 
REMARK   12  A    between atoms: C18_26  and  C19_27 
REMARK   13  A    between atoms: C19_27  and  C20_28 
ROOT
HETATM    1  C5  UNL     1     189.493 121.743  31.084  1.00  0.00     0.171 C 
HETATM    2  N2  UNL     1     189.459 122.500  32.117  1.00  0.00    -0.356 N 
ATOM      3  H2  UNL     1     190.139 123.228  32.334  1.00  0.00     0.163 HD
HETATM    4  C6  UNL     1     188.325 122.168  32.917  1.00  0.00     0.111 C 
HETATM    5  C17 UNL     1     187.430 121.418  32.001  1.00  0.00     0.107 C 
HETATM    6  N4  UNL     1     188.393 120.843  31.087  1.00  0.00    -0.356 N 
ATOM      7  H4  UNL     1     188.301 119.976  30.557  1.00  0.00     0.163 HD
ENDROOT
BRANCH   4   8
HETATM    8  C7  UNL     1     187.699 123.317  33.639  1.00  0.00     0.065 C 
BRANCH   8   9
HETATM    9  C8  UNL     1     186.617 123.981  32.911  1.00  0.00    -0.056 A 
HETATM   10  C9  UNL     1     186.821 124.751  31.795  1.00  0.00     0.007 A 
HETATM   11  C10 UNL     1     185.778 125.380  31.107  1.00  0.00     0.007 A 
HETATM   12  C11 UNL     1     184.490 125.231  31.556  1.00  0.00    -0.058 A 
HETATM   13  C15 UNL     1     184.274 124.458  32.681  1.00  0.00     0.007 A 
HETATM   14  C16 UNL     1     185.308 123.856  33.333  1.00  0.00     0.007 A 
BRANCH  12  15
HETATM   15  C12 UNL     1     183.375 125.875  30.842  1.00  0.00     0.040 C 
BRANCH  15  16
HETATM   16  C13 UNL     1     183.375 125.689  29.363  1.00  0.00     0.032 C 
BRANCH  16  17
HETATM   17  C14 UNL     1     183.068 126.930  28.568  1.00  0.00     0.230 C 
BRANCH  17  18
HETATM   18  N3  UNL     1     182.872 128.087  29.388  1.00  0.00    -0.079 N 
ATOM     19  H33 UNL     1     183.236 127.933  30.328  1.00  0.00     0.274 HD
ATOM     20  H32 UNL     1     183.483 128.849  29.094  1.00  0.00     0.274 HD
ATOM     21  H31 UNL     1     181.900 128.394  29.420  1.00  0.00     0.274 HD
ENDBRANCH  17  18
ENDBRANCH  16  17
ENDBRANCH  15  16
ENDBRANCH  12  15
ENDBRANCH   8   9
ENDBRANCH   4   8
BRANCH   5  22
HETATM   22  C18 UNL     1     186.548 120.396  32.669  1.00  0.00     0.028 C 
BRANCH  22  23
HETATM   23  C19 UNL     1     185.557 119.916  31.654  1.00  0.00     0.007 C 
BRANCH  23  24
HETATM   24  C20 UNL     1     184.239 120.696  31.755  1.00  0.00    -0.014 C 
HETATM   25  C21 UNL     1     183.061 119.758  31.733  1.00  0.00     0.004 C 
HETATM   26  C22 UNL     1     181.981 120.507  30.972  1.00  0.00     0.000 C 
HETATM   27  C23 UNL     1     182.790 121.145  29.858  1.00  0.00     0.000 C 
HETATM   28  C24 UNL     1     184.053 121.582  30.549  1.00  0.00     0.004 C 
ENDBRANCH  23  24
ENDBRANCH  22  23
ENDBRANCH   5  22
BRANCH   1  29
HETATM   29  N1  UNL     1     190.535 121.861  30.102  1.00  0.00    -0.362 N 
ATOM     30  H1  UNL     1     190.434 121.345  29.227  1.00  0.00     0.162 HD
BRANCH  29  31
HETATM   31  C4  UNL     1     191.705 122.660  30.283  1.00  0.00     0.122 C 
BRANCH  31  32
HETATM   32  C3  UNL     1     192.884 122.127  29.493  1.00  0.00     0.019 C 
BRANCH  32  33
HETATM   33  C2  UNL     1     193.215 123.074  28.369  1.00  0.00    -0.003 C 
HETATM   34  C1  UNL     1     193.858 124.328  28.947  1.00  0.00     0.005 C 
ENDBRANCH  32  33
ENDBRANCH  31  32
ENDBRANCH  29  31
ENDBRANCH   1  29
TORSDOF 13
ENDMDL
MODEL 5
REMARK VINA RESULT: -7.840069967      1.325      1.747
REMARK  13 active torsions:
REMARK  status: ('A' for Active; 'I' for Inactive)
REMARK    1  A    between atoms: C2_2  and  C3_3 
REMARK    2  A    between atoms: C3_3  and  C4_4 
REMARK    3  A    between atoms: C4_4  and  N1_5 
REMARK    4  A    between atoms: N1_5  and  C5_7 
REMARK    5  A    between atoms: C6_10  and  C7_11 
REMARK    6  A    between atoms: C7_11  and  C8_12 
REMARK    7  A    between atoms: C11_15  and  C12_16 
REMARK    8  A    between atoms: C12_16  and  C13_17 
REMARK    9  A    between atoms: C13_17  and  C14_18 
REMARK   10  A    between atoms: C14_18  and  N3_19 
REMARK   11  A    between atoms: C17_25  and  C18_26 
REMARK   12  A    between atoms: C18_26  and  C19_27 
REMARK   13  A    between atoms: C19_27  and  C20_28 
ROOT
HETATM    1  C5  UNL     1     184.864 129.083  28.364  1.00  0.00     0.171 C 
HETATM    2  N2  UNL     1     183.726 128.932  28.933  1.00  0.00    -0.356 N 
ATOM      3  H2  UNL     1     182.822 129.039  28.475  1.00  0.00     0.163 HD
HETATM    4  C6  UNL     1     183.919 128.593  30.305  1.00  0.00     0.111 C 
HETATM    5  C17 UNL     1     185.322 128.115  30.377  1.00  0.00     0.107 C 
HETATM    6  N4  UNL     1     185.920 128.855  29.287  1.00  0.00    -0.356 N 
ATOM      7  H4  UNL     1     186.892 129.150  29.199  1.00  0.00     0.163 HD
ENDROOT
BRANCH   4   8
HETATM    8  C7  UNL     1     182.891 127.674  30.882  1.00  0.00     0.065 C 
BRANCH   8   9
HETATM    9  C8  UNL     1     183.301 126.272  30.970  1.00  0.00    -0.056 A 
HETATM   10  C9  UNL     1     183.536 125.629  32.158  1.00  0.00     0.007 A 
HETATM   11  C10 UNL     1     183.926 124.288  32.230  1.00  0.00     0.007 A 
HETATM   12  C11 UNL     1     184.088 123.571  31.071  1.00  0.00    -0.058 A 
HETATM   13  C15 UNL     1     183.855 124.211  29.869  1.00  0.00     0.007 A 
HETATM   14  C16 UNL     1     183.474 125.519  29.826  1.00  0.00     0.007 A 
BRANCH  12  15
HETATM   15  C12 UNL     1     184.488 122.155  31.122  1.00  0.00     0.040 C 
BRANCH  15  16
HETATM   16  C13 UNL     1     183.470 121.227  31.692  1.00  0.00     0.032 C 
BRANCH  16  17
HETATM   17  C14 UNL     1     182.725 120.404  30.675  1.00  0.00     0.230 C 
BRANCH  17  18
HETATM   18  N3  UNL     1     181.525 119.821  31.195  1.00  0.00    -0.079 N 
ATOM     19  H33 UNL     1     181.529 119.829  32.215  1.00  0.00     0.274 HD
ATOM     20  H32 UNL     1     180.723 120.428  31.026  1.00  0.00     0.274 HD
ATOM     21  H31 UNL     1     181.350 118.881  30.839  1.00  0.00     0.274 HD
ENDBRANCH  17  18
ENDBRANCH  16  17
ENDBRANCH  15  16
ENDBRANCH  12  15
ENDBRANCH   8   9
ENDBRANCH   4   8
BRANCH   5  22
HETATM   22  C18 UNL     1     186.003 128.338  31.702  1.00  0.00     0.028 C 
BRANCH  22  23
HETATM   23  C19 UNL     1     185.400 129.558  32.325  1.00  0.00     0.007 C 
BRANCH  23  24
HETATM   24  C20 UNL     1     185.537 129.524  33.853  1.00  0.00    -0.014 C 
HETATM   25  C21 UNL     1     185.704 130.916  34.404  1.00  0.00     0.004 C 
HETATM   26  C22 UNL     1     186.653 130.758  35.580  1.00  0.00     0.000 C 
HETATM   27  C23 UNL     1     187.652 129.761  35.023  1.00  0.00     0.000 C 
HETATM   28  C24 UNL     1     186.791 128.792  34.259  1.00  0.00     0.004 C 
ENDBRANCH  23  24
ENDBRANCH  22  23
ENDBRANCH   5  22
BRANCH   1  29
HETATM   29  N1  UNL     1     184.966 129.429  26.973  1.00  0.00    -0.362 N 
ATOM     30  H1  UNL     1     185.332 130.351  26.731  1.00  0.00     0.162 HD
BRANCH  29  31
HETATM   31  C4  UNL     1     184.583 128.556  25.910  1.00  0.00     0.122 C 
BRANCH  31  32
HETATM   32  C3  UNL     1     183.727 129.259  24.877  1.00  0.00     0.019 C 
BRANCH  32  33
HETATM   33  C2  UNL     1     182.301 129.328  25.358  1.00  0.00    -0.003 C 
HETATM   34  C1  UNL     1     181.681 127.938  25.280  1.00  0.00     0.005 C 
ENDBRANCH  32  33
ENDBRANCH  31  32
ENDBRANCH  29  31
ENDBRANCH   1  29
TORSDOF 13
ENDMDL
