MODEL 1
REMARK VINA RESULT: -7.595487996      0.000      0.000
REMARK  11 active torsions:
REMARK  status: ('A' for Active; 'I' for Inactive)
REMARK    1  A    between atoms: C2_4  and  C3_5 
REMARK    2  A    between atoms: N2_11  and  C9_12 
REMARK    3  A    between atoms: C12_15  and  N3_16 
REMARK    4  A    between atoms: N3_16  and  C13_18 
REMARK    5  A    between atoms: C13_18  and  C14_19 
REMARK    6  A    between atoms: C14_19  and  C15_20 
REMARK    7  A    between atoms: C15_20  and  C16_21 
REMARK    8  A    between atoms: C16_21  and  C17_22 
REMARK    9  A    between atoms: C17_22  and  C18_23 
REMARK   10  A    between atoms: C18_23  and  C19_24 
REMARK   11  A    between atoms: C19_24  and  C20_25 
ROOT
HETATM    1  C9  UNL     1     184.802 126.311  30.782  1.00  0.00     0.116 C 
HETATM    2  C10 UNL     1     185.363 127.290  31.736  1.00  0.00     0.031 C 
HETATM    3  C11 UNL     1     184.869 128.687  31.679  1.00  0.00     0.056 C 
HETATM    4  C12 UNL     1     183.670 128.958  30.854  1.00  0.00     0.280 C 
HETATM    5  N5  UNL     1     182.836 127.761  30.833  1.00  0.00    -0.053 N 
ATOM      6  H51 UNL     1     181.886 127.925  30.499  1.00  0.00     0.279 HD
ATOM      7  H52 UNL     1     182.577 127.423  31.761  1.00  0.00     0.279 HD
HETATM    8  C23 UNL     1     183.577 126.797  30.044  1.00  0.00     0.260 C 
ENDROOT
BRANCH   4   9
HETATM    9  N3  UNL     1     183.917 129.314  29.493  1.00  0.00    -0.396 N 
ATOM     10  H3  UNL     1     183.325 128.987  28.729  1.00  0.00     0.155 HD
BRANCH   9  11
HETATM   11  C13 UNL     1     185.060 130.167  29.272  1.00  0.00     0.115 C 
BRANCH  11  12
HETATM   12  C14 UNL     1     185.696 129.914  27.941  1.00  0.00     0.019 C 
BRANCH  12  13
HETATM   13  C15 UNL     1     186.229 128.481  27.785  1.00  0.00     0.005 C 
BRANCH  13  14
HETATM   14  C16 UNL     1     186.530 128.152  26.379  1.00  0.00     0.027 C 
BRANCH  14  15
HETATM   15  C17 UNL     1     185.792 127.027  25.796  1.00  0.00    -0.031 C 
BRANCH  15  16
HETATM   16  C18 UNL     1     184.603 127.192  24.966  1.00  0.00    -0.029 C 
BRANCH  16  17
HETATM   17  C19 UNL     1     183.837 128.441  24.911  1.00  0.00     0.059 C 
BRANCH  17  18
HETATM   18  C20 UNL     1     182.920 128.712  26.076  1.00  0.00     0.190 C 
HETATM   19  C21 UNL     1     182.083 127.455  26.328  1.00  0.00     0.060 C 
HETATM   20  C22 UNL     1     181.055 128.157  25.493  1.00  0.00     0.235 C 
HETATM   21  N4  UNL     1     181.690 129.411  25.753  1.00  0.00    -0.070 N 
ATOM     22  H42 UNL     1     181.280 130.064  26.421  1.00  0.00     0.277 HD
ATOM     23  H41 UNL     1     181.688 130.142  25.042  1.00  0.00     0.277 HD
ENDBRANCH  17  18
ENDBRANCH  16  17
ENDBRANCH  15  16
ENDBRANCH  14  15
ENDBRANCH  13  14
ENDBRANCH  12  13
ENDBRANCH  11  12
ENDBRANCH   9  11
ENDBRANCH   4   9
BRANCH   1  24
HETATM   24  N2  UNL     1     184.432 125.044  31.416  1.00  0.00    -0.345 N 
HETATM   25  C1  UNL     1     184.130 124.833  32.711  1.00  0.00     0.183 A 
HETATM   26  N1  UNL     1     183.833 123.528  32.899  1.00  0.00    -0.354 N 
HETATM   27  C2  UNL     1     183.949 122.910  31.718  1.00  0.00     0.030 A 
ATOM     28  H1  UNL     1     183.568 123.092  33.783  1.00  0.00     0.166 HD
HETATM   29  C8  UNL     1     184.323 123.874  30.807  1.00  0.00     0.117 A 
BRANCH  27  30
HETATM   30  C3  UNL     1     183.711 121.482  31.425  1.00  0.00     0.037 C 
HETATM   31  C4  UNL     1     183.167 121.324  29.989  1.00  0.00     0.011 C 
HETATM   32  C5  UNL     1     182.862 119.819  30.031  1.00  0.00     0.001 C 
HETATM   33  C6  UNL     1     182.287 119.606  31.433  1.00  0.00     0.001 C 
HETATM   34  C7  UNL     1     182.622 120.854  32.224  1.00  0.00     0.011 C 
ENDBRANCH  27  30
ENDBRANCH   1  24
TORSDOF 11
ENDMDL
MODEL 2
REMARK VINA RESULT: -7.515463515      6.352      9.357
REMARK  11 active torsions:
REMARK  status: ('A' for Active; 'I' for Inactive)
REMARK    1  A    between atoms: C2_4  and  C3_5 
REMARK    2  A    between atoms: N2_11  and  C9_12 
REMARK    3  A    between atoms: C12_15  and  N3_16 
REMARK    4  A    between atoms: N3_16  and  C13_18 
REMARK    5  A    between atoms: C13_18  and  C14_19 
REMARK    6  A    between atoms: C14_19  and  C15_20 
REMARK    7  A    between atoms: C15_20  and  C16_21 
REMARK    8  A    between atoms: C16_21  and  C17_22 
REMARK    9  A    between atoms: C17_22  and  C18_23 
REMARK   10  A    between atoms: C18_23  and  C19_24 
REMARK   11  A    between atoms: C19_24  and  C20_25 
ROOT
HETATM    1  C9  UNL     1     190.782 121.587  31.895  1.00  0.00     0.116 C 
HETATM    2  C10 UNL     1     190.305 120.330  31.281  1.00  0.00     0.031 C 
HETATM    3  C11 UNL     1     188.864 120.210  30.955  1.00  0.00     0.056 C 
HETATM    4  C12 UNL     1     188.040 121.440  31.023  1.00  0.00     0.280 C 
HETATM    5  N5  UNL     1     188.888 122.588  30.717  1.00  0.00    -0.053 N 
ATOM      6  H51 UNL     1     188.368 123.439  30.503  1.00  0.00     0.279 HD
ATOM      7  H52 UNL     1     189.372 122.516  29.822  1.00  0.00     0.279 HD
HETATM    8  C23 UNL     1     189.777 122.715  31.856  1.00  0.00     0.260 C 
ENDROOT
BRANCH   4   9
HETATM    9  N3  UNL     1     187.420 121.706  32.281  1.00  0.00    -0.396 N 
ATOM     10  H3  UNL     1     187.699 122.490  32.870  1.00  0.00     0.155 HD
BRANCH   9  11
HETATM   11  C13 UNL     1     186.371 120.791  32.663  1.00  0.00     0.115 C 
BRANCH  11  12
HETATM   12  C14 UNL     1     185.295 120.711  31.626  1.00  0.00     0.019 C 
BRANCH  12  13
HETATM   13  C15 UNL     1     184.004 121.438  32.033  1.00  0.00     0.005 C 
BRANCH  13  14
HETATM   14  C16 UNL     1     184.078 122.887  31.769  1.00  0.00     0.027 C 
BRANCH  14  15
HETATM   15  C17 UNL     1     183.950 123.773  32.932  1.00  0.00    -0.031 C 
BRANCH  15  16
HETATM   16  C18 UNL     1     183.649 125.197  32.825  1.00  0.00    -0.029 C 
BRANCH  16  17
HETATM   17  C19 UNL     1     183.319 125.848  31.553  1.00  0.00     0.059 C 
BRANCH  17  18
HETATM   18  C20 UNL     1     183.968 127.185  31.302  1.00  0.00     0.190 C 
HETATM   19  C21 UNL     1     182.886 128.159  30.824  1.00  0.00     0.060 C 
HETATM   20  C22 UNL     1     183.370 127.786  29.455  1.00  0.00     0.235 C 
HETATM   21  N4  UNL     1     184.609 127.335  30.008  1.00  0.00    -0.070 N 
ATOM     22  H42 UNL     1     185.449 127.906  29.915  1.00  0.00     0.277 HD
ATOM     23  H41 UNL     1     185.100 126.547  29.586  1.00  0.00     0.277 HD
ENDBRANCH  17  18
ENDBRANCH  16  17
ENDBRANCH  15  16
ENDBRANCH  14  15
ENDBRANCH  13  14
ENDBRANCH  12  13
ENDBRANCH  11  12
ENDBRANCH   9  11
ENDBRANCH   4   9
BRANCH   1  24
HETATM   24  N2  UNL     1     192.005 122.097  31.274  1.00  0.00    -0.345 N 
HETATM   25  C1  UNL     1     192.902 121.408  30.542  1.00  0.00     0.183 A 
HETATM   26  N1  UNL     1     193.889 122.239  30.139  1.00  0.00    -0.354 N 
HETATM   27  C2  UNL     1     193.617 123.458  30.618  1.00  0.00     0.030 A 
ATOM     28  H1  UNL     1     194.698 121.982  29.571  1.00  0.00     0.166 HD
HETATM   29  C8  UNL     1     192.438 123.347  31.322  1.00  0.00     0.117 A 
BRANCH  27  30
HETATM   30  C3  UNL     1     194.403 124.694  30.426  1.00  0.00     0.037 C 
HETATM   31  C4  UNL     1     194.524 125.011  28.921  1.00  0.00     0.011 C 
HETATM   32  C5  UNL     1     195.497 126.195  29.020  1.00  0.00     0.001 C 
HETATM   33  C6  UNL     1     196.476 125.767  30.116  1.00  0.00     0.001 C 
HETATM   34  C7  UNL     1     195.835 124.590  30.822  1.00  0.00     0.011 C 
ENDBRANCH  27  30
ENDBRANCH   1  24
TORSDOF 11
ENDMDL
MODEL 3
REMARK VINA RESULT: -7.497205229      4.082      6.737
REMARK  11 active torsions:
REMARK  status: ('A' for Active; 'I' for Inactive)
REMARK    1  A    between atoms: C2_4  and  C3_5 
REMARK    2  A    between atoms: N2_11  and  C9_12 
REMARK    3  A    between atoms: C12_15  and  N3_16 
REMARK    4  A    between atoms: N3_16  and  C13_18 
REMARK    5  A    between atoms: C13_18  and  C14_19 
REMARK    6  A    between atoms: C14_19  and  C15_20 
REMARK    7  A    between atoms: C15_20  and  C16_21 
REMARK    8  A    between atoms: C16_21  and  C17_22 
REMARK    9  A    between atoms: C17_22  and  C18_23 
REMARK   10  A    between atoms: C18_23  and  C19_24 
REMARK   11  A    between atoms: C19_24  and  C20_25 
ROOT
HETATM    1  C9  UNL     1     187.945 122.703  33.505  1.00  0.00     0.116 C 
HETATM    2  C10 UNL     1     188.480 123.574  32.438  1.00  0.00     0.031 C 
HETATM    3  C11 UNL     1     189.919 123.928  32.476  1.00  0.00     0.056 C 
HETATM    4  C12 UNL     1     190.784 123.186  33.422  1.00  0.00     0.280 C 
HETATM    5  N5  UNL     1     190.233 121.848  33.608  1.00  0.00    -0.053 N 
ATOM      6  H51 UNL     1     190.881 121.192  34.044  1.00  0.00     0.279 HD
ATOM      7  H52 UNL     1     190.107 121.329  32.739  1.00  0.00     0.279 HD
HETATM    8  C23 UNL     1     189.006 122.044  34.356  1.00  0.00     0.260 C 
ENDROOT
BRANCH   4   9
HETATM    9  N3  UNL     1     190.923 123.761  34.722  1.00  0.00    -0.396 N 
ATOM     10  H3  UNL     1     190.815 123.212  35.574  1.00  0.00     0.155 HD
BRANCH   9  11
HETATM   11  C13 UNL     1     191.227 125.172  34.747  1.00  0.00     0.115 C 
BRANCH  11  12
HETATM   12  C14 UNL     1     190.176 125.956  35.468  1.00  0.00     0.019 C 
BRANCH  12  13
HETATM   13  C15 UNL     1     189.638 127.144  34.653  1.00  0.00     0.005 C 
BRANCH  13  14
HETATM   14  C16 UNL     1     188.327 126.849  34.045  1.00  0.00     0.027 C 
BRANCH  14  15
HETATM   15  C17 UNL     1     187.346 127.939  34.041  1.00  0.00    -0.031 C 
BRANCH  15  16
HETATM   16  C18 UNL     1     186.094 127.888  33.292  1.00  0.00    -0.029 C 
BRANCH  16  17
HETATM   17  C19 UNL     1     185.642 126.690  32.577  1.00  0.00     0.059 C 
BRANCH  17  18
HETATM   18  C20 UNL     1     184.165 126.395  32.638  1.00  0.00     0.190 C 
HETATM   19  C21 UNL     1     183.973 124.883  32.491  1.00  0.00     0.060 C 
HETATM   20  C22 UNL     1     183.741 125.207  31.046  1.00  0.00     0.235 C 
HETATM   21  N4  UNL     1     183.443 126.562  31.390  1.00  0.00    -0.070 N 
ATOM     22  H42 UNL     1     182.476 126.888  31.396  1.00  0.00     0.277 HD
ATOM     23  H41 UNL     1     183.691 127.318  30.752  1.00  0.00     0.277 HD
ENDBRANCH  17  18
ENDBRANCH  16  17
ENDBRANCH  15  16
ENDBRANCH  14  15
ENDBRANCH  13  14
ENDBRANCH  12  13
ENDBRANCH  11  12
ENDBRANCH   9  11
ENDBRANCH   4   9
BRANCH   1  24
HETATM   24  N2  UNL     1     187.096 121.627  32.991  1.00  0.00    -0.345 N 
HETATM   25  C1  UNL     1     187.236 120.303  33.195  1.00  0.00     0.183 A 
HETATM   26  N1  UNL     1     186.244 119.641  32.559  1.00  0.00    -0.354 N 
HETATM   27  C2  UNL     1     185.474 120.549  31.948  1.00  0.00     0.030 A 
ATOM     28  H1  UNL     1     186.107 118.629  32.546  1.00  0.00     0.166 HD
HETATM   29  C8  UNL     1     186.023 121.781  32.231  1.00  0.00     0.117 A 
BRANCH  27  30
HETATM   30  C3  UNL     1     184.262 120.301  31.141  1.00  0.00     0.037 C 
HETATM   31  C4  UNL     1     183.819 121.606  30.446  1.00  0.00     0.011 C 
HETATM   32  C5  UNL     1     182.496 121.101  29.849  1.00  0.00     0.001 C 
HETATM   33  C6  UNL     1     181.916 120.215  30.953  1.00  0.00     0.001 C 
HETATM   34  C7  UNL     1     183.046 119.958  31.929  1.00  0.00     0.011 C 
ENDBRANCH  27  30
ENDBRANCH   1  24
TORSDOF 11
ENDMDL
MODEL 4
REMARK VINA RESULT: -7.484376128      4.534      8.515
REMARK  11 active torsions:
REMARK  status: ('A' for Active; 'I' for Inactive)
REMARK    1  A    between atoms: C2_4  and  C3_5 
REMARK    2  A    between atoms: N2_11  and  C9_12 
REMARK    3  A    between atoms: C12_15  and  N3_16 
REMARK    4  A    between atoms: N3_16  and  C13_18 
REMARK    5  A    between atoms: C13_18  and  C14_19 
REMARK    6  A    between atoms: C14_19  and  C15_20 
REMARK    7  A    between atoms: C15_20  and  C16_21 
REMARK    8  A    between atoms: C16_21  and  C17_22 
REMARK    9  A    between atoms: C17_22  and  C18_23 
REMARK   10  A    between atoms: C18_23  and  C19_24 
REMARK   11  A    between atoms: C19_24  and  C20_25 
ROOT
HETATM    1  C9  UNL     1     183.466 124.998  31.183  1.00  0.00     0.116 C 
HETATM    2  C10 UNL     1     184.096 125.247  32.496  1.00  0.00     0.031 C 
HETATM    3  C11 UNL     1     185.169 124.327  32.945  1.00  0.00     0.056 C 
HETATM    4  C12 UNL     1     185.721 123.378  31.950  1.00  0.00     0.280 C 
HETATM    5  N5  UNL     1     185.615 123.977  30.624  1.00  0.00    -0.053 N 
ATOM      6  H51 UNL     1     186.181 123.510  29.915  1.00  0.00     0.279 HD
ATOM      7  H52 UNL     1     186.061 124.892  30.548  1.00  0.00     0.279 HD
HETATM    8  C23 UNL     1     184.196 123.990  30.327  1.00  0.00     0.260 C 
ENDROOT
BRANCH   4   9
HETATM    9  N3  UNL     1     185.079 122.104  31.883  1.00  0.00    -0.396 N 
ATOM     10  H3  UNL     1     184.065 122.003  31.927  1.00  0.00     0.155 HD
BRANCH   9  11
HETATM   11  C13 UNL     1     185.962 120.971  31.746  1.00  0.00     0.115 C 
BRANCH  11  12
HETATM   12  C14 UNL     1     186.872 120.827  32.925  1.00  0.00     0.019 C 
BRANCH  12  13
HETATM   13  C15 UNL     1     188.357 120.999  32.571  1.00  0.00     0.005 C 
BRANCH  13  14
HETATM   14  C16 UNL     1     188.655 120.544  31.200  1.00  0.00     0.027 C 
BRANCH  14  15
HETATM   15  C17 UNL     1     189.835 121.130  30.556  1.00  0.00    -0.031 C 
BRANCH  15  16
HETATM   16  C18 UNL     1     191.191 120.978  31.075  1.00  0.00    -0.029 C 
BRANCH  16  17
HETATM   17  C19 UNL     1     192.196 122.042  31.003  1.00  0.00     0.059 C 
BRANCH  17  18
HETATM   18  C20 UNL     1     193.103 122.021  29.799  1.00  0.00     0.190 C 
HETATM   19  C21 UNL     1     193.989 123.269  29.845  1.00  0.00     0.060 C 
HETATM   20  C22 UNL     1     192.958 123.849  28.925  1.00  0.00     0.235 C 
HETATM   21  N4  UNL     1     192.524 122.534  28.571  1.00  0.00    -0.070 N 
ATOM     22  H42 UNL     1     192.789 122.131  27.671  1.00  0.00     0.277 HD
ATOM     23  H41 UNL     1     191.542 122.359  28.356  1.00  0.00     0.277 HD
ENDBRANCH  17  18
ENDBRANCH  16  17
ENDBRANCH  15  16
ENDBRANCH  14  15
ENDBRANCH  13  14
ENDBRANCH  12  13
ENDBRANCH  11  12
ENDBRANCH   9  11
ENDBRANCH   4   9
BRANCH   1  24
HETATM   24  N2  UNL     1     183.332 126.212  30.376  1.00  0.00    -0.345 N 
HETATM   25  C1  UNL     1     183.289 127.486  30.810  1.00  0.00     0.183 A 
HETATM   26  N1  UNL     1     183.168 128.320  29.753  1.00  0.00    -0.354 N 
HETATM   27  C2  UNL     1     183.133 127.571  28.645  1.00  0.00     0.030 A 
ATOM     28  H1  UNL     1     183.113 129.338  29.793  1.00  0.00     0.166 HD
HETATM   29  C8  UNL     1     183.237 126.260  29.056  1.00  0.00     0.117 A 
BRANCH  27  30
HETATM   30  C3  UNL     1     183.022 128.039  27.248  1.00  0.00     0.037 C 
HETATM   31  C4  UNL     1     181.668 127.599  26.654  1.00  0.00     0.011 C 
HETATM   32  C5  UNL     1     181.902 128.055  25.206  1.00  0.00     0.001 C 
HETATM   33  C6  UNL     1     183.366 127.690  24.945  1.00  0.00     0.001 C 
HETATM   34  C7  UNL     1     183.981 127.407  26.300  1.00  0.00     0.011 C 
ENDBRANCH  27  30
ENDBRANCH   1  24
TORSDOF 11
ENDMDL
MODEL 5
REMARK VINA RESULT: -7.411721461      4.622      6.471
REMARK  11 active torsions:
REMARK  status: ('A' for Active; 'I' for Inactive)
REMARK    1  A    between atoms: C2_4  and  C3_5 
REMARK    2  A    between atoms: N2_11  and  C9_12 
REMARK    3  A    between atoms: C12_15  and  N3_16 
REMARK    4  A    between atoms: N3_16  and  C13_18 
REMARK    5  A    between atoms: C13_18  and  C14_19 
REMARK    6  A    between atoms: C14_19  and  C15_20 
REMARK    7  A    between atoms: C15_20  and  C16_21 
REMARK    8  A    between atoms: C16_21  and  C17_22 
REMARK    9  A    between atoms: C17_22  and  C18_23 
REMARK   10  A    between atoms: C18_23  and  C19_24 
REMARK   11  A    between atoms: C19_24  and  C20_25 
ROOT
HETATM    1  C9  UNL     1     187.055 121.594  32.692  1.00  0.00     0.116 C 
HETATM    2  C10 UNL     1     185.939 120.915  32.002  1.00  0.00     0.031 C 
HETATM    3  C11 UNL     1     184.716 121.700  31.705  1.00  0.00     0.056 C 
HETATM    4  C12 UNL     1     184.784 123.169  31.882  1.00  0.00     0.280 C 
HETATM    5  N5  UNL     1     186.154 123.607  31.638  1.00  0.00    -0.053 N 
ATOM      6  H51 UNL     1     186.247 124.613  31.498  1.00  0.00     0.279 HD
ATOM      7  H52 UNL     1     186.521 123.327  30.728  1.00  0.00     0.279 HD
HETATM    8  C23 UNL     1     186.919 123.097  32.760  1.00  0.00     0.260 C 
ENDROOT
BRANCH   4   9
HETATM    9  N3  UNL     1     184.415 123.660  33.171  1.00  0.00    -0.396 N 
ATOM     10  H3  UNL     1     184.692 123.188  34.032  1.00  0.00     0.155 HD
BRANCH   9  11
HETATM   11  C13 UNL     1     183.625 124.867  33.174  1.00  0.00     0.115 C 
BRANCH  11  12
HETATM   12  C14 UNL     1     183.435 125.414  31.794  1.00  0.00     0.019 C 
BRANCH  12  13
HETATM   13  C15 UNL     1     183.910 126.868  31.646  1.00  0.00     0.005 C 
BRANCH  13  14
HETATM   14  C16 UNL     1     183.027 127.650  30.761  1.00  0.00     0.027 C 
BRANCH  14  15
HETATM   15  C17 UNL     1     183.425 127.742  29.352  1.00  0.00    -0.031 C 
BRANCH  15  16
HETATM   16  C18 UNL     1     182.619 127.215  28.255  1.00  0.00    -0.029 C 
BRANCH  16  17
HETATM   17  C19 UNL     1     183.059 127.248  26.857  1.00  0.00     0.059 C 
BRANCH  17  18
HETATM   18  C20 UNL     1     182.029 127.683  25.845  1.00  0.00     0.190 C 
HETATM   19  C21 UNL     1     182.764 128.299  24.650  1.00  0.00     0.060 C 
HETATM   20  C22 UNL     1     182.481 129.599  25.340  1.00  0.00     0.235 C 
HETATM   21  N4  UNL     1     181.428 128.983  26.085  1.00  0.00    -0.070 N 
ATOM     22  H42 UNL     1     180.455 129.152  25.832  1.00  0.00     0.277 HD
ATOM     23  H41 UNL     1     181.230 129.287  27.038  1.00  0.00     0.277 HD
ENDBRANCH  17  18
ENDBRANCH  16  17
ENDBRANCH  15  16
ENDBRANCH  14  15
ENDBRANCH  13  14
ENDBRANCH  12  13
ENDBRANCH  11  12
ENDBRANCH   9  11
ENDBRANCH   4   9
BRANCH   1  24
HETATM   24  N2  UNL     1     188.356 121.320  32.078  1.00  0.00    -0.345 N 
HETATM   25  C1  UNL     1     188.685 120.285  31.281  1.00  0.00     0.183 A 
HETATM   26  N1  UNL     1     189.981 120.395  30.912  1.00  0.00    -0.354 N 
HETATM   27  C2  UNL     1     190.474 121.502  31.478  1.00  0.00     0.030 A 
ATOM     28  H1  UNL     1     190.491 119.748  30.309  1.00  0.00     0.166 HD
HETATM   29  C8  UNL     1     189.444 122.064  32.200  1.00  0.00     0.117 A 
BRANCH  27  30
HETATM   30  C3  UNL     1     191.844 122.041  31.352  1.00  0.00     0.037 C 
HETATM   31  C4  UNL     1     191.814 123.371  30.570  1.00  0.00     0.011 C 
HETATM   32  C5  UNL     1     193.329 123.592  30.450  1.00  0.00     0.001 C 
HETATM   33  C6  UNL     1     193.878 122.190  30.176  1.00  0.00     0.001 C 
HETATM   34  C7  UNL     1     192.760 121.223  30.510  1.00  0.00     0.011 C 
ENDBRANCH  27  30
ENDBRANCH   1  24
TORSDOF 11
ENDMDL
