MODEL 1
REMARK VINA RESULT: -7.692575820      0.000      0.000
REMARK  11 active torsions:
REMARK  status: ('A' for Active; 'I' for Inactive)
REMARK    1  A    between atoms: C1_2  and  C2_3 
REMARK    2  A    between atoms: C2_3  and  C3_4 
REMARK    3  A    between atoms: C3_4  and  N1_5 
REMARK    4  A    between atoms: N1_5  and  C4_8 
REMARK    5  A    between atoms: C4_8  and  C5_9 
REMARK    6  A    between atoms: C5_9  and  C6_10 
REMARK    7  A    between atoms: C6_10  and  C7_11 
REMARK    8  A    between atoms: C7_11  and  N2_12 
REMARK    9  A    between atoms: N2_12  and  C8_15 
REMARK   10  A    between atoms: C8_15  and  C9_16 
REMARK   11  A    between atoms: C12_19  and  C13_20 
ROOT
HETATM    1  C9  UNL     1     184.337 124.829  30.616  1.00  0.00    -0.033 A 
HETATM    2  C10 UNL     1     185.418 125.542  30.181  1.00  0.00     0.010 A 
HETATM    3  C11 UNL     1     186.029 126.488  31.003  1.00  0.00     0.014 A 
HETATM    4  C12 UNL     1     185.575 126.732  32.255  1.00  0.00    -0.009 A 
HETATM    5  C22 UNL     1     184.471 125.999  32.691  1.00  0.00     0.014 A 
HETATM    6  C23 UNL     1     183.871 125.073  31.890  1.00  0.00     0.010 A 
ENDROOT
BRANCH   1   7
HETATM    7  C8  UNL     1     183.672 123.819  29.733  1.00  0.00     0.270 C 
BRANCH   7   8
HETATM    8  N2  UNL     1     184.272 122.541  30.022  1.00  0.00    -0.071 N 
ATOM      9  H22 UNL     1     185.011 122.632  30.719  1.00  0.00     0.277 HD
ATOM     10  H21 UNL     1     184.828 122.211  29.234  1.00  0.00     0.277 HD
BRANCH   8  11
HETATM   11  C7  UNL     1     183.293 121.543  30.426  1.00  0.00     0.232 C 
BRANCH  11  12
HETATM   12  C6  UNL     1     183.861 120.730  31.551  1.00  0.00     0.029 C 
BRANCH  12  13
HETATM   13  C5  UNL     1     185.270 121.165  31.840  1.00  0.00     0.029 C 
BRANCH  13  14
HETATM   14  C4  UNL     1     186.037 120.059  32.468  1.00  0.00     0.232 C 
BRANCH  14  15
HETATM   15  N1  UNL     1     187.209 119.676  31.686  1.00  0.00    -0.075 N 
ATOM     16  H12 UNL     1     186.937 119.288  30.783  1.00  0.00     0.277 HD
ATOM     17  H11 UNL     1     187.665 118.857  32.086  1.00  0.00     0.277 HD
BRANCH  15  18
HETATM   18  C3  UNL     1     188.131 120.751  31.526  1.00  0.00     0.233 C 
BRANCH  18  19
HETATM   19  C2  UNL     1     189.413 120.230  30.934  1.00  0.00     0.038 C 
BRANCH  19  20
HETATM   20  C1  UNL     1     190.590 120.935  31.548  1.00  0.00     0.088 C 
HETATM   21  S1  UNL     1     190.186 121.884  33.030  1.00  0.00    -0.098 SA
ENDBRANCH  19  20
ENDBRANCH  18  19
ENDBRANCH  15  18
ENDBRANCH  14  15
ENDBRANCH  13  14
ENDBRANCH  12  13
ENDBRANCH  11  12
ENDBRANCH   8  11
ENDBRANCH   7   8
ENDBRANCH   1   7
BRANCH   4  22
HETATM   22  C13 UNL     1     186.149 127.697  33.175  1.00  0.00     0.043 A 
HETATM   23  C14 UNL     1     187.375 127.507  33.764  1.00  0.00     0.031 A 
HETATM   24  C15 UNL     1     187.941 128.422  34.646  1.00  0.00     0.016 A 
HETATM   25  C16 UNL     1     187.230 129.563  34.932  1.00  0.00    -0.009 A 
HETATM   26  C17 UNL     1     187.701 130.535  35.793  1.00  0.00     0.013 A 
HETATM   27  C21 UNL     1     186.011 129.740  34.339  1.00  0.00     0.043 A 
HETATM   28  C18 UNL     1     186.985 131.672  36.072  1.00  0.00     0.001 A 
HETATM   29  C19 UNL     1     185.740 131.834  35.455  1.00  0.00     0.002 A 
HETATM   30  C20 UNL     1     185.249 130.886  34.597  1.00  0.00     0.030 A 
HETATM   31  N3  UNL     1     185.499 128.834  33.493  1.00  0.00    -0.355 N 
ATOM     32  H3  UNL     1     184.585 129.011  33.077  1.00  0.00     0.166 HD
ENDBRANCH   4  22
TORSDOF 11
ENDMDL
MODEL 2
REMARK VINA RESULT: -7.509630584      1.673      2.744
REMARK  11 active torsions:
REMARK  status: ('A' for Active; 'I' for Inactive)
REMARK    1  A    between atoms: C1_2  and  C2_3 
REMARK    2  A    between atoms: C2_3  and  C3_4 
REMARK    3  A    between atoms: C3_4  and  N1_5 
REMARK    4  A    between atoms: N1_5  and  C4_8 
REMARK    5  A    between atoms: C4_8  and  C5_9 
REMARK    6  A    between atoms: C5_9  and  C6_10 
REMARK    7  A    between atoms: C6_10  and  C7_11 
REMARK    8  A    between atoms: C7_11  and  N2_12 
REMARK    9  A    between atoms: N2_12  and  C8_15 
REMARK   10  A    between atoms: C8_15  and  C9_16 
REMARK   11  A    between atoms: C12_19  and  C13_20 
ROOT
HETATM    1  C9  UNL     1     183.856 122.468  31.392  1.00  0.00    -0.033 A 
HETATM    2  C10 UNL     1     184.143 123.294  30.342  1.00  0.00     0.010 A 
HETATM    3  C11 UNL     1     184.461 124.635  30.551  1.00  0.00     0.014 A 
HETATM    4  C12 UNL     1     184.497 125.164  31.798  1.00  0.00    -0.009 A 
HETATM    5  C22 UNL     1     184.203 124.314  32.864  1.00  0.00     0.014 A 
HETATM    6  C23 UNL     1     183.892 123.002  32.662  1.00  0.00     0.010 A 
ENDROOT
BRANCH   1   7
HETATM    7  C8  UNL     1     183.506 121.031  31.170  1.00  0.00     0.270 C 
BRANCH   7   8
HETATM    8  N2  UNL     1     184.341 120.248  32.046  1.00  0.00    -0.071 N 
ATOM      9  H22 UNL     1     183.971 119.303  32.157  1.00  0.00     0.277 HD
ATOM     10  H21 UNL     1     184.262 120.570  33.011  1.00  0.00     0.277 HD
BRANCH   8  11
HETATM   11  C7  UNL     1     185.730 120.219  31.617  1.00  0.00     0.232 C 
BRANCH  11  12
HETATM   12  C6  UNL     1     186.616 120.231  32.828  1.00  0.00     0.029 C 
BRANCH  12  13
HETATM   13  C5  UNL     1     187.361 121.534  32.908  1.00  0.00     0.029 C 
BRANCH  13  14
HETATM   14  C4  UNL     1     187.513 122.129  31.556  1.00  0.00     0.232 C 
BRANCH  14  15
HETATM   15  N1  UNL     1     188.909 122.226  31.142  1.00  0.00    -0.075 N 
ATOM     16  H12 UNL     1     189.500 122.541  31.911  1.00  0.00     0.277 HD
ATOM     17  H11 UNL     1     189.049 123.004  30.498  1.00  0.00     0.277 HD
BRANCH  15  18
HETATM   18  C3  UNL     1     189.398 121.008  30.586  1.00  0.00     0.233 C 
BRANCH  18  19
HETATM   19  C2  UNL     1     190.669 120.608  31.286  1.00  0.00     0.038 C 
BRANCH  19  20
HETATM   20  C1  UNL     1     191.569 121.803  31.445  1.00  0.00     0.088 C 
HETATM   21  S1  UNL     1     193.034 121.762  30.392  1.00  0.00    -0.098 SA
ENDBRANCH  19  20
ENDBRANCH  18  19
ENDBRANCH  15  18
ENDBRANCH  14  15
ENDBRANCH  13  14
ENDBRANCH  12  13
ENDBRANCH  11  12
ENDBRANCH   8  11
ENDBRANCH   7   8
ENDBRANCH   1   7
BRANCH   4  22
HETATM   22  C13 UNL     1     184.816 126.546  32.106  1.00  0.00     0.043 A 
HETATM   23  C14 UNL     1     184.177 127.598  31.495  1.00  0.00     0.031 A 
HETATM   24  C15 UNL     1     184.468 128.928  31.778  1.00  0.00     0.016 A 
HETATM   25  C16 UNL     1     185.442 129.188  32.712  1.00  0.00    -0.009 A 
HETATM   26  C17 UNL     1     185.808 130.472  33.067  1.00  0.00     0.013 A 
HETATM   27  C21 UNL     1     186.071 128.132  33.313  1.00  0.00     0.043 A 
HETATM   28  C18 UNL     1     186.780 130.721  34.003  1.00  0.00     0.001 A 
HETATM   29  C19 UNL     1     187.411 129.628  34.605  1.00  0.00     0.002 A 
HETATM   30  C20 UNL     1     187.069 128.344  34.271  1.00  0.00     0.030 A 
HETATM   31  N3  UNL     1     185.761 126.862  33.012  1.00  0.00    -0.355 N 
ATOM     32  H3  UNL     1     186.258 126.109  33.486  1.00  0.00     0.166 HD
ENDBRANCH   4  22
TORSDOF 11
ENDMDL
MODEL 3
REMARK VINA RESULT: -7.454776592      4.798      8.731
REMARK  11 active torsions:
REMARK  status: ('A' for Active; 'I' for Inactive)
REMARK    1  A    between atoms: C1_2  and  C2_3 
REMARK    2  A    between atoms: C2_3  and  C3_4 
REMARK    3  A    between atoms: C3_4  and  N1_5 
REMARK    4  A    between atoms: N1_5  and  C4_8 
REMARK    5  A    between atoms: C4_8  and  C5_9 
REMARK    6  A    between atoms: C5_9  and  C6_10 
REMARK    7  A    between atoms: C6_10  and  C7_11 
REMARK    8  A    between atoms: C7_11  and  N2_12 
REMARK    9  A    between atoms: N2_12  and  C8_15 
REMARK   10  A    between atoms: C8_15  and  C9_16 
REMARK   11  A    between atoms: C12_19  and  C13_20 
ROOT
HETATM    1  C9  UNL     1     184.885 128.428  30.043  1.00  0.00    -0.033 A 
HETATM    2  C10 UNL     1     185.860 127.488  29.866  1.00  0.00     0.010 A 
HETATM    3  C11 UNL     1     185.623 126.146  30.156  1.00  0.00     0.014 A 
HETATM    4  C12 UNL     1     184.422 125.728  30.623  1.00  0.00    -0.009 A 
HETATM    5  C22 UNL     1     183.432 126.693  30.801  1.00  0.00     0.014 A 
HETATM    6  C23 UNL     1     183.661 128.007  30.517  1.00  0.00     0.010 A 
ENDROOT
BRANCH   1   7
HETATM    7  C8  UNL     1     185.139 129.871  29.740  1.00  0.00     0.270 C 
BRANCH   7   8
HETATM    8  N2  UNL     1     184.191 130.267  28.728  1.00  0.00    -0.071 N 
ATOM      9  H22 UNL     1     183.843 131.210  28.902  1.00  0.00     0.277 HD
ATOM     10  H21 UNL     1     183.318 129.749  28.822  1.00  0.00     0.277 HD
BRANCH   8  11
HETATM   11  C7  UNL     1     184.728 130.148  27.381  1.00  0.00     0.232 C 
BRANCH  11  12
HETATM   12  C6  UNL     1     186.226 130.155  27.450  1.00  0.00     0.029 C 
BRANCH  12  13
HETATM   13  C5  UNL     1     186.787 129.077  26.566  1.00  0.00     0.029 C 
BRANCH  13  14
HETATM   14  C4  UNL     1     185.717 128.491  25.719  1.00  0.00     0.232 C 
BRANCH  14  15
HETATM   15  N1  UNL     1     185.597 127.046  25.890  1.00  0.00    -0.075 N 
ATOM     16  H12 UNL     1     185.968 126.751  26.793  1.00  0.00     0.277 HD
ATOM     17  H11 UNL     1     186.242 126.549  25.276  1.00  0.00     0.277 HD
BRANCH  15  18
HETATM   18  C3  UNL     1     184.260 126.586  25.710  1.00  0.00     0.233 C 
BRANCH  18  19
HETATM   19  C2  UNL     1     183.558 126.543  27.040  1.00  0.00     0.038 C 
BRANCH  19  20
HETATM   20  C1  UNL     1     182.314 127.386  26.996  1.00  0.00     0.088 C 
HETATM   21  S1  UNL     1     181.885 127.975  25.344  1.00  0.00    -0.098 SA
ENDBRANCH  19  20
ENDBRANCH  18  19
ENDBRANCH  15  18
ENDBRANCH  14  15
ENDBRANCH  13  14
ENDBRANCH  12  13
ENDBRANCH  11  12
ENDBRANCH   8  11
ENDBRANCH   7   8
ENDBRANCH   1   7
BRANCH   4  22
HETATM   22  C13 UNL     1     184.091 124.353  30.953  1.00  0.00     0.043 A 
HETATM   23  C14 UNL     1     184.126 123.881  32.242  1.00  0.00     0.031 A 
HETATM   24  C15 UNL     1     183.810 122.568  32.576  1.00  0.00     0.016 A 
HETATM   25  C16 UNL     1     183.450 121.715  31.561  1.00  0.00    -0.009 A 
HETATM   26  C17 UNL     1     183.117 120.393  31.783  1.00  0.00     0.013 A 
HETATM   27  C21 UNL     1     183.419 122.197  30.281  1.00  0.00     0.043 A 
HETATM   28  C18 UNL     1     182.757 119.550  30.763  1.00  0.00     0.001 A 
HETATM   29  C19 UNL     1     182.732 120.063  29.462  1.00  0.00     0.002 A 
HETATM   30  C20 UNL     1     183.058 121.369  29.212  1.00  0.00     0.030 A 
HETATM   31  N3  UNL     1     183.731 123.472  30.000  1.00  0.00    -0.355 N 
ATOM     32  H3  UNL     1     183.694 123.784  29.030  1.00  0.00     0.166 HD
ENDBRANCH   4  22
TORSDOF 11
ENDMDL
MODEL 4
REMARK VINA RESULT: -7.414244358      3.008      4.775
REMARK  11 active torsions:
REMARK  status: ('A' for Active; 'I' for Inactive)
REMARK    1  A    between atoms: C1_2  and  C2_3 
REMARK    2  A    between atoms: C2_3  and  C3_4 
REMARK    3  A    between atoms: C3_4  and  N1_5 
REMARK    4  A    between atoms: N1_5  and  C4_8 
REMARK    5  A    between atoms: C4_8  and  C5_9 
REMARK    6  A    between atoms: C5_9  and  C6_10 
REMARK    7  A    between atoms: C6_10  and  C7_11 
REMARK    8  A    between atoms: C7_11  and  N2_12 
REMARK    9  A    between atoms: N2_12  and  C8_15 
REMARK   10  A    between atoms: C8_15  and  C9_16 
REMARK   11  A    between atoms: C12_19  and  C13_20 
ROOT
HETATM    1  C9  UNL     1     187.748 121.819  31.799  1.00  0.00    -0.033 A 
HETATM    2  C10 UNL     1     187.664 122.775  30.827  1.00  0.00     0.010 A 
HETATM    3  C11 UNL     1     187.332 124.091  31.142  1.00  0.00     0.014 A 
HETATM    4  C12 UNL     1     187.080 124.467  32.420  1.00  0.00    -0.009 A 
HETATM    5  C22 UNL     1     187.168 123.486  33.406  1.00  0.00     0.014 A 
HETATM    6  C23 UNL     1     187.494 122.197  33.100  1.00  0.00     0.010 A 
ENDROOT
BRANCH   1   7
HETATM    7  C8  UNL     1     188.096 120.404  31.462  1.00  0.00     0.270 C 
BRANCH   7   8
HETATM    8  N2  UNL     1     189.274 120.440  30.632  1.00  0.00    -0.071 N 
ATOM      9  H22 UNL     1     189.278 121.270  30.038  1.00  0.00     0.277 HD
ATOM     10  H21 UNL     1     189.236 119.721  29.911  1.00  0.00     0.277 HD
BRANCH   8  11
HETATM   11  C7  UNL     1     190.505 120.343  31.402  1.00  0.00     0.232 C 
BRANCH  11  12
HETATM   12  C6  UNL     1     191.411 121.474  31.018  1.00  0.00     0.029 C 
BRANCH  12  13
HETATM   13  C5  UNL     1     191.272 122.602  32.002  1.00  0.00     0.029 C 
BRANCH  13  14
HETATM   14  C4  UNL     1     191.161 123.901  31.292  1.00  0.00     0.232 C 
BRANCH  14  15
HETATM   15  N1  UNL     1     191.241 123.753  29.841  1.00  0.00    -0.075 N 
ATOM     16  H12 UNL     1     190.314 123.786  29.417  1.00  0.00     0.277 HD
ATOM     17  H11 UNL     1     191.506 122.803  29.583  1.00  0.00     0.277 HD
BRANCH  15  18
HETATM   18  C3  UNL     1     192.112 124.709  29.243  1.00  0.00     0.233 C 
BRANCH  18  19
HETATM   19  C2  UNL     1     193.451 124.075  28.979  1.00  0.00     0.038 C 
BRANCH  19  20
HETATM   20  C1  UNL     1     194.542 125.104  29.089  1.00  0.00     0.088 C 
HETATM   21  S1  UNL     1     193.958 126.744  29.563  1.00  0.00    -0.098 SA
ENDBRANCH  19  20
ENDBRANCH  18  19
ENDBRANCH  15  18
ENDBRANCH  14  15
ENDBRANCH  13  14
ENDBRANCH  12  13
ENDBRANCH  11  12
ENDBRANCH   8  11
ENDBRANCH   7   8
ENDBRANCH   1   7
BRANCH   4  22
HETATM   22  C13 UNL     1     186.726 125.812  32.836  1.00  0.00     0.043 A 
HETATM   23  C14 UNL     1     185.533 126.396  32.486  1.00  0.00     0.031 A 
HETATM   24  C15 UNL     1     185.176 127.682  32.877  1.00  0.00     0.016 A 
HETATM   25  C16 UNL     1     186.068 128.391  33.647  1.00  0.00    -0.009 A 
HETATM   26  C17 UNL     1     185.813 129.674  34.089  1.00  0.00     0.013 A 
HETATM   27  C21 UNL     1     187.253 127.798  33.988  1.00  0.00     0.043 A 
HETATM   28  C18 UNL     1     186.707 130.372  34.859  1.00  0.00     0.001 A 
HETATM   29  C19 UNL     1     187.913 129.749  35.196  1.00  0.00     0.002 A 
HETATM   30  C20 UNL     1     188.193 128.477  34.771  1.00  0.00     0.030 A 
HETATM   31  N3  UNL     1     187.560 126.554  33.591  1.00  0.00    -0.355 N 
ATOM     32  H3  UNL     1     188.456 126.156  33.870  1.00  0.00     0.166 HD
ENDBRANCH   4  22
TORSDOF 11
ENDMDL
MODEL 5
REMARK VINA RESULT: -7.396229836      2.506      4.616
REMARK  11 active torsions:
REMARK  status: ('A' for Active; 'I' for Inactive)
REMARK    1  A    between atoms: C1_2  and  C2_3 
REMARK    2  A    between atoms: C2_3  and  C3_4 
REMARK    3  A    between atoms: C3_4  and  N1_5 
REMARK    4  A    between atoms: N1_5  and  C4_8 
REMARK    5  A    between atoms: C4_8  and  C5_9 
REMARK    6  A    between atoms: C5_9  and  C6_10 
REMARK    7  A    between atoms: C6_10  and  C7_11 
REMARK    8  A    between atoms: C7_11  and  N2_12 
REMARK    9  A    between atoms: N2_12  and  C8_15 
REMARK   10  A    between atoms: C8_15  and  C9_16 
REMARK   11  A    between atoms: C12_19  and  C13_20 
ROOT
HETATM    1  C9  UNL     1     190.157 124.047  33.134  1.00  0.00    -0.033 A 
HETATM    2  C10 UNL     1     190.420 124.862  34.198  1.00  0.00     0.010 A 
HETATM    3  C11 UNL     1     189.621 125.973  34.463  1.00  0.00     0.014 A 
HETATM    4  C12 UNL     1     188.561 126.282  33.678  1.00  0.00    -0.009 A 
HETATM    5  C22 UNL     1     188.300 125.445  32.594  1.00  0.00     0.014 A 
HETATM    6  C23 UNL     1     189.080 124.357  32.332  1.00  0.00     0.010 A 
ENDROOT
BRANCH   1   7
HETATM    7  C8  UNL     1     191.018 122.858  32.841  1.00  0.00     0.270 C 
BRANCH   7   8
HETATM    8  N2  UNL     1     190.139 121.734  32.640  1.00  0.00    -0.071 N 
ATOM      9  H22 UNL     1     189.165 122.035  32.594  1.00  0.00     0.277 HD
ATOM     10  H21 UNL     1     190.092 121.151  33.475  1.00  0.00     0.277 HD
BRANCH   8  11
HETATM   11  C7  UNL     1     190.498 120.945  31.471  1.00  0.00     0.232 C 
BRANCH  11  12
HETATM   12  C6  UNL     1     189.261 120.304  30.916  1.00  0.00     0.029 C 
BRANCH  12  13
HETATM   13  C5  UNL     1     188.043 120.860  31.598  1.00  0.00     0.029 C 
BRANCH  13  14
HETATM   14  C4  UNL     1     186.974 119.832  31.673  1.00  0.00     0.232 C 
BRANCH  14  15
HETATM   15  N1  UNL     1     185.807 120.292  32.421  1.00  0.00    -0.075 N 
ATOM     16  H12 UNL     1     186.086 120.800  33.260  1.00  0.00     0.277 HD
ATOM     17  H11 UNL     1     185.319 119.510  32.857  1.00  0.00     0.277 HD
BRANCH  15  18
HETATM   18  C3  UNL     1     184.919 121.068  31.621  1.00  0.00     0.233 C 
BRANCH  18  19
HETATM   19  C2  UNL     1     183.561 120.422  31.604  1.00  0.00     0.038 C 
BRANCH  19  20
HETATM   20  C1  UNL     1     183.144 120.131  30.188  1.00  0.00     0.088 C 
HETATM   21  S1  UNL     1     182.984 121.601  29.154  1.00  0.00    -0.098 SA
ENDBRANCH  19  20
ENDBRANCH  18  19
ENDBRANCH  15  18
ENDBRANCH  14  15
ENDBRANCH  13  14
ENDBRANCH  12  13
ENDBRANCH  11  12
ENDBRANCH   8  11
ENDBRANCH   7   8
ENDBRANCH   1   7
BRANCH   4  22
HETATM   22  C13 UNL     1     187.680 127.418  33.880  1.00  0.00     0.043 A 
HETATM   23  C14 UNL     1     186.487 127.547  33.211  1.00  0.00     0.031 A 
HETATM   24  C15 UNL     1     185.630 128.627  33.393  1.00  0.00     0.016 A 
HETATM   25  C16 UNL     1     186.007 129.603  34.284  1.00  0.00    -0.009 A 
HETATM   26  C17 UNL     1     185.230 130.716  34.540  1.00  0.00     0.013 A 
HETATM   27  C21 UNL     1     187.197 129.464  34.944  1.00  0.00     0.043 A 
HETATM   28  C18 UNL     1     185.613 131.684  35.433  1.00  0.00     0.001 A 
HETATM   29  C19 UNL     1     186.834 131.523  36.096  1.00  0.00     0.002 A 
HETATM   30  C20 UNL     1     187.624 130.429  35.862  1.00  0.00     0.030 A 
HETATM   31  N3  UNL     1     187.996 128.405  34.740  1.00  0.00    -0.355 N 
ATOM     32  H3  UNL     1     188.874 128.347  35.255  1.00  0.00     0.166 HD
ENDBRANCH   4  22
TORSDOF 11
ENDMDL
