MODEL 1
REMARK VINA RESULT: -8.222190080      0.000      0.000
REMARK  9 active torsions:
REMARK  status: ('A' for Active; 'I' for Inactive)
REMARK    1  A    between atoms: C2_2  and  C4_4 
REMARK    2  A    between atoms: C4_4  and  C5_5 
REMARK    3  A    between atoms: C5_5  and  N1_6 
REMARK    4  A    between atoms: C5_5  and  C9_16 
REMARK       I    between atoms: N1_6  and  C6_8 
REMARK    5  A    between atoms: C6_8  and  C7_10 
REMARK    6  A    between atoms: C7_10  and  C8_13 
REMARK       I    between atoms: C9_16  and  N2_18 
REMARK    7  A    between atoms: N2_18  and  C10_20 
REMARK    8  A    between atoms: C15_25  and  C16_26 
REMARK    9  A    between atoms: C17_29  and  N4_30 
REMARK       I    between atoms: N4_30  and  C18_32 
ROOT
HETATM    1  C9  UNL     1      16.199 -13.531  22.012  1.00  0.00     0.240 C 
HETATM    2  O2  UNL     1      16.843 -12.482  21.847  1.00  0.00    -0.271 OA
HETATM    3  N2  UNL     1      16.710 -14.576  22.815  1.00  0.00    -0.353 N 
ATOM      4  H2  UNL     1      16.154 -15.424  22.928  1.00  0.00     0.163 HD
ENDROOT
BRANCH   1   5
HETATM    5  C5  UNL     1      14.853 -13.714  21.359  1.00  0.00     0.177 C 
BRANCH   5   6
HETATM    6  C4  UNL     1      14.631 -15.187  21.272  1.00  0.00     0.038 C 
BRANCH   6   7
HETATM    7  C2  UNL     1      14.091 -15.682  19.964  1.00  0.00    -0.020 C 
HETATM    8  C1  UNL     1      14.584 -14.886  18.792  1.00  0.00     0.009 C 
HETATM    9  C3  UNL     1      12.614 -15.830  19.896  1.00  0.00     0.009 C 
ENDBRANCH   6   7
ENDBRANCH   5   6
BRANCH   5  10
HETATM   10  N1  UNL     1      13.876 -13.009  22.148  1.00  0.00    -0.343 N 
HETATM   11  C6  UNL     1      13.481 -11.716  21.746  1.00  0.00     0.297 C 
HETATM   12  O1  UNL     1      13.963 -11.179  20.721  1.00  0.00    -0.266 OA
ATOM     13  H1  UNL     1      13.477 -13.437  22.983  1.00  0.00     0.163 HD
BRANCH  11  14
HETATM   14  C7  UNL     1      12.489 -10.972  22.530  1.00  0.00     0.379 C 
HETATM   15  F1  UNL     1      13.081 -10.022  23.351  1.00  0.00    -0.189 F 
HETATM   16  F2  UNL     1      11.602 -10.335  21.698  1.00  0.00    -0.189 F 
BRANCH  14  17
HETATM   17  C8  UNL     1      11.737 -11.904  23.483  1.00  0.00     0.434 C 
HETATM   18  F3  UNL     1      11.062 -11.231  24.455  1.00  0.00    -0.207 F 
HETATM   19  F4  UNL     1      10.916 -12.709  22.705  1.00  0.00    -0.207 F 
ENDBRANCH  14  17
ENDBRANCH  11  14
ENDBRANCH   5  10
ENDBRANCH   1   5
BRANCH   3  20
HETATM   20  C10 UNL     1      17.996 -14.489  23.483  1.00  0.00     0.108 C 
HETATM   21  C11 UNL     1      17.940 -15.086  24.881  1.00  0.00     0.036 C 
HETATM   22  C12 UNL     1      19.400 -15.544  25.029  1.00  0.00    -0.032 C 
HETATM   23  C13 UNL     1      19.530 -16.503  26.205  1.00  0.00     0.016 C 
HETATM   24  C14 UNL     1      20.196 -14.330  25.331  1.00  0.00     0.016 C 
HETATM   25  C15 UNL     1      19.617 -16.205  23.720  1.00  0.00     0.107 C 
HETATM   26  C17 UNL     1      19.002 -15.278  22.699  1.00  0.00     0.121 C 
BRANCH  25  27
HETATM   27  C16 UNL     1      20.957 -16.671  23.413  1.00  0.00     0.238 C 
HETATM   28  N3  UNL     1      21.312 -17.915  22.833  1.00  0.00    -0.062 NA
HETATM   29  O3  UNL     1      21.967 -15.925  23.671  1.00  0.00    -0.276 OA
ENDBRANCH  25  27
BRANCH  26  30
HETATM   30  N4  UNL     1      19.940 -14.454  22.002  1.00  0.00    -0.338 N 
HETATM   31  C18 UNL     1      19.685 -13.950  20.705  1.00  0.00     0.329 C 
HETATM   32  N5  UNL     1      20.655 -13.136  20.063  1.00  0.00    -0.040 NA
HETATM   33  O4  UNL     1      18.621 -14.189  20.075  1.00  0.00    -0.251 OA
ATOM     34  H4  UNL     1      20.823 -14.222  22.456  1.00  0.00     0.164 HD
ENDBRANCH  26  30
ENDBRANCH   3  20
TORSDOF 9
ENDMDL
MODEL 2
REMARK VINA RESULT: -7.805929238      4.149      7.350
REMARK  9 active torsions:
REMARK  status: ('A' for Active; 'I' for Inactive)
REMARK    1  A    between atoms: C2_2  and  C4_4 
REMARK    2  A    between atoms: C4_4  and  C5_5 
REMARK    3  A    between atoms: C5_5  and  N1_6 
REMARK    4  A    between atoms: C5_5  and  C9_16 
REMARK       I    between atoms: N1_6  and  C6_8 
REMARK    5  A    between atoms: C6_8  and  C7_10 
REMARK    6  A    between atoms: C7_10  and  C8_13 
REMARK       I    between atoms: C9_16  and  N2_18 
REMARK    7  A    between atoms: N2_18  and  C10_20 
REMARK    8  A    between atoms: C15_25  and  C16_26 
REMARK    9  A    between atoms: C17_29  and  N4_30 
REMARK       I    between atoms: N4_30  and  C18_32 
ROOT
HETATM    1  C9  UNL     1      17.662 -17.126  23.151  1.00  0.00     0.240 C 
HETATM    2  O2  UNL     1      18.017 -17.859  22.214  1.00  0.00    -0.271 OA
HETATM    3  N2  UNL     1      16.864 -15.983  22.914  1.00  0.00    -0.353 N 
ATOM      4  H2  UNL     1      16.590 -15.403  23.707  1.00  0.00     0.163 HD
ENDROOT
BRANCH   1   5
HETATM    5  C5  UNL     1      18.072 -17.438  24.567  1.00  0.00     0.177 C 
BRANCH   5   6
HETATM    6  C4  UNL     1      18.382 -18.898  24.597  1.00  0.00     0.038 C 
BRANCH   6   7
HETATM    7  C2  UNL     1      17.573 -19.709  25.563  1.00  0.00    -0.020 C 
HETATM    8  C1  UNL     1      16.095 -19.526  25.382  1.00  0.00     0.009 C 
HETATM    9  C3  UNL     1      17.935 -19.550  26.996  1.00  0.00     0.009 C 
ENDBRANCH   6   7
ENDBRANCH   5   6
BRANCH   5  10
HETATM   10  N1  UNL     1      19.183 -16.586  24.906  1.00  0.00    -0.343 N 
HETATM   11  C6  UNL     1      19.198 -15.957  26.169  1.00  0.00     0.297 C 
HETATM   12  O1  UNL     1      18.267 -16.129  26.991  1.00  0.00    -0.266 OA
ATOM     13  H1  UNL     1      19.946 -16.440  24.245  1.00  0.00     0.163 HD
BRANCH  11  14
HETATM   14  C7  UNL     1      20.314 -15.082  26.542  1.00  0.00     0.379 C 
HETATM   15  F1  UNL     1      20.100 -14.457  27.762  1.00  0.00    -0.189 F 
HETATM   16  F2  UNL     1      21.479 -15.804  26.623  1.00  0.00    -0.189 F 
BRANCH  14  17
HETATM   17  C8  UNL     1      20.474 -13.941  25.535  1.00  0.00     0.434 C 
HETATM   18  F3  UNL     1      20.739 -12.746  26.131  1.00  0.00    -0.207 F 
HETATM   19  F4  UNL     1      21.452 -14.329  24.628  1.00  0.00    -0.207 F 
ENDBRANCH  14  17
ENDBRANCH  11  14
ENDBRANCH   5  10
ENDBRANCH   1   5
BRANCH   3  20
HETATM   20  C10 UNL     1      16.420 -15.603  21.585  1.00  0.00     0.108 C 
HETATM   21  C11 UNL     1      14.936 -15.874  21.392  1.00  0.00     0.036 C 
HETATM   22  C12 UNL     1      14.603 -14.787  20.358  1.00  0.00    -0.032 C 
HETATM   23  C13 UNL     1      13.093 -14.605  20.259  1.00  0.00     0.016 C 
HETATM   24  C14 UNL     1      15.096 -15.283  19.051  1.00  0.00     0.016 C 
HETATM   25  C15 UNL     1      15.287 -13.616  20.956  1.00  0.00     0.107 C 
HETATM   26  C17 UNL     1      16.633 -14.129  21.408  1.00  0.00     0.121 C 
BRANCH  25  27
HETATM   27  C16 UNL     1      15.313 -12.385  20.188  1.00  0.00     0.238 C 
HETATM   28  N3  UNL     1      16.055 -12.137  19.006  1.00  0.00    -0.062 NA
HETATM   29  O3  UNL     1      14.613 -11.380  20.568  1.00  0.00    -0.276 OA
ENDBRANCH  25  27
BRANCH  26  30
HETATM   30  N4  UNL     1      17.714 -13.821  20.524  1.00  0.00    -0.338 N 
HETATM   31  C18 UNL     1      19.067 -13.914  20.926  1.00  0.00     0.329 C 
HETATM   32  N5  UNL     1      20.098 -13.595  20.003  1.00  0.00    -0.040 NA
HETATM   33  O4  UNL     1      19.416 -14.270  22.082  1.00  0.00    -0.251 OA
ATOM     34  H4  UNL     1      17.502 -13.526  19.571  1.00  0.00     0.164 HD
ENDBRANCH  26  30
ENDBRANCH   3  20
TORSDOF 9
ENDMDL
MODEL 3
REMARK VINA RESULT: -7.681194335      1.629      2.111
REMARK  9 active torsions:
REMARK  status: ('A' for Active; 'I' for Inactive)
REMARK    1  A    between atoms: C2_2  and  C4_4 
REMARK    2  A    between atoms: C4_4  and  C5_5 
REMARK    3  A    between atoms: C5_5  and  N1_6 
REMARK    4  A    between atoms: C5_5  and  C9_16 
REMARK       I    between atoms: N1_6  and  C6_8 
REMARK    5  A    between atoms: C6_8  and  C7_10 
REMARK    6  A    between atoms: C7_10  and  C8_13 
REMARK       I    between atoms: C9_16  and  N2_18 
REMARK    7  A    between atoms: N2_18  and  C10_20 
REMARK    8  A    between atoms: C15_25  and  C16_26 
REMARK    9  A    between atoms: C17_29  and  N4_30 
REMARK       I    between atoms: N4_30  and  C18_32 
ROOT
HETATM    1  C9  UNL     1      17.285 -13.788  21.655  1.00  0.00     0.240 C 
HETATM    2  O2  UNL     1      17.940 -12.734  21.694  1.00  0.00    -0.271 OA
HETATM    3  N2  UNL     1      17.760 -14.960  22.286  1.00  0.00    -0.353 N 
ATOM      4  H2  UNL     1      17.196 -15.809  22.233  1.00  0.00     0.163 HD
ENDROOT
BRANCH   1   5
HETATM    5  C5  UNL     1      15.963 -13.843  20.932  1.00  0.00     0.177 C 
BRANCH   5   6
HETATM    6  C4  UNL     1      15.601 -15.287  20.838  1.00  0.00     0.038 C 
BRANCH   6   7
HETATM    7  C2  UNL     1      14.843 -15.683  19.607  1.00  0.00    -0.020 C 
HETATM    8  C1  UNL     1      15.318 -14.968  18.376  1.00  0.00     0.009 C 
HETATM    9  C3  UNL     1      13.363 -15.594  19.709  1.00  0.00     0.009 C 
ENDBRANCH   6   7
ENDBRANCH   5   6
BRANCH   5  10
HETATM   10  N1  UNL     1      15.021 -13.038  21.667  1.00  0.00    -0.343 N 
HETATM   11  C6  UNL     1      14.201 -12.133  20.961  1.00  0.00     0.297 C 
HETATM   12  O1  UNL     1      14.281 -12.022  19.715  1.00  0.00    -0.266 OA
ATOM     13  H1  UNL     1      14.948 -13.122  22.681  1.00  0.00     0.163 HD
BRANCH  11  14
HETATM   14  C7  UNL     1      13.234 -11.300  21.682  1.00  0.00     0.379 C 
HETATM   15  F1  UNL     1      13.846 -10.504  22.640  1.00  0.00    -0.189 F 
HETATM   16  F2  UNL     1      12.560 -10.485  20.806  1.00  0.00    -0.189 F 
BRANCH  14  17
HETATM   17  C8  UNL     1      12.241 -12.166  22.461  1.00  0.00     0.434 C 
HETATM   18  F3  UNL     1      11.220 -11.443  22.999  1.00  0.00    -0.207 F 
HETATM   19  F4  UNL     1      11.810 -13.168  21.602  1.00  0.00    -0.207 F 
ENDBRANCH  14  17
ENDBRANCH  11  14
ENDBRANCH   5  10
ENDBRANCH   1   5
BRANCH   3  20
HETATM   20  C10 UNL     1      19.020 -15.004  23.005  1.00  0.00     0.108 C 
HETATM   21  C11 UNL     1      18.896 -14.389  24.390  1.00  0.00     0.036 C 
HETATM   22  C12 UNL     1      19.982 -15.185  25.130  1.00  0.00    -0.032 C 
HETATM   23  C13 UNL     1      19.819 -15.017  26.636  1.00  0.00     0.016 C 
HETATM   24  C14 UNL     1      21.283 -14.594  24.735  1.00  0.00     0.016 C 
HETATM   25  C15 UNL     1      19.680 -16.561  24.669  1.00  0.00     0.107 C 
HETATM   26  C17 UNL     1      19.425 -16.437  23.186  1.00  0.00     0.121 C 
BRANCH  25  27
HETATM   27  C16 UNL     1      20.593 -17.620  25.059  1.00  0.00     0.238 C 
HETATM   28  N3  UNL     1      22.004 -17.613  24.934  1.00  0.00    -0.062 NA
HETATM   29  O3  UNL     1      20.134 -18.700  25.575  1.00  0.00    -0.276 OA
ENDBRANCH  25  27
BRANCH  26  30
HETATM   30  N4  UNL     1      20.528 -16.816  22.359  1.00  0.00    -0.338 N 
HETATM   31  C18 UNL     1      20.577 -18.063  21.692  1.00  0.00     0.329 C 
HETATM   32  N5  UNL     1      21.699 -18.384  20.884  1.00  0.00    -0.040 NA
HETATM   33  O4  UNL     1      19.661 -18.923  21.778  1.00  0.00    -0.251 OA
ATOM     34  H4  UNL     1      21.305 -16.166  22.245  1.00  0.00     0.164 HD
ENDBRANCH  26  30
ENDBRANCH   3  20
TORSDOF 9
ENDMDL
MODEL 4
REMARK VINA RESULT: -7.601523632      2.210      2.814
REMARK  9 active torsions:
REMARK  status: ('A' for Active; 'I' for Inactive)
REMARK    1  A    between atoms: C2_2  and  C4_4 
REMARK    2  A    between atoms: C4_4  and  C5_5 
REMARK    3  A    between atoms: C5_5  and  N1_6 
REMARK    4  A    between atoms: C5_5  and  C9_16 
REMARK       I    between atoms: N1_6  and  C6_8 
REMARK    5  A    between atoms: C6_8  and  C7_10 
REMARK    6  A    between atoms: C7_10  and  C8_13 
REMARK       I    between atoms: C9_16  and  N2_18 
REMARK    7  A    between atoms: N2_18  and  C10_20 
REMARK    8  A    between atoms: C15_25  and  C16_26 
REMARK    9  A    between atoms: C17_29  and  N4_30 
REMARK       I    between atoms: N4_30  and  C18_32 
ROOT
HETATM    1  C9  UNL     1      16.465 -12.722  20.844  1.00  0.00     0.240 C 
HETATM    2  O2  UNL     1      17.567 -12.164  20.717  1.00  0.00    -0.271 OA
HETATM    3  N2  UNL     1      16.368 -14.013  21.410  1.00  0.00    -0.353 N 
ATOM      4  H2  UNL     1      15.447 -14.442  21.499  1.00  0.00     0.163 HD
ENDROOT
BRANCH   1   5
HETATM    5  C5  UNL     1      15.201 -12.033  20.396  1.00  0.00     0.177 C 
BRANCH   5   6
HETATM    6  C4  UNL     1      14.594 -12.914  19.356  1.00  0.00     0.038 C 
BRANCH   6   7
HETATM    7  C2  UNL     1      15.429 -13.135  18.131  1.00  0.00    -0.020 C 
HETATM    8  C1  UNL     1      15.080 -12.198  17.012  1.00  0.00     0.009 C 
HETATM    9  C3  UNL     1      15.474 -14.534  17.630  1.00  0.00     0.009 C 
ENDBRANCH   6   7
ENDBRANCH   5   6
BRANCH   5  10
HETATM   10  N1  UNL     1      14.374 -11.823  21.557  1.00  0.00    -0.343 N 
HETATM   11  C6  UNL     1      13.333 -10.874  21.488  1.00  0.00     0.297 C 
HETATM   12  O1  UNL     1      13.120 -10.219  20.441  1.00  0.00    -0.266 OA
ATOM     13  H1  UNL     1      14.539 -12.353  22.413  1.00  0.00     0.163 HD
BRANCH  11  14
HETATM   14  C7  UNL     1      12.475 -10.637  22.654  1.00  0.00     0.379 C 
HETATM   15  F1  UNL     1      13.129  -9.915  23.642  1.00  0.00    -0.189 F 
HETATM   16  F2  UNL     1      11.348  -9.947  22.285  1.00  0.00    -0.189 F 
BRANCH  14  17
HETATM   17  C8  UNL     1      12.085 -11.958  23.322  1.00  0.00     0.434 C 
HETATM   18  F3  UNL     1      11.368 -11.778  24.465  1.00  0.00    -0.207 F 
HETATM   19  F4  UNL     1      11.417 -12.716  22.370  1.00  0.00    -0.207 F 
ENDBRANCH  14  17
ENDBRANCH  11  14
ENDBRANCH   5  10
ENDBRANCH   1   5
BRANCH   3  20
HETATM   20  C10 UNL     1      17.530 -14.753  21.870  1.00  0.00     0.108 C 
HETATM   21  C11 UNL     1      18.352 -13.944  22.861  1.00  0.00     0.036 C 
HETATM   22  C12 UNL     1      18.964 -15.086  23.688  1.00  0.00    -0.032 C 
HETATM   23  C13 UNL     1      19.550 -14.538  24.983  1.00  0.00     0.016 C 
HETATM   24  C14 UNL     1      20.072 -15.648  22.878  1.00  0.00     0.016 C 
HETATM   25  C15 UNL     1      17.770 -15.937  23.912  1.00  0.00     0.107 C 
HETATM   26  C17 UNL     1      17.065 -15.991  22.578  1.00  0.00     0.121 C 
BRANCH  25  27
HETATM   27  C16 UNL     1      17.967 -17.218  24.566  1.00  0.00     0.238 C 
HETATM   28  N3  UNL     1      18.737 -18.307  24.087  1.00  0.00    -0.062 NA
HETATM   29  O3  UNL     1      17.411 -17.448  25.698  1.00  0.00    -0.276 OA
ENDBRANCH  25  27
BRANCH  26  30
HETATM   30  N4  UNL     1      17.298 -17.186  21.829  1.00  0.00    -0.338 N 
HETATM   31  C18 UNL     1      16.419 -17.623  20.810  1.00  0.00     0.329 C 
HETATM   32  N5  UNL     1      16.703 -18.819  20.101  1.00  0.00    -0.040 NA
HETATM   33  O4  UNL     1      15.374 -16.996  20.492  1.00  0.00    -0.251 OA
ATOM     34  H4  UNL     1      18.128 -17.743  22.036  1.00  0.00     0.164 HD
ENDBRANCH  26  30
ENDBRANCH   3  20
TORSDOF 9
ENDMDL
MODEL 5
REMARK VINA RESULT: -7.575987010      3.617      5.640
REMARK  9 active torsions:
REMARK  status: ('A' for Active; 'I' for Inactive)
REMARK    1  A    between atoms: C2_2  and  C4_4 
REMARK    2  A    between atoms: C4_4  and  C5_5 
REMARK    3  A    between atoms: C5_5  and  N1_6 
REMARK    4  A    between atoms: C5_5  and  C9_16 
REMARK       I    between atoms: N1_6  and  C6_8 
REMARK    5  A    between atoms: C6_8  and  C7_10 
REMARK    6  A    between atoms: C7_10  and  C8_13 
REMARK       I    between atoms: C9_16  and  N2_18 
REMARK    7  A    between atoms: N2_18  and  C10_20 
REMARK    8  A    between atoms: C15_25  and  C16_26 
REMARK    9  A    between atoms: C17_29  and  N4_30 
REMARK       I    between atoms: N4_30  and  C18_32 
ROOT
HETATM    1  C9  UNL     1      16.079 -14.964  20.146  1.00  0.00     0.240 C 
HETATM    2  O2  UNL     1      15.356 -15.027  19.138  1.00  0.00    -0.271 OA
HETATM    3  N2  UNL     1      16.419 -16.132  20.866  1.00  0.00    -0.353 N 
ATOM      4  H2  UNL     1      17.015 -16.044  21.690  1.00  0.00     0.163 HD
ENDROOT
BRANCH   1   5
HETATM    5  C5  UNL     1      16.612 -13.639  20.625  1.00  0.00     0.177 C 
BRANCH   5   6
HETATM    6  C4  UNL     1      17.816 -13.349  19.793  1.00  0.00     0.038 C 
BRANCH   6   7
HETATM    7  C2  UNL     1      19.111 -13.254  20.543  1.00  0.00    -0.020 C 
HETATM    8  C1  UNL     1      20.304 -13.168  19.637  1.00  0.00     0.009 C 
HETATM    9  C3  UNL     1      19.330 -14.297  21.579  1.00  0.00     0.009 C 
ENDBRANCH   6   7
ENDBRANCH   5   6
BRANCH   5  10
HETATM   10  N1  UNL     1      15.557 -12.665  20.506  1.00  0.00    -0.343 N 
HETATM   11  C6  UNL     1      14.605 -12.563  21.542  1.00  0.00     0.297 C 
HETATM   12  O1  UNL     1      14.665 -13.299  22.554  1.00  0.00    -0.266 OA
ATOM     13  H1  UNL     1      15.500 -12.061  19.686  1.00  0.00     0.163 HD
BRANCH  11  14
HETATM   14  C7  UNL     1      13.518 -11.582  21.447  1.00  0.00     0.379 C 
HETATM   15  F1  UNL     1      13.900 -10.335  21.922  1.00  0.00    -0.189 F 
HETATM   16  F2  UNL     1      13.112 -11.444  20.143  1.00  0.00    -0.189 F 
BRANCH  14  17
HETATM   17  C8  UNL     1      12.333 -11.994  22.325  1.00  0.00     0.434 C 
HETATM   18  F3  UNL     1      11.498 -10.955  22.603  1.00  0.00    -0.207 F 
HETATM   19  F4  UNL     1      11.699 -13.051  21.686  1.00  0.00    -0.207 F 
ENDBRANCH  14  17
ENDBRANCH  11  14
ENDBRANCH   5  10
ENDBRANCH   1   5
BRANCH   3  20
HETATM   20  C10 UNL     1      15.953 -17.451  20.479  1.00  0.00     0.108 C 
HETATM   21  C11 UNL     1      16.918 -18.538  20.926  1.00  0.00     0.036 C 
HETATM   22  C12 UNL     1      15.936 -19.708  21.095  1.00  0.00    -0.032 C 
HETATM   23  C13 UNL     1      16.592 -20.832  21.887  1.00  0.00     0.016 C 
HETATM   24  C14 UNL     1      15.640 -20.212  19.732  1.00  0.00     0.016 C 
HETATM   25  C15 UNL     1      14.839 -19.044  21.839  1.00  0.00     0.107 C 
HETATM   26  C17 UNL     1      14.638 -17.715  21.151  1.00  0.00     0.121 C 
BRANCH  25  27
HETATM   27  C16 UNL     1      13.630 -19.809  22.085  1.00  0.00     0.238 C 
HETATM   28  N3  UNL     1      12.742 -20.329  21.112  1.00  0.00    -0.062 NA
HETATM   29  O3  UNL     1      13.276 -20.073  23.289  1.00  0.00    -0.276 OA
ENDBRANCH  25  27
BRANCH  26  30
HETATM   30  N4  UNL     1      13.530 -17.675  20.248  1.00  0.00    -0.338 N 
HETATM   31  C18 UNL     1      12.477 -16.740  20.387  1.00  0.00     0.329 C 
HETATM   32  N5  UNL     1      11.403 -16.747  19.459  1.00  0.00    -0.040 NA
HETATM   33  O4  UNL     1      12.439 -15.883  21.309  1.00  0.00    -0.251 OA
ATOM     34  H4  UNL     1      13.498 -18.342  19.478  1.00  0.00     0.164 HD
ENDBRANCH  26  30
ENDBRANCH   3  20
TORSDOF 9
ENDMDL
