MODEL 1
REMARK VINA RESULT: -7.148717344      0.000      0.000
REMARK  11 active torsions:
REMARK  status: ('A' for Active; 'I' for Inactive)
REMARK    1  A    between atoms: C1_2  and  C2_4 
REMARK    2  A    between atoms: C2_4  and  C3_5 
REMARK    3  A    between atoms: C2_4  and  N3_12 
REMARK    4  A    between atoms: N2_6  and  C4_8 
REMARK    5  A    between atoms: C4_8  and  C5_10 
REMARK       I    between atoms: N3_12  and  C6_14 
REMARK       I    between atoms: C6_14  and  N4_16 
REMARK    6  A    between atoms: N4_16  and  C7_18 
REMARK    7  A    between atoms: C7_18  and  C8_19 
REMARK    8  A    between atoms: C7_18  and  C13_28 
REMARK    9  A    between atoms: C8_19  and  C9_20 
REMARK   10  A    between atoms: C9_20  and  C10_21 
REMARK   11  A    between atoms: C10_21  and  N5_22 
ROOT
HETATM    1  N3  UNL     1      15.493 -13.686  22.163  1.00  0.00    -0.326 N 
ATOM      2  H3  UNL     1      15.334 -12.974  22.877  1.00  0.00     0.165 HD
HETATM    3  C6  UNL     1      16.533 -14.604  22.317  1.00  0.00     0.317 C 
HETATM    4  O2  UNL     1      16.718 -15.489  21.414  1.00  0.00    -0.247 OA
HETATM    5  N4  UNL     1      17.370 -14.566  23.446  1.00  0.00    -0.336 N 
ATOM      6  H4  UNL     1      17.206 -13.853  24.157  1.00  0.00     0.164 HD
ENDROOT
BRANCH   1   7
HETATM    7  C2  UNL     1      14.613 -13.741  20.957  1.00  0.00     0.213 C 
BRANCH   7   8
HETATM    8  C1  UNL     1      14.993 -12.568  20.179  1.00  0.00     0.259 C 
HETATM    9  N1  UNL     1      16.286 -11.996  20.268  1.00  0.00    -0.060 NA
HETATM   10  O1  UNL     1      14.174 -11.997  19.388  1.00  0.00    -0.274 OA
ENDBRANCH   7   8
BRANCH   7  11
HETATM   11  C3  UNL     1      13.223 -13.771  21.500  1.00  0.00     0.092 C 
HETATM   12  N2  UNL     1      12.392 -12.702  21.608  1.00  0.00    -0.370 N 
ATOM     13  H2  UNL     1      11.611 -12.696  20.951  1.00  0.00     0.161 HD
BRANCH  12  14
HETATM   14  C4  UNL     1      12.439 -11.623  22.467  1.00  0.00     0.278 C 
HETATM   15  F1  UNL     1      11.806 -10.537  21.742  1.00  0.00    -0.226 F 
BRANCH  14  16
HETATM   16  C5  UNL     1      11.490 -11.756  23.668  1.00  0.00     0.144 C 
HETATM   17 BR1  UNL     1      11.451 -10.049  24.594  1.00  0.00    -0.092 Br
ENDBRANCH  14  16
ENDBRANCH  12  14
ENDBRANCH   7  11
ENDBRANCH   1   7
BRANCH   5  18
HETATM   18  C7  UNL     1      18.472 -15.517  23.638  1.00  0.00     0.119 C 
BRANCH  18  19
HETATM   19  C8  UNL     1      19.624 -14.737  24.099  1.00  0.00     0.030 C 
BRANCH  19  20
HETATM   20  C9  UNL     1      20.872 -15.419  24.491  1.00  0.00     0.041 C 
BRANCH  20  21
HETATM   21  C10 UNL     1      21.602 -14.470  25.464  1.00  0.00     0.124 A 
HETATM   22  C11 UNL     1      21.334 -14.684  26.908  1.00  0.00     0.041 A 
HETATM   23  C12 UNL     1      20.882 -13.463  26.236  1.00  0.00     0.041 A 
BRANCH  21  24
HETATM   24  N5  UNL     1      22.984 -14.235  25.133  1.00  0.00    -0.070 N 
ATOM     25  H53 UNL     1      23.496 -15.116  25.089  1.00  0.00     0.275 HD
ATOM     26  H52 UNL     1      23.073 -13.934  24.163  1.00  0.00     0.275 HD
ATOM     27  H51 UNL     1      23.457 -13.579  25.756  1.00  0.00     0.275 HD
ENDBRANCH  21  24
ENDBRANCH  20  21
ENDBRANCH  19  20
ENDBRANCH  18  19
BRANCH  18  28
HETATM   28  C13 UNL     1      17.924 -16.588  24.506  1.00  0.00     0.201 C 
HETATM   29 CL1  UNL     1      18.592 -18.195  24.268  1.00  0.00    -0.106 Cl
HETATM   30 CL2  UNL     1      17.906 -16.125  26.231  1.00  0.00    -0.106 Cl
ENDBRANCH  18  28
ENDBRANCH   5  18
TORSDOF 11
ENDMDL
MODEL 2
REMARK VINA RESULT: -7.089435008      1.055      1.303
REMARK  11 active torsions:
REMARK  status: ('A' for Active; 'I' for Inactive)
REMARK    1  A    between atoms: C1_2  and  C2_4 
REMARK    2  A    between atoms: C2_4  and  C3_5 
REMARK    3  A    between atoms: C2_4  and  N3_12 
REMARK    4  A    between atoms: N2_6  and  C4_8 
REMARK    5  A    between atoms: C4_8  and  C5_10 
REMARK       I    between atoms: N3_12  and  C6_14 
REMARK       I    between atoms: C6_14  and  N4_16 
REMARK    6  A    between atoms: N4_16  and  C7_18 
REMARK    7  A    between atoms: C7_18  and  C8_19 
REMARK    8  A    between atoms: C7_18  and  C13_28 
REMARK    9  A    between atoms: C8_19  and  C9_20 
REMARK   10  A    between atoms: C9_20  and  C10_21 
REMARK   11  A    between atoms: C10_21  and  N5_22 
ROOT
HETATM    1  N3  UNL     1      15.839 -13.844  22.171  1.00  0.00    -0.326 N 
ATOM      2  H3  UNL     1      15.569 -13.239  22.947  1.00  0.00     0.165 HD
HETATM    3  C6  UNL     1      16.866 -14.774  22.339  1.00  0.00     0.317 C 
HETATM    4  O2  UNL     1      17.191 -15.524  21.357  1.00  0.00    -0.247 OA
HETATM    5  N4  UNL     1      17.539 -14.894  23.569  1.00  0.00    -0.336 N 
ATOM      6  H4  UNL     1      17.264 -14.287  24.341  1.00  0.00     0.164 HD
ENDROOT
BRANCH   1   7
HETATM    7  C2  UNL     1      15.134 -13.731  20.859  1.00  0.00     0.213 C 
BRANCH   7   8
HETATM    8  C1  UNL     1      15.795 -12.616  20.190  1.00  0.00     0.259 C 
HETATM    9  N1  UNL     1      15.328 -12.098  18.957  1.00  0.00    -0.060 NA
HETATM   10  O1  UNL     1      16.832 -12.063  20.681  1.00  0.00    -0.274 OA
ENDBRANCH   7   8
BRANCH   7  11
HETATM   11  C3  UNL     1      13.695 -13.550  21.212  1.00  0.00     0.092 C 
HETATM   12  N2  UNL     1      13.048 -12.360  21.312  1.00  0.00    -0.370 N 
ATOM     13  H2  UNL     1      12.383 -12.168  20.564  1.00  0.00     0.161 HD
BRANCH  12  14
HETATM   14  C4  UNL     1      13.151 -11.372  22.270  1.00  0.00     0.278 C 
HETATM   15  F1  UNL     1      13.839 -10.278  21.609  1.00  0.00    -0.226 F 
BRANCH  14  16
HETATM   16  C5  UNL     1      11.810 -10.704  22.606  1.00  0.00     0.144 C 
HETATM   17 BR1  UNL     1      11.343 -11.177  24.431  1.00  0.00    -0.092 Br
ENDBRANCH  14  16
ENDBRANCH  12  14
ENDBRANCH   7  11
ENDBRANCH   1   7
BRANCH   5  18
HETATM   18  C7  UNL     1      18.622 -15.862  23.778  1.00  0.00     0.119 C 
BRANCH  18  19
HETATM   19  C8  UNL     1      19.840 -15.083  24.023  1.00  0.00     0.030 C 
BRANCH  19  20
HETATM   20  C9  UNL     1      20.966 -15.681  24.764  1.00  0.00     0.041 C 
BRANCH  20  21
HETATM   21  C10 UNL     1      21.627 -14.534  25.556  1.00  0.00     0.124 A 
HETATM   22  C11 UNL     1      21.392 -14.533  27.021  1.00  0.00     0.041 A 
HETATM   23  C12 UNL     1      20.836 -13.476  26.174  1.00  0.00     0.041 A 
BRANCH  21  24
HETATM   24  N5  UNL     1      22.982 -14.247  25.160  1.00  0.00    -0.070 N 
ATOM     25  H53 UNL     1      23.493 -15.112  24.985  1.00  0.00     0.275 HD
ATOM     26  H52 UNL     1      23.002 -13.842  24.225  1.00  0.00     0.275 HD
ATOM     27  H51 UNL     1      23.493 -13.657  25.817  1.00  0.00     0.275 HD
ENDBRANCH  21  24
ENDBRANCH  20  21
ENDBRANCH  19  20
ENDBRANCH  18  19
BRANCH  18  28
HETATM   28  C13 UNL     1      18.128 -16.788  24.827  1.00  0.00     0.201 C 
HETATM   29 CL1  UNL     1      17.813 -16.077  26.402  1.00  0.00    -0.106 Cl
HETATM   30 CL2  UNL     1      16.761 -17.789  24.264  1.00  0.00    -0.106 Cl
ENDBRANCH  18  28
ENDBRANCH   5  18
TORSDOF 11
ENDMDL
MODEL 3
REMARK VINA RESULT: -7.067653982      2.184      2.986
REMARK  11 active torsions:
REMARK  status: ('A' for Active; 'I' for Inactive)
REMARK    1  A    between atoms: C1_2  and  C2_4 
REMARK    2  A    between atoms: C2_4  and  C3_5 
REMARK    3  A    between atoms: C2_4  and  N3_12 
REMARK    4  A    between atoms: N2_6  and  C4_8 
REMARK    5  A    between atoms: C4_8  and  C5_10 
REMARK       I    between atoms: N3_12  and  C6_14 
REMARK       I    between atoms: C6_14  and  N4_16 
REMARK    6  A    between atoms: N4_16  and  C7_18 
REMARK    7  A    between atoms: C7_18  and  C8_19 
REMARK    8  A    between atoms: C7_18  and  C13_28 
REMARK    9  A    between atoms: C8_19  and  C9_20 
REMARK   10  A    between atoms: C9_20  and  C10_21 
REMARK   11  A    between atoms: C10_21  and  N5_22 
ROOT
HETATM    1  N3  UNL     1      15.103 -13.639  22.451  1.00  0.00    -0.326 N 
ATOM      2  H3  UNL     1      15.061 -13.074  23.300  1.00  0.00     0.165 HD
HETATM    3  C6  UNL     1      16.170 -14.517  22.253  1.00  0.00     0.317 C 
HETATM    4  O2  UNL     1      16.208 -15.218  21.185  1.00  0.00    -0.247 OA
HETATM    5  N4  UNL     1      17.194 -14.639  23.210  1.00  0.00    -0.336 N 
ATOM      6  H4  UNL     1      17.146 -14.071  24.057  1.00  0.00     0.164 HD
ENDROOT
BRANCH   1   7
HETATM    7  C2  UNL     1      14.024 -13.524  21.424  1.00  0.00     0.213 C 
BRANCH   7   8
HETATM    8  C1  UNL     1      14.442 -12.406  20.586  1.00  0.00     0.259 C 
HETATM    9  N1  UNL     1      13.638 -11.924  19.525  1.00  0.00    -0.060 NA
HETATM   10  O1  UNL     1      15.557 -11.817  20.766  1.00  0.00    -0.274 OA
ENDBRANCH   7   8
BRANCH   7  11
HETATM   11  C3  UNL     1      12.767 -13.347  22.210  1.00  0.00     0.092 C 
HETATM   12  N2  UNL     1      12.007 -12.223  22.245  1.00  0.00    -0.370 N 
ATOM     13  H2  UNL     1      11.113 -12.292  21.758  1.00  0.00     0.161 HD
BRANCH  12  14
HETATM   14  C4  UNL     1      12.255 -11.001  22.837  1.00  0.00     0.278 C 
HETATM   15  F1  UNL     1      11.664 -10.023  21.942  1.00  0.00    -0.226 F 
BRANCH  14  16
HETATM   16  C5  UNL     1      11.429 -10.759  24.109  1.00  0.00     0.144 C 
HETATM   17 BR1  UNL     1      11.830  -8.971  24.754  1.00  0.00    -0.092 Br
ENDBRANCH  14  16
ENDBRANCH  12  14
ENDBRANCH   7  11
ENDBRANCH   1   7
BRANCH   5  18
HETATM   18  C7  UNL     1      18.329 -15.552  23.032  1.00  0.00     0.119 C 
BRANCH  18  19
HETATM   19  C8  UNL     1      19.419 -14.761  22.455  1.00  0.00     0.030 C 
BRANCH  19  20
HETATM   20  C9  UNL     1      19.751 -14.887  21.024  1.00  0.00     0.041 C 
BRANCH  20  21
HETATM   21  C10 UNL     1      19.686 -13.464  20.432  1.00  0.00     0.124 A 
HETATM   22  C11 UNL     1      20.218 -13.305  19.056  1.00  0.00     0.041 A 
HETATM   23  C12 UNL     1      20.891 -12.677  20.196  1.00  0.00     0.041 A 
BRANCH  21  24
HETATM   24  N5  UNL     1      18.445 -12.776  20.684  1.00  0.00    -0.070 N 
ATOM     25  H53 UNL     1      17.929 -12.641  19.815  1.00  0.00     0.275 HD
ATOM     26  H52 UNL     1      17.794 -13.386  21.179  1.00  0.00     0.275 HD
ATOM     27  H51 UNL     1      18.552 -11.890  21.179  1.00  0.00     0.275 HD
ENDBRANCH  21  24
ENDBRANCH  20  21
ENDBRANCH  19  20
ENDBRANCH  18  19
BRANCH  18  28
HETATM   28  C13 UNL     1      18.522 -16.204  24.351  1.00  0.00     0.201 C 
HETATM   29 CL1  UNL     1      19.426 -17.711  24.344  1.00  0.00    -0.106 Cl
HETATM   30 CL2  UNL     1      19.129 -15.071  25.590  1.00  0.00    -0.106 Cl
ENDBRANCH  18  28
ENDBRANCH   5  18
TORSDOF 11
ENDMDL
MODEL 4
REMARK VINA RESULT: -7.044872070      2.906      3.594
REMARK  11 active torsions:
REMARK  status: ('A' for Active; 'I' for Inactive)
REMARK    1  A    between atoms: C1_2  and  C2_4 
REMARK    2  A    between atoms: C2_4  and  C3_5 
REMARK    3  A    between atoms: C2_4  and  N3_12 
REMARK    4  A    between atoms: N2_6  and  C4_8 
REMARK    5  A    between atoms: C4_8  and  C5_10 
REMARK       I    between atoms: N3_12  and  C6_14 
REMARK       I    between atoms: C6_14  and  N4_16 
REMARK    6  A    between atoms: N4_16  and  C7_18 
REMARK    7  A    between atoms: C7_18  and  C8_19 
REMARK    8  A    between atoms: C7_18  and  C13_28 
REMARK    9  A    between atoms: C8_19  and  C9_20 
REMARK   10  A    between atoms: C9_20  and  C10_21 
REMARK   11  A    between atoms: C10_21  and  N5_22 
ROOT
HETATM    1  N3  UNL     1      14.808 -15.348  21.239  1.00  0.00    -0.326 N 
ATOM      2  H3  UNL     1      15.015 -16.005  20.486  1.00  0.00     0.165 HD
HETATM    3  C6  UNL     1      15.806 -14.495  21.711  1.00  0.00     0.317 C 
HETATM    4  O2  UNL     1      15.530 -13.678  22.655  1.00  0.00    -0.247 OA
HETATM    5  N4  UNL     1      17.101 -14.524  21.164  1.00  0.00    -0.336 N 
ATOM      6  H4  UNL     1      17.302 -15.183  20.411  1.00  0.00     0.164 HD
ENDROOT
BRANCH   1   7
HETATM    7  C2  UNL     1      13.437 -15.303  21.831  1.00  0.00     0.213 C 
BRANCH   7   8
HETATM    8  C1  UNL     1      12.961 -16.678  21.742  1.00  0.00     0.259 C 
HETATM    9  N1  UNL     1      11.907 -17.052  20.873  1.00  0.00    -0.060 NA
HETATM   10  O1  UNL     1      13.467 -17.608  22.451  1.00  0.00    -0.274 OA
ENDBRANCH   7   8
BRANCH   7  11
HETATM   11  C3  UNL     1      12.706 -14.281  21.027  1.00  0.00     0.092 C 
HETATM   12  N2  UNL     1      12.612 -12.959  21.322  1.00  0.00    -0.370 N 
ATOM     13  H2  UNL     1      13.149 -12.343  20.712  1.00  0.00     0.161 HD
BRANCH  12  14
HETATM   14  C4  UNL     1      11.903 -12.320  22.319  1.00  0.00     0.278 C 
HETATM   15  F1  UNL     1      12.124 -13.120  23.509  1.00  0.00    -0.226 F 
BRANCH  14  16
HETATM   16  C5  UNL     1      12.526 -10.985  22.753  1.00  0.00     0.144 C 
HETATM   17 BR1  UNL     1      11.537 -10.332  24.292  1.00  0.00    -0.092 Br
ENDBRANCH  14  16
ENDBRANCH  12  14
ENDBRANCH   7  11
ENDBRANCH   1   7
BRANCH   5  18
HETATM   18  C7  UNL     1      18.173 -13.641  21.638  1.00  0.00     0.119 C 
BRANCH  18  19
HETATM   19  C8  UNL     1      19.100 -14.479  22.403  1.00  0.00     0.030 C 
BRANCH  19  20
HETATM   20  C9  UNL     1      18.853 -14.744  23.833  1.00  0.00     0.041 C 
BRANCH  20  21
HETATM   21  C10 UNL     1      20.229 -14.699  24.531  1.00  0.00     0.124 A 
HETATM   22  C11 UNL     1      20.308 -15.353  25.860  1.00  0.00     0.041 A 
HETATM   23  C12 UNL     1      20.452 -13.901  25.731  1.00  0.00     0.041 A 
BRANCH  21  24
HETATM   24  N5  UNL     1      21.342 -14.966  23.657  1.00  0.00    -0.070 N 
ATOM     25  H53 UNL     1      22.222 -14.905  24.170  1.00  0.00     0.275 HD
ATOM     26  H52 UNL     1      21.363 -15.952  23.397  1.00  0.00     0.275 HD
ATOM     27  H51 UNL     1      21.372 -14.376  22.825  1.00  0.00     0.275 HD
ENDBRANCH  21  24
ENDBRANCH  20  21
ENDBRANCH  19  20
ENDBRANCH  18  19
BRANCH  18  28
HETATM   28  C13 UNL     1      18.662 -12.929  20.432  1.00  0.00     0.201 C 
HETATM   29 CL1  UNL     1      20.315 -13.276  19.945  1.00  0.00    -0.106 Cl
HETATM   30 CL2  UNL     1      17.527 -13.051  19.059  1.00  0.00    -0.106 Cl
ENDBRANCH  18  28
ENDBRANCH   5  18
TORSDOF 11
ENDMDL
MODEL 5
REMARK VINA RESULT: -6.982267582      0.994      1.013
REMARK  11 active torsions:
REMARK  status: ('A' for Active; 'I' for Inactive)
REMARK    1  A    between atoms: C1_2  and  C2_4 
REMARK    2  A    between atoms: C2_4  and  C3_5 
REMARK    3  A    between atoms: C2_4  and  N3_12 
REMARK    4  A    between atoms: N2_6  and  C4_8 
REMARK    5  A    between atoms: C4_8  and  C5_10 
REMARK       I    between atoms: N3_12  and  C6_14 
REMARK       I    between atoms: C6_14  and  N4_16 
REMARK    6  A    between atoms: N4_16  and  C7_18 
REMARK    7  A    between atoms: C7_18  and  C8_19 
REMARK    8  A    between atoms: C7_18  and  C13_28 
REMARK    9  A    between atoms: C8_19  and  C9_20 
REMARK   10  A    between atoms: C9_20  and  C10_21 
REMARK   11  A    between atoms: C10_21  and  N5_22 
ROOT
HETATM    1  N3  UNL     1      15.900 -13.858  21.854  1.00  0.00    -0.326 N 
ATOM      2  H3  UNL     1      15.435 -13.332  22.595  1.00  0.00     0.165 HD
HETATM    3  C6  UNL     1      16.941 -14.732  22.171  1.00  0.00     0.317 C 
HETATM    4  O2  UNL     1      17.511 -15.385  21.232  1.00  0.00    -0.247 OA
HETATM    5  N4  UNL     1      17.363 -14.902  23.502  1.00  0.00    -0.336 N 
ATOM      6  H4  UNL     1      16.895 -14.373  24.238  1.00  0.00     0.164 HD
ENDROOT
BRANCH   1   7
HETATM    7  C2  UNL     1      15.464 -13.691  20.435  1.00  0.00     0.213 C 
BRANCH   7   8
HETATM    8  C1  UNL     1      16.195 -12.518  19.970  1.00  0.00     0.259 C 
HETATM    9  N1  UNL     1      15.960 -11.946  18.695  1.00  0.00    -0.060 NA
HETATM   10  O1  UNL     1      17.086 -11.959  20.687  1.00  0.00    -0.274 OA
ENDBRANCH   7   8
BRANCH   7  11
HETATM   11  C3  UNL     1      13.977 -13.578  20.503  1.00  0.00     0.092 C 
HETATM   12  N2  UNL     1      13.276 -12.424  20.650  1.00  0.00    -0.370 N 
ATOM     13  H2  UNL     1      12.772 -12.118  19.819  1.00  0.00     0.161 HD
BRANCH  12  14
HETATM   14  C4  UNL     1      13.141 -11.602  21.750  1.00  0.00     0.278 C 
HETATM   15  F1  UNL     1      12.471 -10.415  21.252  1.00  0.00    -0.226 F 
BRANCH  14  16
HETATM   16  C5  UNL     1      12.107 -12.107  22.768  1.00  0.00     0.144 C 
HETATM   17 BR1  UNL     1      11.618 -10.619  23.917  1.00  0.00    -0.092 Br
ENDBRANCH  14  16
ENDBRANCH  12  14
ENDBRANCH   7  11
ENDBRANCH   1   7
BRANCH   5  18
HETATM   18  C7  UNL     1      18.454 -15.813  23.868  1.00  0.00     0.119 C 
BRANCH  18  19
HETATM   19  C8  UNL     1      19.590 -14.973  24.259  1.00  0.00     0.030 C 
BRANCH  19  20
HETATM   20  C9  UNL     1      20.844 -15.592  24.726  1.00  0.00     0.041 C 
BRANCH  20  21
HETATM   21  C10 UNL     1      21.580 -14.518  25.554  1.00  0.00     0.124 A 
HETATM   22  C11 UNL     1      21.376 -14.573  27.023  1.00  0.00     0.041 A 
HETATM   23  C12 UNL     1      20.858 -13.451  26.238  1.00  0.00     0.041 A 
BRANCH  21  24
HETATM   24  N5  UNL     1      22.940 -14.283  25.140  1.00  0.00    -0.070 N 
ATOM     25  H53 UNL     1      23.579 -14.404  25.926  1.00  0.00     0.275 HD
ATOM     26  H52 UNL     1      23.264 -15.037  24.535  1.00  0.00     0.275 HD
ATOM     27  H51 UNL     1      23.090 -13.377  24.695  1.00  0.00     0.275 HD
ENDBRANCH  21  24
ENDBRANCH  20  21
ENDBRANCH  19  20
ENDBRANCH  18  19
BRANCH  18  28
HETATM   28  C13 UNL     1      17.870 -16.752  24.857  1.00  0.00     0.201 C 
HETATM   29 CL1  UNL     1      18.432 -18.414  24.772  1.00  0.00    -0.106 Cl
HETATM   30 CL2  UNL     1      17.934 -16.114  26.524  1.00  0.00    -0.106 Cl
ENDBRANCH  18  28
ENDBRANCH   5  18
TORSDOF 11
ENDMDL
