MODEL 1
REMARK VINA RESULT: -8.536084285      0.000      0.000
REMARK  12 active torsions:
REMARK  status: ('A' for Active; 'I' for Inactive)
REMARK    1  A    between atoms: N1_2  and  C2_4 
REMARK    2  A    between atoms: C2_4  and  C3_8 
REMARK    3  A    between atoms: C3_8  and  C4_9 
REMARK    4  A    between atoms: C4_9  and  N3_10 
REMARK    5  A    between atoms: C4_9  and  C15_29 
REMARK       I    between atoms: N3_10  and  C5_12 
REMARK       I    between atoms: C5_12  and  N4_14 
REMARK    6  A    between atoms: N4_14  and  C6_16 
REMARK    7  A    between atoms: C6_16  and  C7_17 
REMARK    8  A    between atoms: C7_17  and  C8_18 
REMARK    9  A    between atoms: C8_18  and  C9_19 
REMARK       I    between atoms: C9_19  and  N5_21 
REMARK       I    between atoms: C15_29  and  N6_31 
REMARK   10  A    between atoms: N6_31  and  C16_33 
REMARK   11  A    between atoms: C16_33  and  C17_34 
REMARK   12  A    between atoms: C17_34  and  C18_35 
ROOT
HETATM    1  N3  UNL     1      14.199 -12.327  21.748  1.00  0.00    -0.329 N 
ATOM      2  H3  UNL     1      14.014 -11.546  21.118  1.00  0.00     0.165 HD
HETATM    3  C5  UNL     1      15.524 -12.755  21.878  1.00  0.00     0.316 C 
HETATM    4  O1  UNL     1      15.853 -13.699  22.623  1.00  0.00    -0.247 OA
HETATM    5  N4  UNL     1      16.545 -12.091  21.138  1.00  0.00    -0.343 N 
ATOM      6  H4  UNL     1      16.309 -11.313  20.520  1.00  0.00     0.164 HD
ENDROOT
BRANCH   1   7
HETATM    7  C4  UNL     1      13.063 -12.914  22.445  1.00  0.00     0.185 C 
BRANCH   7   8
HETATM    8  C3  UNL     1      12.010 -11.865  22.487  1.00  0.00     0.110 C 
BRANCH   8   9
HETATM    9  C2  UNL     1      11.138 -11.818  23.661  1.00  0.00     0.072 C 
HETATM   10  N2  UNL     1      10.538 -12.864  24.070  1.00  0.00    -0.389 N 
ATOM     11  H22 UNL     1       9.930 -12.831  24.889  1.00  0.00     0.157 HD
ATOM     12  H21 UNL     1      10.688 -13.737  23.565  1.00  0.00     0.157 HD
BRANCH   9  13
HETATM   13  N1  UNL     1      10.931 -10.613  24.358  1.00  0.00    -0.384 N 
HETATM   14  C1  UNL     1      11.971  -9.603  24.273  1.00  0.00     0.147 C 
ATOM     15  H1  UNL     1      10.083 -10.455  24.903  1.00  0.00     0.160 HD
ENDBRANCH   9  13
ENDBRANCH   8   9
ENDBRANCH   7   8
BRANCH   7  16
HETATM   16  C15 UNL     1      12.756 -14.188  21.823  1.00  0.00     0.240 C 
HETATM   17  O3  UNL     1      12.158 -14.203  20.687  1.00  0.00    -0.271 OA
HETATM   18  N6  UNL     1      13.042 -15.486  22.320  1.00  0.00    -0.359 N 
ATOM     19  H6  UNL     1      13.521 -15.572  23.217  1.00  0.00     0.162 HD
BRANCH  18  20
HETATM   20  C16 UNL     1      12.685 -16.678  21.613  1.00  0.00     0.128 C 
BRANCH  20  21
HETATM   21  C17 UNL     1      13.808 -17.499  21.121  1.00  0.00     0.090 C 
BRANCH  21  22
HETATM   22  C18 UNL     1      14.416 -16.948  19.872  1.00  0.00     0.354 C 
HETATM   23  F3  UNL     1      13.360 -16.488  19.076  1.00  0.00    -0.214 F 
HETATM   24  F4  UNL     1      15.326 -15.976  20.147  1.00  0.00    -0.214 F 
ENDBRANCH  21  22
ENDBRANCH  20  21
ENDBRANCH  18  20
ENDBRANCH   7  16
ENDBRANCH   1   7
BRANCH   5  25
HETATM   25  C6  UNL     1      17.899 -12.522  21.266  1.00  0.00     0.125 C 
BRANCH  25  26
HETATM   26  C7  UNL     1      18.166 -13.826  20.548  1.00  0.00     0.029 C 
BRANCH  26  27
HETATM   27  C8  UNL     1      19.300 -14.567  21.222  1.00  0.00     0.104 C 
BRANCH  27  28
HETATM   28  C9  UNL     1      18.808 -15.535  22.221  1.00  0.00     0.219 C 
HETATM   29  O2  UNL     1      17.831 -16.253  21.904  1.00  0.00    -0.273 OA
HETATM   30  N5  UNL     1      19.448 -15.621  23.485  1.00  0.00    -0.352 N 
HETATM   31  C10 UNL     1      20.573 -14.787  23.828  1.00  0.00     0.131 C 
HETATM   32  C14 UNL     1      18.967 -16.569  24.466  1.00  0.00     0.131 C 
HETATM   33  C11 UNL     1      20.414 -14.186  25.216  1.00  0.00     0.099 C 
HETATM   34  C12 UNL     1      20.033 -15.264  26.228  1.00  0.00     0.246 C 
HETATM   35  F1  UNL     1      21.027 -16.207  26.249  1.00  0.00    -0.206 F 
HETATM   36  F2  UNL     1      19.897 -14.659  27.447  1.00  0.00    -0.206 F 
HETATM   37  C13 UNL     1      18.720 -15.853  25.766  1.00  0.00     0.099 C 
ENDBRANCH  27  28
ENDBRANCH  26  27
ENDBRANCH  25  26
ENDBRANCH   5  25
TORSDOF 12
ENDMDL
MODEL 2
REMARK VINA RESULT: -8.419393898      0.919      1.074
REMARK  12 active torsions:
REMARK  status: ('A' for Active; 'I' for Inactive)
REMARK    1  A    between atoms: N1_2  and  C2_4 
REMARK    2  A    between atoms: C2_4  and  C3_8 
REMARK    3  A    between atoms: C3_8  and  C4_9 
REMARK    4  A    between atoms: C4_9  and  N3_10 
REMARK    5  A    between atoms: C4_9  and  C15_29 
REMARK       I    between atoms: N3_10  and  C5_12 
REMARK       I    between atoms: C5_12  and  N4_14 
REMARK    6  A    between atoms: N4_14  and  C6_16 
REMARK    7  A    between atoms: C6_16  and  C7_17 
REMARK    8  A    between atoms: C7_17  and  C8_18 
REMARK    9  A    between atoms: C8_18  and  C9_19 
REMARK       I    between atoms: C9_19  and  N5_21 
REMARK       I    between atoms: C15_29  and  N6_31 
REMARK   10  A    between atoms: N6_31  and  C16_33 
REMARK   11  A    between atoms: C16_33  and  C17_34 
REMARK   12  A    between atoms: C17_34  and  C18_35 
ROOT
HETATM    1  N3  UNL     1      14.190 -12.479  21.592  1.00  0.00    -0.329 N 
ATOM      2  H3  UNL     1      13.969 -11.786  20.877  1.00  0.00     0.165 HD
HETATM    3  C5  UNL     1      15.538 -12.785  21.804  1.00  0.00     0.316 C 
HETATM    4  O1  UNL     1      15.910 -13.618  22.655  1.00  0.00    -0.247 OA
HETATM    5  N4  UNL     1      16.532 -12.125  21.024  1.00  0.00    -0.343 N 
ATOM      6  H4  UNL     1      16.260 -11.437  20.320  1.00  0.00     0.164 HD
ENDROOT
BRANCH   1   7
HETATM    7  C4  UNL     1      13.078 -13.078  22.317  1.00  0.00     0.185 C 
BRANCH   7   8
HETATM    8  C3  UNL     1      12.065 -12.003  22.493  1.00  0.00     0.110 C 
BRANCH   8   9
HETATM    9  C2  UNL     1      11.351 -11.938  23.768  1.00  0.00     0.072 C 
HETATM   10  N2  UNL     1      10.489 -12.821  24.078  1.00  0.00    -0.389 N 
ATOM     11  H22 UNL     1       9.991 -12.775  24.968  1.00  0.00     0.157 HD
ATOM     12  H21 UNL     1      10.315 -13.581  23.421  1.00  0.00     0.157 HD
BRANCH   9  13
HETATM   13  N1  UNL     1      11.590 -10.889  24.675  1.00  0.00    -0.384 N 
HETATM   14  C1  UNL     1      12.080  -9.633  24.135  1.00  0.00     0.147 C 
ATOM     15  H1  UNL     1      11.425 -11.006  25.675  1.00  0.00     0.160 HD
ENDBRANCH   9  13
ENDBRANCH   8   9
ENDBRANCH   7   8
BRANCH   7  16
HETATM   16  C15 UNL     1      12.691 -14.297  21.633  1.00  0.00     0.240 C 
HETATM   17  O3  UNL     1      12.251 -14.228  20.429  1.00  0.00    -0.271 OA
HETATM   18  N6  UNL     1      12.737 -15.623  22.134  1.00  0.00    -0.359 N 
ATOM     19  H6  UNL     1      13.077 -15.777  23.083  1.00  0.00     0.162 HD
BRANCH  18  20
HETATM   20  C16 UNL     1      12.323 -16.754  21.360  1.00  0.00     0.128 C 
BRANCH  20  21
HETATM   21  C17 UNL     1      13.193 -17.944  21.436  1.00  0.00     0.090 C 
BRANCH  21  22
HETATM   22  C18 UNL     1      14.552 -17.626  21.970  1.00  0.00     0.354 C 
HETATM   23  F3  UNL     1      14.575 -18.062  23.300  1.00  0.00    -0.214 F 
HETATM   24  F4  UNL     1      15.531 -18.191  21.216  1.00  0.00    -0.214 F 
ENDBRANCH  21  22
ENDBRANCH  20  21
ENDBRANCH  18  20
ENDBRANCH   7  16
ENDBRANCH   1   7
BRANCH   5  25
HETATM   25  C6  UNL     1      17.909 -12.432  21.235  1.00  0.00     0.125 C 
BRANCH  25  26
HETATM   26  C7  UNL     1      18.392 -13.569  20.363  1.00  0.00     0.029 C 
BRANCH  26  27
HETATM   27  C8  UNL     1      19.449 -14.369  21.092  1.00  0.00     0.104 C 
BRANCH  27  28
HETATM   28  C9  UNL     1      18.854 -15.367  22.002  1.00  0.00     0.219 C 
HETATM   29  O2  UNL     1      17.858 -16.007  21.593  1.00  0.00    -0.273 OA
HETATM   30  N5  UNL     1      19.423 -15.568  23.287  1.00  0.00    -0.352 N 
HETATM   31  C10 UNL     1      20.572 -14.822  23.737  1.00  0.00     0.131 C 
HETATM   32  C14 UNL     1      18.840 -16.545  24.181  1.00  0.00     0.131 C 
HETATM   33  C11 UNL     1      20.375 -14.300  25.151  1.00  0.00     0.099 C 
HETATM   34  C12 UNL     1      19.884 -15.415  26.073  1.00  0.00     0.246 C 
HETATM   35  F1  UNL     1      20.822 -16.413  26.080  1.00  0.00    -0.206 F 
HETATM   36  F2  UNL     1      19.718 -14.879  27.320  1.00  0.00    -0.206 F 
HETATM   37  C13 UNL     1      18.566 -15.897  25.511  1.00  0.00     0.099 C 
ENDBRANCH  27  28
ENDBRANCH  26  27
ENDBRANCH  25  26
ENDBRANCH   5  25
TORSDOF 12
ENDMDL
MODEL 3
REMARK VINA RESULT: -8.326580059      2.783      4.465
REMARK  12 active torsions:
REMARK  status: ('A' for Active; 'I' for Inactive)
REMARK    1  A    between atoms: N1_2  and  C2_4 
REMARK    2  A    between atoms: C2_4  and  C3_8 
REMARK    3  A    between atoms: C3_8  and  C4_9 
REMARK    4  A    between atoms: C4_9  and  N3_10 
REMARK    5  A    between atoms: C4_9  and  C15_29 
REMARK       I    between atoms: N3_10  and  C5_12 
REMARK       I    between atoms: C5_12  and  N4_14 
REMARK    6  A    between atoms: N4_14  and  C6_16 
REMARK    7  A    between atoms: C6_16  and  C7_17 
REMARK    8  A    between atoms: C7_17  and  C8_18 
REMARK    9  A    between atoms: C8_18  and  C9_19 
REMARK       I    between atoms: C9_19  and  N5_21 
REMARK       I    between atoms: C15_29  and  N6_31 
REMARK   10  A    between atoms: N6_31  and  C16_33 
REMARK   11  A    between atoms: C16_33  and  C17_34 
REMARK   12  A    between atoms: C17_34  and  C18_35 
ROOT
HETATM    1  N3  UNL     1      15.170 -12.671  21.239  1.00  0.00    -0.329 N 
ATOM      2  H3  UNL     1      15.165 -12.958  22.218  1.00  0.00     0.165 HD
HETATM    3  C5  UNL     1      16.413 -12.458  20.633  1.00  0.00     0.316 C 
HETATM    4  O1  UNL     1      16.525 -12.107  19.441  1.00  0.00    -0.247 OA
HETATM    5  N4  UNL     1      17.601 -12.648  21.396  1.00  0.00    -0.343 N 
ATOM      6  H4  UNL     1      17.544 -12.935  22.374  1.00  0.00     0.164 HD
ENDROOT
BRANCH   1   7
HETATM    7  C4  UNL     1      13.884 -12.515  20.576  1.00  0.00     0.185 C 
BRANCH   7   8
HETATM    8  C3  UNL     1      13.286 -13.875  20.494  1.00  0.00     0.110 C 
BRANCH   8   9
HETATM    9  C2  UNL     1      13.689 -14.860  21.498  1.00  0.00     0.072 C 
HETATM   10  N2  UNL     1      13.009 -15.023  22.561  1.00  0.00    -0.389 N 
ATOM     11  H22 UNL     1      13.290 -15.711  23.261  1.00  0.00     0.157 HD
ATOM     12  H21 UNL     1      12.172 -14.456  22.692  1.00  0.00     0.157 HD
BRANCH   9  13
HETATM   13  N1  UNL     1      14.845 -15.642  21.317  1.00  0.00    -0.384 N 
HETATM   14  C1  UNL     1      15.152 -16.082  19.968  1.00  0.00     0.147 C 
ATOM     15  H1  UNL     1      15.444 -15.890  22.104  1.00  0.00     0.160 HD
ENDBRANCH   9  13
ENDBRANCH   8   9
ENDBRANCH   7   8
BRANCH   7  16
HETATM   16  C15 UNL     1      13.146 -11.467  21.254  1.00  0.00     0.240 C 
HETATM   17  O3  UNL     1      13.311 -10.247  20.890  1.00  0.00    -0.271 OA
HETATM   18  N6  UNL     1      12.218 -11.611  22.319  1.00  0.00    -0.359 N 
ATOM     19  H6  UNL     1      12.020 -12.546  22.673  1.00  0.00     0.162 HD
BRANCH  18  20
HETATM   20  C16 UNL     1      11.550 -10.494  22.914  1.00  0.00     0.128 C 
BRANCH  20  21
HETATM   21  C17 UNL     1      11.568 -10.439  24.389  1.00  0.00     0.090 C 
BRANCH  21  22
HETATM   22  C18 UNL     1      12.049  -9.123  24.907  1.00  0.00     0.354 C 
HETATM   23  F3  UNL     1      13.181  -8.782  24.156  1.00  0.00    -0.214 F 
HETATM   24  F4  UNL     1      11.076  -8.176  24.846  1.00  0.00    -0.214 F 
ENDBRANCH  21  22
ENDBRANCH  20  21
ENDBRANCH  18  20
ENDBRANCH   7  16
ENDBRANCH   1   7
BRANCH   5  25
HETATM   25  C6  UNL     1      18.872 -12.432  20.784  1.00  0.00     0.125 C 
BRANCH  25  26
HETATM   26  C7  UNL     1      19.441 -13.690  20.165  1.00  0.00     0.029 C 
BRANCH  26  27
HETATM   27  C8  UNL     1      20.231 -14.464  21.198  1.00  0.00     0.104 C 
BRANCH  27  28
HETATM   28  C9  UNL     1      19.351 -15.218  22.112  1.00  0.00     0.219 C 
HETATM   29  O2  UNL     1      18.259 -15.632  21.660  1.00  0.00    -0.273 OA
HETATM   30  N5  UNL     1      19.767 -15.448  23.450  1.00  0.00    -0.352 N 
HETATM   31  C10 UNL     1      21.030 -14.964  23.949  1.00  0.00     0.131 C 
HETATM   32  C14 UNL     1      18.906 -16.186  24.348  1.00  0.00     0.131 C 
HETATM   33  C11 UNL     1      20.872 -14.302  25.308  1.00  0.00     0.099 C 
HETATM   34  C12 UNL     1      20.064 -15.193  26.250  1.00  0.00     0.246 C 
HETATM   35  F1  UNL     1      20.730 -16.382  26.396  1.00  0.00    -0.206 F 
HETATM   36  F2  UNL     1      19.951 -14.538  27.445  1.00  0.00    -0.206 F 
HETATM   37  C13 UNL     1      18.709 -15.390  25.610  1.00  0.00     0.099 C 
ENDBRANCH  27  28
ENDBRANCH  26  27
ENDBRANCH  25  26
ENDBRANCH   5  25
TORSDOF 12
ENDMDL
MODEL 4
REMARK VINA RESULT: -8.191678029      0.980      1.308
REMARK  12 active torsions:
REMARK  status: ('A' for Active; 'I' for Inactive)
REMARK    1  A    between atoms: N1_2  and  C2_4 
REMARK    2  A    between atoms: C2_4  and  C3_8 
REMARK    3  A    between atoms: C3_8  and  C4_9 
REMARK    4  A    between atoms: C4_9  and  N3_10 
REMARK    5  A    between atoms: C4_9  and  C15_29 
REMARK       I    between atoms: N3_10  and  C5_12 
REMARK       I    between atoms: C5_12  and  N4_14 
REMARK    6  A    between atoms: N4_14  and  C6_16 
REMARK    7  A    between atoms: C6_16  and  C7_17 
REMARK    8  A    between atoms: C7_17  and  C8_18 
REMARK    9  A    between atoms: C8_18  and  C9_19 
REMARK       I    between atoms: C9_19  and  N5_21 
REMARK       I    between atoms: C15_29  and  N6_31 
REMARK   10  A    between atoms: N6_31  and  C16_33 
REMARK   11  A    between atoms: C16_33  and  C17_34 
REMARK   12  A    between atoms: C17_34  and  C18_35 
ROOT
HETATM    1  N3  UNL     1      14.099 -12.171  21.694  1.00  0.00    -0.329 N 
ATOM      2  H3  UNL     1      13.932 -11.400  21.048  1.00  0.00     0.165 HD
HETATM    3  C5  UNL     1      15.417 -12.614  21.846  1.00  0.00     0.316 C 
HETATM    4  O1  UNL     1      15.725 -13.549  22.612  1.00  0.00    -0.247 OA
HETATM    5  N4  UNL     1      16.455 -11.978  21.105  1.00  0.00    -0.343 N 
ATOM      6  H4  UNL     1      16.236 -11.209  20.470  1.00  0.00     0.164 HD
ENDROOT
BRANCH   1   7
HETATM    7  C4  UNL     1      12.949 -12.730  22.390  1.00  0.00     0.185 C 
BRANCH   7   8
HETATM    8  C3  UNL     1      11.898 -11.677  22.374  1.00  0.00     0.110 C 
BRANCH   8   9
HETATM    9  C2  UNL     1      11.665 -10.925  23.607  1.00  0.00     0.072 C 
HETATM   10  N2  UNL     1      10.739 -11.263  24.413  1.00  0.00    -0.389 N 
ATOM     11  H22 UNL     1      10.577 -10.738  25.272  1.00  0.00     0.157 HD
ATOM     12  H21 UNL     1      10.171 -12.078  24.182  1.00  0.00     0.157 HD
BRANCH   9  13
HETATM   13  N1  UNL     1      12.449  -9.800  23.924  1.00  0.00    -0.384 N 
HETATM   14  C1  UNL     1      11.890  -8.833  24.852  1.00  0.00     0.147 C 
ATOM     15  H1  UNL     1      13.375  -9.669  23.518  1.00  0.00     0.160 HD
ENDBRANCH   9  13
ENDBRANCH   8   9
ENDBRANCH   7   8
BRANCH   7  16
HETATM   16  C15 UNL     1      12.650 -14.024  21.808  1.00  0.00     0.240 C 
HETATM   17  O3  UNL     1      12.055 -14.079  20.672  1.00  0.00    -0.271 OA
HETATM   18  N6  UNL     1      12.940 -15.304  22.348  1.00  0.00    -0.359 N 
ATOM     19  H6  UNL     1      13.416 -15.360  23.248  1.00  0.00     0.162 HD
BRANCH  18  20
HETATM   20  C16 UNL     1      12.590 -16.520  21.678  1.00  0.00     0.128 C 
BRANCH  20  21
HETATM   21  C17 UNL     1      13.718 -17.344  21.201  1.00  0.00     0.090 C 
BRANCH  21  22
HETATM   22  C18 UNL     1      14.301 -16.831  19.924  1.00  0.00     0.354 C 
HETATM   23  F3  UNL     1      13.226 -16.435  19.120  1.00  0.00    -0.214 F 
HETATM   24  F4  UNL     1      15.187 -15.825  20.147  1.00  0.00    -0.214 F 
ENDBRANCH  21  22
ENDBRANCH  20  21
ENDBRANCH  18  20
ENDBRANCH   7  16
ENDBRANCH   1   7
BRANCH   5  25
HETATM   25  C6  UNL     1      17.801 -12.425  21.256  1.00  0.00     0.125 C 
BRANCH  25  26
HETATM   26  C7  UNL     1      18.129 -13.600  20.360  1.00  0.00     0.029 C 
BRANCH  26  27
HETATM   27  C8  UNL     1      18.193 -14.872  21.177  1.00  0.00     0.104 C 
BRANCH  27  28
HETATM   28  C9  UNL     1      19.474 -14.998  21.899  1.00  0.00     0.219 C 
HETATM   29  O2  UNL     1      20.519 -15.106  21.217  1.00  0.00    -0.273 OA
HETATM   30  N5  UNL     1      19.479 -14.991  23.319  1.00  0.00    -0.352 N 
HETATM   31  C10 UNL     1      18.264 -14.865  24.085  1.00  0.00     0.131 C 
HETATM   32  C14 UNL     1      20.733 -15.117  24.029  1.00  0.00     0.131 C 
HETATM   33  C11 UNL     1      18.214 -15.878  25.217  1.00  0.00     0.099 C 
HETATM   34  C12 UNL     1      19.521 -15.866  26.008  1.00  0.00     0.246 C 
HETATM   35  F1  UNL     1      19.701 -14.610  26.525  1.00  0.00    -0.206 F 
HETATM   36  F2  UNL     1      19.414 -16.801  26.999  1.00  0.00    -0.206 F 
HETATM   37  C13 UNL     1      20.622 -16.228  25.037  1.00  0.00     0.099 C 
ENDBRANCH  27  28
ENDBRANCH  26  27
ENDBRANCH  25  26
ENDBRANCH   5  25
TORSDOF 12
ENDMDL
MODEL 5
REMARK VINA RESULT: -8.078213169      2.982      4.680
REMARK  12 active torsions:
REMARK  status: ('A' for Active; 'I' for Inactive)
REMARK    1  A    between atoms: N1_2  and  C2_4 
REMARK    2  A    between atoms: C2_4  and  C3_8 
REMARK    3  A    between atoms: C3_8  and  C4_9 
REMARK    4  A    between atoms: C4_9  and  N3_10 
REMARK    5  A    between atoms: C4_9  and  C15_29 
REMARK       I    between atoms: N3_10  and  C5_12 
REMARK       I    between atoms: C5_12  and  N4_14 
REMARK    6  A    between atoms: N4_14  and  C6_16 
REMARK    7  A    between atoms: C6_16  and  C7_17 
REMARK    8  A    between atoms: C7_17  and  C8_18 
REMARK    9  A    between atoms: C8_18  and  C9_19 
REMARK       I    between atoms: C9_19  and  N5_21 
REMARK       I    between atoms: C15_29  and  N6_31 
REMARK   10  A    between atoms: N6_31  and  C16_33 
REMARK   11  A    between atoms: C16_33  and  C17_34 
REMARK   12  A    between atoms: C17_34  and  C18_35 
ROOT
HETATM    1  N3  UNL     1      15.638 -12.627  21.254  1.00  0.00    -0.329 N 
ATOM      2  H3  UNL     1      15.799 -12.343  22.221  1.00  0.00     0.165 HD
HETATM    3  C5  UNL     1      16.760 -12.886  20.460  1.00  0.00     0.316 C 
HETATM    4  O1  UNL     1      16.669 -13.239  19.267  1.00  0.00    -0.247 OA
HETATM    5  N4  UNL     1      18.061 -12.745  21.026  1.00  0.00    -0.343 N 
ATOM      6  H4  UNL     1      18.169 -12.458  22.000  1.00  0.00     0.164 HD
ENDROOT
BRANCH   1   7
HETATM    7  C4  UNL     1      14.258 -12.733  20.803  1.00  0.00     0.185 C 
BRANCH   7   8
HETATM    8  C3  UNL     1      13.828 -14.127  21.095  1.00  0.00     0.110 C 
BRANCH   8   9
HETATM    9  C2  UNL     1      13.495 -14.992  19.963  1.00  0.00     0.072 C 
HETATM   10  N2  UNL     1      14.234 -15.024  18.927  1.00  0.00    -0.389 N 
ATOM     11  H22 UNL     1      14.002 -15.627  18.138  1.00  0.00     0.157 HD
ATOM     12  H21 UNL     1      15.069 -14.439  18.910  1.00  0.00     0.157 HD
BRANCH   9  13
HETATM   13  N1  UNL     1      12.342 -15.799  19.987  1.00  0.00    -0.384 N 
HETATM   14  C1  UNL     1      12.222 -16.765  21.065  1.00  0.00     0.147 C 
ATOM     15  H1  UNL     1      11.619 -15.709  19.274  1.00  0.00     0.160 HD
ENDBRANCH   9  13
ENDBRANCH   8   9
ENDBRANCH   7   8
BRANCH   7  16
HETATM   16  C15 UNL     1      13.505 -11.635  21.377  1.00  0.00     0.240 C 
HETATM   17  O3  UNL     1      13.827 -10.429  21.076  1.00  0.00    -0.271 OA
HETATM   18  N6  UNL     1      12.405 -11.712  22.271  1.00  0.00    -0.359 N 
ATOM     19  H6  UNL     1      12.076 -12.632  22.563  1.00  0.00     0.162 HD
BRANCH  18  20
HETATM   20  C16 UNL     1      11.740 -10.550  22.776  1.00  0.00     0.128 C 
BRANCH  20  21
HETATM   21  C17 UNL     1      11.537 -10.505  24.237  1.00  0.00     0.090 C 
BRANCH  21  22
HETATM   22  C18 UNL     1      12.027  -9.230  24.843  1.00  0.00     0.354 C 
HETATM   23  F3  UNL     1      13.157  -8.843  24.113  1.00  0.00    -0.214 F 
HETATM   24  F4  UNL     1      11.058  -8.276  24.854  1.00  0.00    -0.214 F 
ENDBRANCH  21  22
ENDBRANCH  20  21
ENDBRANCH  18  20
ENDBRANCH   7  16
ENDBRANCH   1   7
BRANCH   5  25
HETATM   25  C6  UNL     1      19.209 -13.007  20.222  1.00  0.00     0.125 C 
BRANCH  25  26
HETATM   26  C7  UNL     1      20.108 -14.068  20.819  1.00  0.00     0.029 C 
BRANCH  26  27
HETATM   27  C8  UNL     1      19.272 -15.186  21.404  1.00  0.00     0.104 C 
BRANCH  27  28
HETATM   28  C9  UNL     1      20.037 -15.997  22.371  1.00  0.00     0.219 C 
HETATM   29  O2  UNL     1      20.804 -16.876  21.915  1.00  0.00    -0.273 OA
HETATM   30  N5  UNL     1      19.882 -15.757  23.761  1.00  0.00    -0.352 N 
HETATM   31  C10 UNL     1      18.994 -14.738  24.265  1.00  0.00     0.131 C 
HETATM   32  C14 UNL     1      20.629 -16.552  24.711  1.00  0.00     0.131 C 
HETATM   33  C11 UNL     1      18.144 -15.261  25.411  1.00  0.00     0.099 C 
HETATM   34  C12 UNL     1      19.013 -15.976  26.444  1.00  0.00     0.246 C 
HETATM   35  F1  UNL     1      19.932 -15.082  26.927  1.00  0.00    -0.206 F 
HETATM   36  F2  UNL     1      18.190 -16.428  27.437  1.00  0.00    -0.206 F 
HETATM   37  C13 UNL     1      19.682 -17.128  25.728  1.00  0.00     0.099 C 
ENDBRANCH  27  28
ENDBRANCH  26  27
ENDBRANCH  25  26
ENDBRANCH   5  25
TORSDOF 12
ENDMDL
