MODEL 1
REMARK VINA RESULT: -6.943860085      0.000      0.000
REMARK  15 active torsions:
REMARK  status: ('A' for Active; 'I' for Inactive)
REMARK    1  A    between atoms: N1_1  and  S1_4 
REMARK    2  A    between atoms: S1_4  and  N2_7 
REMARK    3  A    between atoms: N2_7  and  C1_9 
REMARK    4  A    between atoms: C1_9  and  C2_10 
REMARK    5  A    between atoms: C2_10  and  C3_11 
REMARK    6  A    between atoms: C3_11  and  C4_12 
REMARK    7  A    between atoms: C4_12  and  C5_13 
REMARK    8  A    between atoms: C5_13  and  C6_14 
REMARK    9  A    between atoms: C6_14  and  N3_15 
REMARK   10  A    between atoms: N3_15  and  C7_17 
REMARK   11  A    between atoms: C8_22  and  N6_23 
REMARK   12  A    between atoms: N6_23  and  C9_25 
REMARK   13  A    between atoms: C9_25  and  C10_26 
REMARK   14  A    between atoms: C12_28  and  C13_30 
REMARK   15  A    between atoms: C13_30  and  C14_32 
ROOT
HETATM    1  C7  UNL     1      14.818 -13.196  22.003  1.00  0.00     0.707 A 
HETATM    2  N4  UNL     1      15.291 -12.115  21.359  1.00  0.00    -0.117 N 
ATOM      3  H4  UNL     1      14.709 -11.361  20.994  1.00  0.00     0.206 HD
HETATM    4  N5  UNL     1      16.606 -12.157  21.259  1.00  0.00    -0.117 N 
ATOM      5  H5  UNL     1      17.212 -11.464  20.819  1.00  0.00     0.206 HD
HETATM    6  C8  UNL     1      16.987 -13.300  21.857  1.00  0.00     0.707 A 
HETATM    7  N7  UNL     1      15.893 -13.939  22.315  1.00  0.00    -0.020 N 
ATOM      8  H7  UNL     1      15.883 -14.830  22.811  1.00  0.00     0.203 HD
ENDROOT
BRANCH   1   9
HETATM    9  N3  UNL     1      13.580 -13.502  22.290  1.00  0.00    -0.224 N 
ATOM     10  H3  UNL     1      13.193 -13.189  23.181  1.00  0.00     0.177 HD
BRANCH   9  11
HETATM   11  C6  UNL     1      12.745 -14.259  21.408  1.00  0.00     0.138 C 
BRANCH  11  12
HETATM   12  C5  UNL     1      12.761 -15.752  21.752  1.00  0.00     0.020 C 
BRANCH  12  13
HETATM   13  C4  UNL     1      13.596 -16.515  20.738  1.00  0.00     0.002 C 
BRANCH  13  14
HETATM   14  C3  UNL     1      13.702 -15.874  19.418  1.00  0.00     0.002 C 
BRANCH  14  15
HETATM   15  C2  UNL     1      14.994 -15.725  18.737  1.00  0.00     0.020 C 
BRANCH  15  16
HETATM   16  C1  UNL     1      15.613 -14.409  18.512  1.00  0.00     0.133 C 
BRANCH  16  17
HETATM   17  N2  UNL     1      15.488 -13.891  17.204  1.00  0.00    -0.303 N 
ATOM     18  H2  UNL     1      15.278 -14.455  16.381  1.00  0.00     0.173 HD
BRANCH  17  19
HETATM   19  S1  UNL     1      15.739 -12.160  17.174  1.00  0.00     0.312 S 
HETATM   20  O1  UNL     1      16.341 -11.799  18.493  1.00  0.00    -0.183 OA
HETATM   21  O2  UNL     1      14.427 -11.461  17.018  1.00  0.00    -0.183 OA
BRANCH  19  22
HETATM   22  N1  UNL     1      16.821 -11.817  15.884  1.00  0.00    -0.312 N 
ATOM     23  H12 UNL     1      17.751 -12.227  15.803  1.00  0.00     0.170 HD
ATOM     24  H11 UNL     1      16.408 -11.157  15.224  1.00  0.00     0.170 HD
ENDBRANCH  19  22
ENDBRANCH  17  19
ENDBRANCH  16  17
ENDBRANCH  15  16
ENDBRANCH  14  15
ENDBRANCH  13  14
ENDBRANCH  12  13
ENDBRANCH  11  12
ENDBRANCH   9  11
ENDBRANCH   1   9
BRANCH   6  25
HETATM   25  N6  UNL     1      18.190 -13.750  21.994  1.00  0.00    -0.224 N 
ATOM     26  H6  UNL     1      18.911 -13.510  21.315  1.00  0.00     0.177 HD
BRANCH  25  27
HETATM   27  C9  UNL     1      18.507 -14.615  23.145  1.00  0.00     0.144 C 
BRANCH  27  28
HETATM   28  C10 UNL     1      19.998 -14.713  23.182  1.00  0.00     0.032 A 
HETATM   29  C11 UNL     1      20.449 -16.203  23.142  1.00  0.00     0.037 A 
HETATM   30  C12 UNL     1      20.813 -15.254  24.260  1.00  0.00     0.082 A 
HETATM   31 CL1  UNL     1      22.572 -14.786  24.181  1.00  0.00    -0.115 Cl
BRANCH  30  32
HETATM   32  C13 UNL     1      20.371 -15.479  25.663  1.00  0.00     0.301 C 
HETATM   33  F1  UNL     1      21.124 -16.592  26.120  1.00  0.00    -0.238 F 
BRANCH  32  34
HETATM   34  C14 UNL     1      20.785 -14.380  26.629  1.00  0.00     0.419 C 
HETATM   35  F2  UNL     1      22.053 -14.576  27.071  1.00  0.00    -0.168 F 
HETATM   36  F3  UNL     1      19.854 -14.369  27.661  1.00  0.00    -0.168 F 
HETATM   37  F4  UNL     1      20.693 -13.137  26.028  1.00  0.00    -0.168 F 
ENDBRANCH  32  34
ENDBRANCH  30  32
ENDBRANCH  27  28
ENDBRANCH  25  27
ENDBRANCH   6  25
TORSDOF 15
ENDMDL
MODEL 2
REMARK VINA RESULT: -6.880795464      2.306      3.299
REMARK  15 active torsions:
REMARK  status: ('A' for Active; 'I' for Inactive)
REMARK    1  A    between atoms: N1_1  and  S1_4 
REMARK    2  A    between atoms: S1_4  and  N2_7 
REMARK    3  A    between atoms: N2_7  and  C1_9 
REMARK    4  A    between atoms: C1_9  and  C2_10 
REMARK    5  A    between atoms: C2_10  and  C3_11 
REMARK    6  A    between atoms: C3_11  and  C4_12 
REMARK    7  A    between atoms: C4_12  and  C5_13 
REMARK    8  A    between atoms: C5_13  and  C6_14 
REMARK    9  A    between atoms: C6_14  and  N3_15 
REMARK   10  A    between atoms: N3_15  and  C7_17 
REMARK   11  A    between atoms: C8_22  and  N6_23 
REMARK   12  A    between atoms: N6_23  and  C9_25 
REMARK   13  A    between atoms: C9_25  and  C10_26 
REMARK   14  A    between atoms: C12_28  and  C13_30 
REMARK   15  A    between atoms: C13_30  and  C14_32 
ROOT
HETATM    1  C7  UNL     1      15.742 -16.265  21.268  1.00  0.00     0.707 A 
HETATM    2  N4  UNL     1      15.691 -15.667  22.471  1.00  0.00    -0.117 N 
ATOM      3  H4  UNL     1      14.840 -15.297  22.896  1.00  0.00     0.206 HD
HETATM    4  N5  UNL     1      16.885 -15.619  23.031  1.00  0.00    -0.117 N 
ATOM      5  H5  UNL     1      17.122 -15.220  23.939  1.00  0.00     0.206 HD
HETATM    6  C8  UNL     1      17.727 -16.203  22.159  1.00  0.00     0.707 A 
HETATM    7  N7  UNL     1      17.029 -16.601  21.078  1.00  0.00    -0.020 N 
ATOM      8  H7  UNL     1      17.410 -17.074  20.259  1.00  0.00     0.203 HD
ENDROOT
BRANCH   1   9
HETATM    9  N3  UNL     1      14.770 -16.495  20.425  1.00  0.00    -0.224 N 
ATOM     10  H3  UNL     1      14.348 -17.423  20.408  1.00  0.00     0.177 HD
BRANCH   9  11
HETATM   11  C6  UNL     1      14.273 -15.499  19.525  1.00  0.00     0.138 C 
BRANCH  11  12
HETATM   12  C5  UNL     1      15.258 -15.223  18.383  1.00  0.00     0.020 C 
BRANCH  12  13
HETATM   13  C4  UNL     1      15.257 -13.744  18.037  1.00  0.00     0.002 C 
BRANCH  13  14
HETATM   14  C3  UNL     1      16.498 -13.030  18.375  1.00  0.00     0.002 C 
BRANCH  14  15
HETATM   15  C2  UNL     1      17.130 -13.167  19.693  1.00  0.00     0.020 C 
BRANCH  15  16
HETATM   16  C1  UNL     1      16.541 -12.582  20.908  1.00  0.00     0.133 C 
BRANCH  16  17
HETATM   17  N2  UNL     1      15.632 -11.521  20.696  1.00  0.00    -0.303 N 
ATOM     18  H2  UNL     1      15.856 -10.668  20.185  1.00  0.00     0.173 HD
BRANCH  17  19
HETATM   19  S1  UNL     1      14.076 -11.857  21.421  1.00  0.00     0.312 S 
HETATM   20  O1  UNL     1      14.295 -12.967  22.396  1.00  0.00    -0.183 OA
HETATM   21  O2  UNL     1      13.113 -12.303  20.368  1.00  0.00    -0.183 OA
BRANCH  19  22
HETATM   22  N1  UNL     1      13.557 -10.426  22.218  1.00  0.00    -0.312 N 
ATOM     23  H12 UNL     1      14.193  -9.772  22.674  1.00  0.00     0.170 HD
ATOM     24  H11 UNL     1      12.543 -10.326  22.170  1.00  0.00     0.170 HD
ENDBRANCH  19  22
ENDBRANCH  17  19
ENDBRANCH  16  17
ENDBRANCH  15  16
ENDBRANCH  14  15
ENDBRANCH  13  14
ENDBRANCH  12  13
ENDBRANCH  11  12
ENDBRANCH   9  11
ENDBRANCH   1   9
BRANCH   6  25
HETATM   25  N6  UNL     1      18.999 -16.377  22.296  1.00  0.00    -0.224 N 
ATOM     26  H6  UNL     1      19.619 -16.304  21.489  1.00  0.00     0.177 HD
BRANCH  25  27
HETATM   27  C9  UNL     1      19.544 -16.683  23.631  1.00  0.00     0.144 C 
BRANCH  27  28
HETATM   28  C10 UNL     1      20.894 -16.044  23.675  1.00  0.00     0.032 A 
HETATM   29  C11 UNL     1      21.962 -17.057  24.188  1.00  0.00     0.037 A 
HETATM   30  C12 UNL     1      21.678 -15.734  24.863  1.00  0.00     0.082 A 
HETATM   31 CL1  UNL     1      23.031 -14.548  24.583  1.00  0.00    -0.115 Cl
BRANCH  30  32
HETATM   32  C13 UNL     1      21.160 -15.653  26.255  1.00  0.00     0.301 C 
HETATM   33  F1  UNL     1      22.256 -15.202  27.038  1.00  0.00    -0.238 F 
BRANCH  32  34
HETATM   34  C14 UNL     1      20.126 -14.560  26.472  1.00  0.00     0.419 C 
HETATM   35  F2  UNL     1      20.406 -13.844  27.589  1.00  0.00    -0.168 F 
HETATM   36  F3  UNL     1      18.882 -15.177  26.529  1.00  0.00    -0.168 F 
HETATM   37  F4  UNL     1      20.073 -13.710  25.381  1.00  0.00    -0.168 F 
ENDBRANCH  32  34
ENDBRANCH  30  32
ENDBRANCH  27  28
ENDBRANCH  25  27
ENDBRANCH   6  25
TORSDOF 15
ENDMDL
MODEL 3
REMARK VINA RESULT: -6.875518479      2.400      3.618
REMARK  15 active torsions:
REMARK  status: ('A' for Active; 'I' for Inactive)
REMARK    1  A    between atoms: N1_1  and  S1_4 
REMARK    2  A    between atoms: S1_4  and  N2_7 
REMARK    3  A    between atoms: N2_7  and  C1_9 
REMARK    4  A    between atoms: C1_9  and  C2_10 
REMARK    5  A    between atoms: C2_10  and  C3_11 
REMARK    6  A    between atoms: C3_11  and  C4_12 
REMARK    7  A    between atoms: C4_12  and  C5_13 
REMARK    8  A    between atoms: C5_13  and  C6_14 
REMARK    9  A    between atoms: C6_14  and  N3_15 
REMARK   10  A    between atoms: N3_15  and  C7_17 
REMARK   11  A    between atoms: C8_22  and  N6_23 
REMARK   12  A    between atoms: N6_23  and  C9_25 
REMARK   13  A    between atoms: C9_25  and  C10_26 
REMARK   14  A    between atoms: C12_28  and  C13_30 
REMARK   15  A    between atoms: C13_30  and  C14_32 
ROOT
HETATM    1  C7  UNL     1      16.783 -12.816  20.248  1.00  0.00     0.707 A 
HETATM    2  N4  UNL     1      17.968 -12.904  19.620  1.00  0.00    -0.117 N 
ATOM      3  H4  UNL     1      18.146 -12.565  18.674  1.00  0.00     0.206 HD
HETATM    4  N5  UNL     1      18.872 -13.486  20.386  1.00  0.00    -0.117 N 
ATOM      5  H5  UNL     1      19.847 -13.673  20.151  1.00  0.00     0.206 HD
HETATM    6  C8  UNL     1      18.246 -13.781  21.539  1.00  0.00     0.707 A 
HETATM    7  N7  UNL     1      16.965 -13.371  21.458  1.00  0.00    -0.020 N 
ATOM      8  H7  UNL     1      16.259 -13.465  22.188  1.00  0.00     0.203 HD
ENDROOT
BRANCH   1   9
HETATM    9  N3  UNL     1      15.661 -12.307  19.814  1.00  0.00    -0.224 N 
ATOM     10  H3  UNL     1      15.299 -11.466  20.265  1.00  0.00     0.177 HD
BRANCH   9  11
HETATM   11  C6  UNL     1      14.917 -12.877  18.732  1.00  0.00     0.138 C 
BRANCH  11  12
HETATM   12  C5  UNL     1      15.412 -14.286  18.383  1.00  0.00     0.020 C 
BRANCH  12  13
HETATM   13  C4  UNL     1      14.418 -15.325  18.871  1.00  0.00     0.002 C 
BRANCH  13  14
HETATM   14  C3  UNL     1      14.845 -16.079  20.060  1.00  0.00     0.002 C 
BRANCH  14  15
HETATM   15  C2  UNL     1      13.888 -16.834  20.876  1.00  0.00     0.020 C 
BRANCH  15  16
HETATM   16  C1  UNL     1      12.708 -16.198  21.485  1.00  0.00     0.133 C 
BRANCH  16  17
HETATM   17  N2  UNL     1      12.959 -15.421  22.637  1.00  0.00    -0.303 N 
ATOM     18  H2  UNL     1      13.221 -15.806  23.544  1.00  0.00     0.173 HD
BRANCH  17  19
HETATM   19  S1  UNL     1      12.764 -13.713  22.311  1.00  0.00     0.312 S 
HETATM   20  O1  UNL     1      12.238 -13.607  20.917  1.00  0.00    -0.183 OA
HETATM   21  O2  UNL     1      14.089 -13.027  22.397  1.00  0.00    -0.183 OA
BRANCH  19  22
HETATM   22  N1  UNL     1      11.633 -13.095  23.448  1.00  0.00    -0.312 N 
ATOM     23  H12 UNL     1      11.834 -12.320  24.080  1.00  0.00     0.170 HD
ATOM     24  H11 UNL     1      10.751 -13.605  23.402  1.00  0.00     0.170 HD
ENDBRANCH  19  22
ENDBRANCH  17  19
ENDBRANCH  16  17
ENDBRANCH  15  16
ENDBRANCH  14  15
ENDBRANCH  13  14
ENDBRANCH  12  13
ENDBRANCH  11  12
ENDBRANCH   9  11
ENDBRANCH   1   9
BRANCH   6  25
HETATM   25  N6  UNL     1      18.750 -14.359  22.578  1.00  0.00    -0.224 N 
ATOM     26  H6  UNL     1      19.719 -14.186  22.846  1.00  0.00     0.177 HD
BRANCH  25  27
HETATM   27  C9  UNL     1      17.907 -15.271  23.373  1.00  0.00     0.144 C 
BRANCH  27  28
HETATM   28  C10 UNL     1      18.851 -16.211  24.050  1.00  0.00     0.032 A 
HETATM   29  C11 UNL     1      18.196 -16.821  25.325  1.00  0.00     0.037 A 
HETATM   30  C12 UNL     1      19.486 -16.031  25.348  1.00  0.00     0.082 A 
HETATM   31 CL1  UNL     1      20.918 -17.117  25.643  1.00  0.00    -0.115 Cl
BRANCH  30  32
HETATM   32  C13 UNL     1      19.613 -14.747  26.088  1.00  0.00     0.301 C 
HETATM   33  F1  UNL     1      19.663 -15.108  27.461  1.00  0.00    -0.238 F 
BRANCH  32  34
HETATM   34  C14 UNL     1      20.943 -14.040  25.883  1.00  0.00     0.419 C 
HETATM   35  F2  UNL     1      21.405 -14.234  24.622  1.00  0.00    -0.168 F 
HETATM   36  F3  UNL     1      21.816 -14.517  26.853  1.00  0.00    -0.168 F 
HETATM   37  F4  UNL     1      20.819 -12.683  26.124  1.00  0.00    -0.168 F 
ENDBRANCH  32  34
ENDBRANCH  30  32
ENDBRANCH  27  28
ENDBRANCH  25  27
ENDBRANCH   6  25
TORSDOF 15
ENDMDL
MODEL 4
REMARK VINA RESULT: -6.861680901      2.601      3.811
REMARK  15 active torsions:
REMARK  status: ('A' for Active; 'I' for Inactive)
REMARK    1  A    between atoms: N1_1  and  S1_4 
REMARK    2  A    between atoms: S1_4  and  N2_7 
REMARK    3  A    between atoms: N2_7  and  C1_9 
REMARK    4  A    between atoms: C1_9  and  C2_10 
REMARK    5  A    between atoms: C2_10  and  C3_11 
REMARK    6  A    between atoms: C3_11  and  C4_12 
REMARK    7  A    between atoms: C4_12  and  C5_13 
REMARK    8  A    between atoms: C5_13  and  C6_14 
REMARK    9  A    between atoms: C6_14  and  N3_15 
REMARK   10  A    between atoms: N3_15  and  C7_17 
REMARK   11  A    between atoms: C8_22  and  N6_23 
REMARK   12  A    between atoms: N6_23  and  C9_25 
REMARK   13  A    between atoms: C9_25  and  C10_26 
REMARK   14  A    between atoms: C12_28  and  C13_30 
REMARK   15  A    between atoms: C13_30  and  C14_32 
ROOT
HETATM    1  C7  UNL     1      16.852 -12.795  20.374  1.00  0.00     0.707 A 
HETATM    2  N4  UNL     1      18.071 -12.930  19.823  1.00  0.00    -0.117 N 
ATOM      3  H4  UNL     1      18.348 -12.525  18.928  1.00  0.00     0.206 HD
HETATM    4  N5  UNL     1      18.864 -13.654  20.591  1.00  0.00    -0.117 N 
ATOM      5  H5  UNL     1      19.836 -13.905  20.407  1.00  0.00     0.206 HD
HETATM    6  C8  UNL     1      18.130 -13.994  21.665  1.00  0.00     0.707 A 
HETATM    7  N7  UNL     1      16.897 -13.468  21.536  1.00  0.00    -0.020 N 
ATOM      8  H7  UNL     1      16.131 -13.564  22.203  1.00  0.00     0.203 HD
ENDROOT
BRANCH   1   9
HETATM    9  N3  UNL     1      15.812 -12.152  19.913  1.00  0.00    -0.224 N 
ATOM     10  H3  UNL     1      15.669 -11.184  20.201  1.00  0.00     0.177 HD
BRANCH   9  11
HETATM   11  C6  UNL     1      14.864 -12.749  19.022  1.00  0.00     0.138 C 
BRANCH  11  12
HETATM   12  C5  UNL     1      15.402 -14.045  18.406  1.00  0.00     0.020 C 
BRANCH  12  13
HETATM   13  C4  UNL     1      14.541 -15.223  18.827  1.00  0.00     0.002 C 
BRANCH  13  14
HETATM   14  C3  UNL     1      15.179 -16.148  19.776  1.00  0.00     0.002 C 
BRANCH  14  15
HETATM   15  C2  UNL     1      14.653 -16.342  21.132  1.00  0.00     0.020 C 
BRANCH  15  16
HETATM   16  C1  UNL     1      13.234 -16.129  21.459  1.00  0.00     0.133 C 
BRANCH  16  17
HETATM   17  N2  UNL     1      12.982 -15.418  22.653  1.00  0.00    -0.303 N 
ATOM     18  H2  UNL     1      12.950 -15.843  23.579  1.00  0.00     0.173 HD
BRANCH  17  19
HETATM   19  S1  UNL     1      12.732 -13.714  22.342  1.00  0.00     0.312 S 
HETATM   20  O1  UNL     1      12.195 -13.613  20.952  1.00  0.00    -0.183 OA
HETATM   21  O2  UNL     1      14.036 -12.988  22.425  1.00  0.00    -0.183 OA
BRANCH  19  22
HETATM   22  N1  UNL     1      11.590 -13.141  23.491  1.00  0.00    -0.312 N 
ATOM     23  H12 UNL     1      11.056 -13.752  24.109  1.00  0.00     0.170 HD
ATOM     24  H11 UNL     1      11.524 -12.123  23.467  1.00  0.00     0.170 HD
ENDBRANCH  19  22
ENDBRANCH  17  19
ENDBRANCH  16  17
ENDBRANCH  15  16
ENDBRANCH  14  15
ENDBRANCH  13  14
ENDBRANCH  12  13
ENDBRANCH  11  12
ENDBRANCH   9  11
ENDBRANCH   1   9
BRANCH   6  25
HETATM   25  N6  UNL     1      18.504 -14.703  22.678  1.00  0.00    -0.224 N 
ATOM     26  H6  UNL     1      17.828 -14.988  23.386  1.00  0.00     0.177 HD
BRANCH  25  27
HETATM   27  C9  UNL     1      19.920 -15.095  22.796  1.00  0.00     0.144 C 
BRANCH  27  28
HETATM   28  C10 UNL     1      20.348 -14.668  24.163  1.00  0.00     0.032 A 
HETATM   29  C11 UNL     1      21.589 -15.486  24.629  1.00  0.00     0.037 A 
HETATM   30  C12 UNL     1      20.281 -15.454  25.387  1.00  0.00     0.082 A 
HETATM   31 CL1  UNL     1      20.430 -14.479  26.918  1.00  0.00    -0.115 Cl
BRANCH  30  32
HETATM   32  C13 UNL     1      19.460 -16.677  25.597  1.00  0.00     0.301 C 
HETATM   33  F1  UNL     1      20.081 -17.367  26.671  1.00  0.00    -0.238 F 
BRANCH  32  34
HETATM   34  C14 UNL     1      18.066 -16.405  26.140  1.00  0.00     0.419 C 
HETATM   35  F2  UNL     1      18.063 -16.421  27.497  1.00  0.00    -0.168 F 
HETATM   36  F3  UNL     1      17.218 -17.358  25.590  1.00  0.00    -0.168 F 
HETATM   37  F4  UNL     1      17.595 -15.182  25.694  1.00  0.00    -0.168 F 
ENDBRANCH  32  34
ENDBRANCH  30  32
ENDBRANCH  27  28
ENDBRANCH  25  27
ENDBRANCH   6  25
TORSDOF 15
ENDMDL
MODEL 5
REMARK VINA RESULT: -6.732235679      2.528      3.646
REMARK  15 active torsions:
REMARK  status: ('A' for Active; 'I' for Inactive)
REMARK    1  A    between atoms: N1_1  and  S1_4 
REMARK    2  A    between atoms: S1_4  and  N2_7 
REMARK    3  A    between atoms: N2_7  and  C1_9 
REMARK    4  A    between atoms: C1_9  and  C2_10 
REMARK    5  A    between atoms: C2_10  and  C3_11 
REMARK    6  A    between atoms: C3_11  and  C4_12 
REMARK    7  A    between atoms: C4_12  and  C5_13 
REMARK    8  A    between atoms: C5_13  and  C6_14 
REMARK    9  A    between atoms: C6_14  and  N3_15 
REMARK   10  A    between atoms: N3_15  and  C7_17 
REMARK   11  A    between atoms: C8_22  and  N6_23 
REMARK   12  A    between atoms: N6_23  and  C9_25 
REMARK   13  A    between atoms: C9_25  and  C10_26 
REMARK   14  A    between atoms: C12_28  and  C13_30 
REMARK   15  A    between atoms: C13_30  and  C14_32 
ROOT
HETATM    1  C7  UNL     1      17.395 -13.709  21.964  1.00  0.00     0.707 A 
HETATM    2  N4  UNL     1      16.663 -14.300  22.924  1.00  0.00    -0.117 N 
ATOM      3  H4  UNL     1      15.821 -13.899  23.337  1.00  0.00     0.206 HD
HETATM    4  N5  UNL     1      17.177 -15.468  23.264  1.00  0.00    -0.117 N 
ATOM      5  H5  UNL     1      16.817 -16.117  23.965  1.00  0.00     0.206 HD
HETATM    6  C8  UNL     1      18.271 -15.628  22.499  1.00  0.00     0.707 A 
HETATM    7  N7  UNL     1      18.407 -14.553  21.700  1.00  0.00    -0.020 N 
ATOM      8  H7  UNL     1      19.148 -14.404  21.015  1.00  0.00     0.203 HD
ENDROOT
BRANCH   1   9
HETATM    9  N3  UNL     1      17.201 -12.557  21.378  1.00  0.00    -0.224 N 
ATOM     10  H3  UNL     1      17.723 -11.746  21.710  1.00  0.00     0.177 HD
BRANCH   9  11
HETATM   11  C6  UNL     1      16.286 -12.384  20.291  1.00  0.00     0.138 C 
BRANCH  11  12
HETATM   12  C5  UNL     1      16.863 -12.913  18.973  1.00  0.00     0.020 C 
BRANCH  12  13
HETATM   13  C4  UNL     1      15.911 -13.920  18.351  1.00  0.00     0.002 C 
BRANCH  13  14
HETATM   14  C3  UNL     1      15.428 -14.963  19.269  1.00  0.00     0.002 C 
BRANCH  14  15
HETATM   15  C2  UNL     1      14.113 -15.591  19.096  1.00  0.00     0.020 C 
BRANCH  15  16
HETATM   16  C1  UNL     1      12.946 -15.196  19.900  1.00  0.00     0.133 C 
BRANCH  16  17
HETATM   17  N2  UNL     1      12.960 -13.869  20.386  1.00  0.00    -0.303 N 
ATOM     18  H2  UNL     1      12.987 -13.041  19.792  1.00  0.00     0.173 HD
BRANCH  17  19
HETATM   19  S1  UNL     1      12.923 -13.827  22.134  1.00  0.00     0.312 S 
HETATM   20  O1  UNL     1      11.642 -13.161  22.514  1.00  0.00    -0.183 OA
HETATM   21  O2  UNL     1      14.074 -13.022  22.645  1.00  0.00    -0.183 OA
BRANCH  19  22
HETATM   22  N1  UNL     1      12.965 -15.453  22.691  1.00  0.00    -0.312 N 
ATOM     23  H12 UNL     1      12.129 -15.997  22.907  1.00  0.00     0.170 HD
ATOM     24  H11 UNL     1      13.924 -15.788  22.774  1.00  0.00     0.170 HD
ENDBRANCH  19  22
ENDBRANCH  17  19
ENDBRANCH  16  17
ENDBRANCH  15  16
ENDBRANCH  14  15
ENDBRANCH  13  14
ENDBRANCH  12  13
ENDBRANCH  11  12
ENDBRANCH   9  11
ENDBRANCH   1   9
BRANCH   6  25
HETATM   25  N6  UNL     1      19.084 -16.632  22.495  1.00  0.00    -0.224 N 
ATOM     26  H6  UNL     1      19.247 -17.161  21.639  1.00  0.00     0.177 HD
BRANCH  25  27
HETATM   27  C9  UNL     1      19.775 -17.002  23.744  1.00  0.00     0.144 C 
BRANCH  27  28
HETATM   28  C10 UNL     1      21.022 -16.179  23.779  1.00  0.00     0.032 A 
HETATM   29  C11 UNL     1      22.216 -17.018  24.323  1.00  0.00     0.037 A 
HETATM   30  C12 UNL     1      21.744 -15.732  24.962  1.00  0.00     0.082 A 
HETATM   31 CL1  UNL     1      22.920 -14.375  24.659  1.00  0.00    -0.115 Cl
BRANCH  30  32
HETATM   32  C13 UNL     1      21.208 -15.690  26.349  1.00  0.00     0.301 C 
HETATM   33  F1  UNL     1      22.258 -15.158  27.142  1.00  0.00    -0.238 F 
BRANCH  32  34
HETATM   34  C14 UNL     1      20.093 -14.677  26.554  1.00  0.00     0.419 C 
HETATM   35  F2  UNL     1      20.415 -13.793  27.532  1.00  0.00    -0.168 F 
HETATM   36  F3  UNL     1      18.935 -15.392  26.839  1.00  0.00    -0.168 F 
HETATM   37  F4  UNL     1      19.831 -13.990  25.382  1.00  0.00    -0.168 F 
ENDBRANCH  32  34
ENDBRANCH  30  32
ENDBRANCH  27  28
ENDBRANCH  25  27
ENDBRANCH   6  25
TORSDOF 15
ENDMDL
