MODEL 1
REMARK VINA RESULT: -5.174182240      0.000      0.000
REMARK  4 active torsions:
REMARK  status: ('A' for Active; 'I' for Inactive)
REMARK    1  A    between atoms: C2_2  and  N1_3 
REMARK       I    between atoms: N1_3  and  C3_5 
REMARK       I    between atoms: C3_5  and  N3_9 
REMARK    2  A    between atoms: N3_9  and  C4_11 
REMARK    3  A    between atoms: C9_17  and  C10_18 
REMARK    4  A    between atoms: C10_18  and  N5_19 
ROOT
HETATM    1  C4  UNL     1      26.637   9.522  29.123  1.00  0.00     0.146 C 
HETATM    2  C5  UNL     1      27.877  10.315  28.793  1.00  0.00     0.033 C 
HETATM    3  C6  UNL     1      27.926  11.647  29.480  1.00  0.00     0.022 C 
HETATM    4  C7  UNL     1      27.156  11.541  30.771  1.00  0.00     0.122 C 
HETATM    5  N4  UNL     1      25.770  11.388  30.398  1.00  0.00    -0.389 N 
HETATM    6  C8  UNL     1      24.792  12.267  30.893  1.00  0.00     0.149 C 
HETATM    7  C9  UNL     1      25.524  10.394  29.587  1.00  0.00     0.034 C 
ENDROOT
BRANCH   1   8
HETATM    8  N3  UNL     1      26.991   8.470  30.029  1.00  0.00    -0.217 N 
HETATM    9  C3  UNL     1      27.793   7.397  29.501  1.00  0.00     0.668 C 
HETATM   10  N1  UNL     1      29.008   6.990  30.094  1.00  0.00    -0.227 N 
HETATM   11  N2  UNL     1      27.385   6.789  28.450  1.00  0.00    -0.235 N 
ATOM     12  H1  UNL     1      29.529   7.671  30.646  1.00  0.00     0.177 HD
ATOM     13  H22 UNL     1      27.953   6.029  28.076  1.00  0.00     0.174 HD
ATOM     14  H21 UNL     1      26.507   7.083  28.022  1.00  0.00     0.174 HD
ATOM     15  H3  UNL     1      26.689   8.480  31.004  1.00  0.00     0.178 HD
BRANCH  10  16
HETATM   16  C2  UNL     1      29.553   5.656  29.958  1.00  0.00     0.133 C 
HETATM   17  C1  UNL     1      30.804   5.681  29.075  1.00  0.00     0.027 C 
ENDBRANCH  10  16
ENDBRANCH   1   8
BRANCH   7  18
HETATM   18  C10 UNL     1      24.144  10.223  29.168  1.00  0.00     0.290 C 
BRANCH  18  19
HETATM   19  N5  UNL     1      23.742  10.644  27.874  1.00  0.00    -0.074 N 
HETATM   20  C11 UNL     1      24.775  10.772  26.898  1.00  0.00     0.272 C 
HETATM   21  C12 UNL     1      22.816   9.619  27.318  1.00  0.00     0.272 C 
HETATM   22  C13 UNL     1      22.947  11.865  27.859  1.00  0.00     0.272 C 
ENDBRANCH  18  19
ENDBRANCH   7  18
TORSDOF 4
ENDMDL
MODEL 2
REMARK VINA RESULT: -5.145480706      3.220      5.496
REMARK  4 active torsions:
REMARK  status: ('A' for Active; 'I' for Inactive)
REMARK    1  A    between atoms: C2_2  and  N1_3 
REMARK       I    between atoms: N1_3  and  C3_5 
REMARK       I    between atoms: C3_5  and  N3_9 
REMARK    2  A    between atoms: N3_9  and  C4_11 
REMARK    3  A    between atoms: C9_17  and  C10_18 
REMARK    4  A    between atoms: C10_18  and  N5_19 
ROOT
HETATM    1  C4  UNL     1      29.359  10.017  30.873  1.00  0.00     0.146 C 
HETATM    2  C5  UNL     1      28.276  10.067  31.921  1.00  0.00     0.033 C 
HETATM    3  C6  UNL     1      27.452  11.318  31.860  1.00  0.00     0.022 C 
HETATM    4  C7  UNL     1      27.447  11.812  30.436  1.00  0.00     0.122 C 
HETATM    5  N4  UNL     1      28.793  12.263  30.166  1.00  0.00    -0.389 N 
HETATM    6  C8  UNL     1      29.034  13.567  29.706  1.00  0.00     0.149 C 
HETATM    7  C9  UNL     1      29.725  11.375  30.384  1.00  0.00     0.034 C 
ENDROOT
BRANCH   1   8
HETATM    8  N3  UNL     1      28.964   9.098  29.846  1.00  0.00    -0.217 N 
HETATM    9  C3  UNL     1      29.823   7.965  29.620  1.00  0.00     0.668 C 
HETATM   10  N1  UNL     1      29.351   6.635  29.633  1.00  0.00    -0.227 N 
HETATM   11  N2  UNL     1      31.067   8.176  29.399  1.00  0.00    -0.235 N 
ATOM     12  H1  UNL     1      28.512   6.424  30.175  1.00  0.00     0.177 HD
ATOM     13  H22 UNL     1      31.676   7.373  29.239  1.00  0.00     0.174 HD
ATOM     14  H21 UNL     1      31.409   9.137  29.389  1.00  0.00     0.174 HD
ATOM     15  H3  UNL     1      28.114   9.239  29.301  1.00  0.00     0.178 HD
BRANCH  10  16
HETATM   16  C2  UNL     1      29.994   5.553  28.919  1.00  0.00     0.133 C 
HETATM   17  C1  UNL     1      30.610   4.557  29.905  1.00  0.00     0.027 C 
ENDBRANCH  10  16
ENDBRANCH   1   8
BRANCH   7  18
HETATM   18  C10 UNL     1      31.094  11.798  30.149  1.00  0.00     0.290 C 
BRANCH  18  19
HETATM   19  N5  UNL     1      31.961  12.027  31.249  1.00  0.00    -0.074 N 
HETATM   20  C11 UNL     1      32.691  10.899  31.728  1.00  0.00     0.272 C 
HETATM   21  C12 UNL     1      33.003  13.003  30.824  1.00  0.00     0.272 C 
HETATM   22  C13 UNL     1      31.328  12.679  32.387  1.00  0.00     0.272 C 
ENDBRANCH  18  19
ENDBRANCH   7  18
TORSDOF 4
ENDMDL
MODEL 3
REMARK VINA RESULT: -5.102994529      1.777      5.653
REMARK  4 active torsions:
REMARK  status: ('A' for Active; 'I' for Inactive)
REMARK    1  A    between atoms: C2_2  and  N1_3 
REMARK       I    between atoms: N1_3  and  C3_5 
REMARK       I    between atoms: C3_5  and  N3_9 
REMARK    2  A    between atoms: N3_9  and  C4_11 
REMARK    3  A    between atoms: C9_17  and  C10_18 
REMARK    4  A    between atoms: C10_18  and  N5_19 
ROOT
HETATM    1  C4  UNL     1      27.406   9.450  29.828  1.00  0.00     0.146 C 
HETATM    2  C5  UNL     1      27.005  10.700  30.571  1.00  0.00     0.033 C 
HETATM    3  C6  UNL     1      28.177  11.524  31.016  1.00  0.00     0.022 C 
HETATM    4  C7  UNL     1      29.313  11.288  30.053  1.00  0.00     0.122 C 
HETATM    5  N4  UNL     1      29.739   9.925  30.266  1.00  0.00    -0.389 N 
HETATM    6  C8  UNL     1      31.079   9.630  30.569  1.00  0.00     0.149 C 
HETATM    7  C9  UNL     1      28.796   9.029  30.154  1.00  0.00     0.034 C 
ENDROOT
BRANCH   1   8
HETATM    8  N3  UNL     1      27.150   9.643  28.431  1.00  0.00    -0.217 N 
HETATM    9  C3  UNL     1      25.776   9.810  28.037  1.00  0.00     0.668 C 
HETATM   10  N1  UNL     1      25.331  10.910  27.270  1.00  0.00    -0.227 N 
HETATM   11  N2  UNL     1      24.924   8.925  28.398  1.00  0.00    -0.235 N 
ATOM     12  H1  UNL     1      25.865  11.779  27.316  1.00  0.00     0.177 HD
ATOM     13  H22 UNL     1      23.950   9.044  28.118  1.00  0.00     0.174 HD
ATOM     14  H21 UNL     1      25.245   8.131  28.952  1.00  0.00     0.174 HD
ATOM     15  H3  UNL     1      27.907   9.660  27.747  1.00  0.00     0.178 HD
BRANCH  10  16
HETATM   16  C2  UNL     1      24.158  10.869  26.424  1.00  0.00     0.133 C 
HETATM   17  C1  UNL     1      23.058  11.766  26.999  1.00  0.00     0.027 C 
ENDBRANCH  10  16
ENDBRANCH   1   8
BRANCH   7  18
HETATM   18  C10 UNL     1      29.179   7.647  30.386  1.00  0.00     0.290 C 
BRANCH  18  19
HETATM   19  N5  UNL     1      29.181   6.724  29.310  1.00  0.00    -0.074 N 
HETATM   20  C11 UNL     1      29.830   7.146  28.111  1.00  0.00     0.272 C 
HETATM   21  C12 UNL     1      29.926   5.508  29.739  1.00  0.00     0.272 C 
HETATM   22  C13 UNL     1      27.864   6.208  28.958  1.00  0.00     0.272 C 
ENDBRANCH  18  19
ENDBRANCH   7  18
TORSDOF 4
ENDMDL
MODEL 4
REMARK VINA RESULT: -5.068970697      2.970      5.441
REMARK  4 active torsions:
REMARK  status: ('A' for Active; 'I' for Inactive)
REMARK    1  A    between atoms: C2_2  and  N1_3 
REMARK       I    between atoms: N1_3  and  C3_5 
REMARK       I    between atoms: C3_5  and  N3_9 
REMARK    2  A    between atoms: N3_9  and  C4_11 
REMARK    3  A    between atoms: C9_17  and  C10_18 
REMARK    4  A    between atoms: C10_18  and  N5_19 
ROOT
HETATM    1  C4  UNL     1      29.812   6.926  29.430  1.00  0.00     0.146 C 
HETATM    2  C5  UNL     1      28.886   6.032  30.214  1.00  0.00     0.033 C 
HETATM    3  C6  UNL     1      27.440   6.400  30.063  1.00  0.00     0.022 C 
HETATM    4  C7  UNL     1      27.255   7.044  28.712  1.00  0.00     0.122 C 
HETATM    5  N4  UNL     1      27.938   8.315  28.780  1.00  0.00    -0.389 N 
HETATM    6  C8  UNL     1      27.263   9.510  28.479  1.00  0.00     0.149 C 
HETATM    7  C9  UNL     1      29.193   8.248  29.134  1.00  0.00     0.034 C 
ENDROOT
BRANCH   1   8
HETATM    8  N3  UNL     1      30.277   6.212  28.278  1.00  0.00    -0.217 N 
HETATM    9  C3  UNL     1      31.703   6.125  28.097  1.00  0.00     0.668 C 
HETATM   10  N1  UNL     1      32.376   4.896  27.920  1.00  0.00    -0.227 N 
HETATM   11  N2  UNL     1      32.386   7.208  28.099  1.00  0.00    -0.235 N 
ATOM     12  H1  UNL     1      31.948   4.051  28.299  1.00  0.00     0.177 HD
ATOM     13  H22 UNL     1      33.396   7.146  27.970  1.00  0.00     0.174 HD
ATOM     14  H21 UNL     1      31.901   8.096  28.227  1.00  0.00     0.174 HD
ATOM     15  H3  UNL     1      29.629   5.784  27.617  1.00  0.00     0.178 HD
BRANCH  10  16
HETATM   16  C2  UNL     1      33.641   4.773  27.228  1.00  0.00     0.133 C 
HETATM   17  C1  UNL     1      34.788   4.652  28.236  1.00  0.00     0.027 C 
ENDBRANCH  10  16
ENDBRANCH   1   8
BRANCH   7  18
HETATM   18  C10 UNL     1      29.908   9.508  29.239  1.00  0.00     0.290 C 
BRANCH  18  19
HETATM   19  N5  UNL     1      30.084  10.117  30.508  1.00  0.00    -0.074 N 
HETATM   20  C11 UNL     1      31.395  10.049  31.068  1.00  0.00     0.272 C 
HETATM   21  C12 UNL     1      29.803  11.572  30.369  1.00  0.00     0.272 C 
HETATM   22  C13 UNL     1      29.132   9.681  31.521  1.00  0.00     0.272 C 
ENDBRANCH  18  19
ENDBRANCH   7  18
TORSDOF 4
ENDMDL
MODEL 5
REMARK VINA RESULT: -4.972467349      2.443      3.503
REMARK  4 active torsions:
REMARK  status: ('A' for Active; 'I' for Inactive)
REMARK    1  A    between atoms: C2_2  and  N1_3 
REMARK       I    between atoms: N1_3  and  C3_5 
REMARK       I    between atoms: C3_5  and  N3_9 
REMARK    2  A    between atoms: N3_9  and  C4_11 
REMARK    3  A    between atoms: C9_17  and  C10_18 
REMARK    4  A    between atoms: C10_18  and  N5_19 
ROOT
HETATM    1  C4  UNL     1      30.175   9.513  29.632  1.00  0.00     0.146 C 
HETATM    2  C5  UNL     1      31.111  10.680  29.824  1.00  0.00     0.033 C 
HETATM    3  C6  UNL     1      30.888  11.408  31.116  1.00  0.00     0.022 C 
HETATM    4  C7  UNL     1      30.336  10.430  32.121  1.00  0.00     0.122 C 
HETATM    5  N4  UNL     1      29.005  10.101  31.668  1.00  0.00    -0.389 N 
HETATM    6  C8  UNL     1      27.896  10.267  32.515  1.00  0.00     0.149 C 
HETATM    7  C9  UNL     1      28.935   9.652  30.444  1.00  0.00     0.034 C 
ENDROOT
BRANCH   1   8
HETATM    8  N3  UNL     1      30.902   8.298  29.853  1.00  0.00    -0.217 N 
HETATM    9  C3  UNL     1      30.941   7.354  28.766  1.00  0.00     0.668 C 
HETATM   10  N1  UNL     1      32.147   6.834  28.249  1.00  0.00    -0.227 N 
HETATM   11  N2  UNL     1      29.833   6.974  28.248  1.00  0.00    -0.235 N 
ATOM     12  H1  UNL     1      32.998   7.389  28.355  1.00  0.00     0.177 HD
ATOM     13  H22 UNL     1      29.860   6.305  27.478  1.00  0.00     0.174 HD
ATOM     14  H21 UNL     1      28.961   7.349  28.620  1.00  0.00     0.174 HD
ATOM     15  H3  UNL     1      31.372   8.110  30.739  1.00  0.00     0.178 HD
BRANCH  10  16
HETATM   16  C2  UNL     1      32.242   5.556  27.578  1.00  0.00     0.133 C 
HETATM   17  C1  UNL     1      33.354   4.708  28.203  1.00  0.00     0.027 C 
ENDBRANCH  10  16
ENDBRANCH   1   8
BRANCH   7  18
HETATM   18  C10 UNL     1      27.610   9.334  29.942  1.00  0.00     0.290 C 
BRANCH  18  19
HETATM   19  N5  UNL     1      26.878  10.307  29.214  1.00  0.00    -0.074 N 
HETATM   20  C11 UNL     1      27.620  11.421  28.720  1.00  0.00     0.272 C 
HETATM   21  C12 UNL     1      26.313   9.655  28.001  1.00  0.00     0.272 C 
HETATM   22  C13 UNL     1      25.700  10.814  29.906  1.00  0.00     0.272 C 
ENDBRANCH  18  19
ENDBRANCH   7  18
TORSDOF 4
ENDMDL
