MODEL 1
REMARK VINA RESULT: -6.209030504      0.000      0.000
REMARK  5 active torsions:
REMARK  status: ('A' for Active; 'I' for Inactive)
REMARK    1  A    between atoms: N1_5  and  C6_7 
REMARK    2  A    between atoms: C6_7  and  C7_8 
REMARK    3  A    between atoms: C7_8  and  N2_9 
REMARK    4  A    between atoms: N2_9  and  C8_12 
REMARK    5  A    between atoms: C8_12  and  C10_14 
ROOT
HETATM    1  N2  UNL     1      28.224   7.101  28.368  1.00  0.00    -0.068 N 
ATOM      2  H21 UNL     1      28.703   7.666  27.666  1.00  0.00     0.277 HD
ATOM      3  H22 UNL     1      27.400   6.823  27.835  1.00  0.00     0.277 HD
ENDROOT
BRANCH   1   4
HETATM    4  C7  UNL     1      27.842   7.915  29.489  1.00  0.00     0.260 C 
BRANCH   4   5
HETATM    5  C6  UNL     1      28.256   9.350  29.333  1.00  0.00     0.264 C 
BRANCH   5   6
HETATM    6  N1  UNL     1      28.781   9.953  30.499  1.00  0.00    -0.069 N 
HETATM    7  C4  UNL     1      29.152  11.335  30.158  1.00  0.00     0.237 C 
HETATM    8  C3  UNL     1      29.948  11.800  31.355  1.00  0.00     0.034 C 
HETATM    9  C2  UNL     1      30.606  10.520  31.809  1.00  0.00     0.009 C 
HETATM   10  C1  UNL     1      32.106  10.674  31.526  1.00  0.00     0.011 C 
HETATM   11  C13 UNL     1      30.064   9.433  30.916  1.00  0.00     0.241 C 
HETATM   12  C5  UNL     1      27.871  10.045  31.611  1.00  0.00     0.272 C 
ENDBRANCH   5   6
ENDBRANCH   4   5
ENDBRANCH   1   4
BRANCH   1  13
HETATM   13  C8  UNL     1      29.005   5.962  28.704  1.00  0.00     0.206 C 
HETATM   14  C9  UNL     1      29.200   5.915  30.182  1.00  0.00     0.042 C 
BRANCH  13  15
HETATM   15  C10 UNL     1      30.278   5.840  27.917  1.00  0.00     0.134 C 
HETATM   16  C11 UNL     1      31.124   7.071  27.943  1.00  0.00     0.151 C 
HETATM   17  N3  UNL     1      32.504   6.615  28.014  1.00  0.00    -0.341 N 
HETATM   18  C12 UNL     1      32.518   5.226  28.318  1.00  0.00     0.316 C 
ATOM     19  H3  UNL     1      33.328   7.197  27.869  1.00  0.00     0.164 HD
HETATM   20  O1  UNL     1      33.579   4.557  28.432  1.00  0.00    -0.247 OA
HETATM   21  N4  UNL     1      31.164   4.835  28.448  1.00  0.00    -0.335 N 
ATOM     22  H4  UNL     1      30.856   3.956  28.863  1.00  0.00     0.164 HD
ENDBRANCH  13  15
ENDBRANCH   1  13
TORSDOF 5
ENDMDL
MODEL 2
REMARK VINA RESULT: -6.138191528      1.325      1.670
REMARK  5 active torsions:
REMARK  status: ('A' for Active; 'I' for Inactive)
REMARK    1  A    between atoms: N1_5  and  C6_7 
REMARK    2  A    between atoms: C6_7  and  C7_8 
REMARK    3  A    between atoms: C7_8  and  N2_9 
REMARK    4  A    between atoms: N2_9  and  C8_12 
REMARK    5  A    between atoms: C8_12  and  C10_14 
ROOT
HETATM    1  N2  UNL     1      29.413   7.299  30.165  1.00  0.00    -0.068 N 
ATOM      2  H21 UNL     1      28.914   6.730  30.849  1.00  0.00     0.277 HD
ATOM      3  H22 UNL     1      30.373   7.031  30.383  1.00  0.00     0.277 HD
ENDROOT
BRANCH   1   4
HETATM    4  C7  UNL     1      29.212   8.696  30.433  1.00  0.00     0.260 C 
BRANCH   4   5
HETATM    5  C6  UNL     1      30.501   9.454  30.567  1.00  0.00     0.264 C 
BRANCH   5   6
HETATM    6  N1  UNL     1      30.376  10.762  31.089  1.00  0.00    -0.069 N 
HETATM    7  C4  UNL     1      30.723  11.705  30.015  1.00  0.00     0.237 C 
HETATM    8  C3  UNL     1      30.838  13.034  30.725  1.00  0.00     0.034 C 
HETATM    9  C2  UNL     1      31.341  12.618  32.086  1.00  0.00     0.009 C 
HETATM   10  C1  UNL     1      32.783  13.132  32.196  1.00  0.00     0.011 C 
HETATM   11  C13 UNL     1      31.374  11.111  32.076  1.00  0.00     0.241 C 
HETATM   12  C5  UNL     1      29.057  11.127  31.534  1.00  0.00     0.272 C 
ENDBRANCH   5   6
ENDBRANCH   4   5
ENDBRANCH   1   4
BRANCH   1  13
HETATM   13  C8  UNL     1      29.075   6.895  28.844  1.00  0.00     0.206 C 
HETATM   14  C9  UNL     1      27.803   6.116  28.877  1.00  0.00     0.042 C 
BRANCH  13  15
HETATM   15  C10 UNL     1      30.190   6.211  28.109  1.00  0.00     0.134 C 
HETATM   16  C11 UNL     1      31.346   7.105  27.798  1.00  0.00     0.151 C 
HETATM   17  N3  UNL     1      32.544   6.300  27.979  1.00  0.00    -0.341 N 
HETATM   18  C12 UNL     1      32.195   5.093  28.644  1.00  0.00     0.316 C 
ATOM     19  H3  UNL     1      33.483   6.559  27.677  1.00  0.00     0.164 HD
HETATM   20  O1  UNL     1      33.032   4.195  28.925  1.00  0.00    -0.247 OA
HETATM   21  N4  UNL     1      30.803   5.160  28.884  1.00  0.00    -0.335 N 
ATOM     22  H4  UNL     1      30.298   4.546  29.522  1.00  0.00     0.164 HD
ENDBRANCH  13  15
ENDBRANCH   1  13
TORSDOF 5
ENDMDL
MODEL 3
REMARK VINA RESULT: -6.118428870      1.311      1.877
REMARK  5 active torsions:
REMARK  status: ('A' for Active; 'I' for Inactive)
REMARK    1  A    between atoms: N1_5  and  C6_7 
REMARK    2  A    between atoms: C6_7  and  C7_8 
REMARK    3  A    between atoms: C7_8  and  N2_9 
REMARK    4  A    between atoms: N2_9  and  C8_12 
REMARK    5  A    between atoms: C8_12  and  C10_14 
ROOT
HETATM    1  N2  UNL     1      28.361   6.841  29.507  1.00  0.00    -0.068 N 
ATOM      2  H21 UNL     1      27.979   5.974  29.128  1.00  0.00     0.277 HD
ATOM      3  H22 UNL     1      27.926   6.834  30.430  1.00  0.00     0.277 HD
ENDROOT
BRANCH   1   4
HETATM    4  C7  UNL     1      27.896   7.966  28.744  1.00  0.00     0.260 C 
BRANCH   4   5
HETATM    5  C6  UNL     1      26.669   8.600  29.334  1.00  0.00     0.264 C 
BRANCH   5   6
HETATM    6  N1  UNL     1      26.832   9.938  29.764  1.00  0.00    -0.069 N 
HETATM    7  C4  UNL     1      27.727  10.607  28.807  1.00  0.00     0.237 C 
HETATM    8  C3  UNL     1      28.067  11.914  29.486  1.00  0.00     0.034 C 
HETATM    9  C2  UNL     1      28.038  11.525  30.943  1.00  0.00     0.009 C 
HETATM   10  C1  UNL     1      29.486  11.600  31.445  1.00  0.00     0.011 C 
HETATM   11  C13 UNL     1      27.595  10.085  30.983  1.00  0.00     0.241 C 
HETATM   12  C5  UNL     1      25.628  10.725  29.805  1.00  0.00     0.272 C 
ENDBRANCH   5   6
ENDBRANCH   4   5
ENDBRANCH   1   4
BRANCH   1  13
HETATM   13  C8  UNL     1      29.775   6.750  29.625  1.00  0.00     0.206 C 
HETATM   14  C9  UNL     1      30.348   8.120  29.758  1.00  0.00     0.042 C 
BRANCH  13  15
HETATM   15  C10 UNL     1      30.425   5.917  28.558  1.00  0.00     0.134 C 
HETATM   16  C11 UNL     1      31.225   6.711  27.578  1.00  0.00     0.151 C 
HETATM   17  N3  UNL     1      32.402   5.912  27.272  1.00  0.00    -0.341 N 
HETATM   18  C12 UNL     1      32.495   4.847  28.209  1.00  0.00     0.316 C 
ATOM     19  H3  UNL     1      33.056   6.089  26.510  1.00  0.00     0.164 HD
HETATM   20  O1  UNL     1      33.413   3.985  28.182  1.00  0.00    -0.247 OA
HETATM   21  N4  UNL     1      31.398   4.996  29.089  1.00  0.00    -0.335 N 
ATOM     22  H4  UNL     1      31.307   4.514  29.983  1.00  0.00     0.164 HD
ENDBRANCH  13  15
ENDBRANCH   1  13
TORSDOF 5
ENDMDL
MODEL 4
REMARK VINA RESULT: -6.101085431      1.697      2.800
REMARK  5 active torsions:
REMARK  status: ('A' for Active; 'I' for Inactive)
REMARK    1  A    between atoms: N1_5  and  C6_7 
REMARK    2  A    between atoms: C6_7  and  C7_8 
REMARK    3  A    between atoms: C7_8  and  N2_9 
REMARK    4  A    between atoms: N2_9  and  C8_12 
REMARK    5  A    between atoms: C8_12  and  C10_14 
ROOT
HETATM    1  N2  UNL     1      31.044   7.864  29.062  1.00  0.00    -0.068 N 
ATOM      2  H21 UNL     1      31.872   7.397  29.434  1.00  0.00     0.277 HD
ATOM      3  H22 UNL     1      31.489   8.596  28.510  1.00  0.00     0.277 HD
ENDROOT
BRANCH   1   4
HETATM    4  C7  UNL     1      30.274   8.440  30.130  1.00  0.00     0.260 C 
BRANCH   4   5
HETATM    5  C6  UNL     1      30.661   9.861  30.423  1.00  0.00     0.264 C 
BRANCH   5   6
HETATM    6  N1  UNL     1      29.586  10.721  30.748  1.00  0.00    -0.069 N 
HETATM    7  C4  UNL     1      28.796  10.066  31.801  1.00  0.00     0.237 C 
HETATM    8  C3  UNL     1      27.540  10.903  31.881  1.00  0.00     0.034 C 
HETATM    9  C2  UNL     1      27.381  11.364  30.453  1.00  0.00     0.009 C 
HETATM   10  C1  UNL     1      26.135  10.657  29.900  1.00  0.00     0.011 C 
HETATM   11  C13 UNL     1      28.587  10.849  29.711  1.00  0.00     0.241 C 
HETATM   12  C5  UNL     1      29.962  12.009  31.269  1.00  0.00     0.272 C 
ENDBRANCH   5   6
ENDBRANCH   4   5
ENDBRANCH   1   4
BRANCH   1  13
HETATM   13  C8  UNL     1      30.316   6.981  28.218  1.00  0.00     0.206 C 
HETATM   14  C9  UNL     1      28.855   7.156  28.464  1.00  0.00     0.042 C 
BRANCH  13  15
HETATM   15  C10 UNL     1      30.779   5.554  28.281  1.00  0.00     0.134 C 
HETATM   16  C11 UNL     1      32.262   5.405  28.380  1.00  0.00     0.151 C 
HETATM   17  N3  UNL     1      32.499   4.291  29.286  1.00  0.00    -0.341 N 
HETATM   18  C12 UNL     1      31.282   3.962  29.944  1.00  0.00     0.316 C 
ATOM     19  H3  UNL     1      33.393   3.822  29.426  1.00  0.00     0.164 HD
HETATM   20  O1  UNL     1      31.184   3.026  30.781  1.00  0.00    -0.247 OA
HETATM   21  N4  UNL     1      30.312   4.871  29.461  1.00  0.00    -0.335 N 
ATOM     22  H4  UNL     1      29.400   5.023  29.892  1.00  0.00     0.164 HD
ENDBRANCH  13  15
ENDBRANCH   1  13
TORSDOF 5
ENDMDL
MODEL 5
REMARK VINA RESULT: -6.076196464      1.329      1.959
REMARK  5 active torsions:
REMARK  status: ('A' for Active; 'I' for Inactive)
REMARK    1  A    between atoms: N1_5  and  C6_7 
REMARK    2  A    between atoms: C6_7  and  C7_8 
REMARK    3  A    between atoms: C7_8  and  N2_9 
REMARK    4  A    between atoms: N2_9  and  C8_12 
REMARK    5  A    between atoms: C8_12  and  C10_14 
ROOT
HETATM    1  N2  UNL     1      28.016   8.130  30.662  1.00  0.00    -0.068 N 
ATOM      2  H21 UNL     1      27.144   7.637  30.855  1.00  0.00     0.277 HD
ATOM      3  H22 UNL     1      28.565   7.839  31.470  1.00  0.00     0.277 HD
ENDROOT
BRANCH   1   4
HETATM    4  C7  UNL     1      27.803   9.551  30.689  1.00  0.00     0.260 C 
BRANCH   4   5
HETATM    5  C6  UNL     1      28.878  10.313  29.970  1.00  0.00     0.264 C 
BRANCH   5   6
HETATM    6  N1  UNL     1      29.682  11.137  30.793  1.00  0.00    -0.069 N 
HETATM    7  C4  UNL     1      30.609  11.870  29.919  1.00  0.00     0.237 C 
HETATM    8  C3  UNL     1      31.595  12.492  30.881  1.00  0.00     0.034 C 
HETATM    9  C2  UNL     1      31.638  11.468  31.989  1.00  0.00     0.009 C 
HETATM   10  C1  UNL     1      33.031  10.828  31.940  1.00  0.00     0.011 C 
HETATM   11  C13 UNL     1      30.619  10.418  31.626  1.00  0.00     0.241 C 
HETATM   12  C5  UNL     1      28.971  12.134  31.551  1.00  0.00     0.272 C 
ENDBRANCH   5   6
ENDBRANCH   4   5
ENDBRANCH   1   4
BRANCH   1  13
HETATM   13  C8  UNL     1      28.604   7.644  29.462  1.00  0.00     0.206 C 
HETATM   14  C9  UNL     1      27.585   6.877  28.688  1.00  0.00     0.042 C 
BRANCH  13  15
HETATM   15  C10 UNL     1      29.895   6.906  29.669  1.00  0.00     0.134 C 
HETATM   16  C11 UNL     1      29.723   5.435  29.869  1.00  0.00     0.151 C 
HETATM   17  N3  UNL     1      30.831   4.798  29.173  1.00  0.00    -0.341 N 
HETATM   18  C12 UNL     1      31.473   5.759  28.346  1.00  0.00     0.316 C 
ATOM     19  H3  UNL     1      31.102   3.819  29.264  1.00  0.00     0.164 HD
HETATM   20  O1  UNL     1      32.476   5.493  27.632  1.00  0.00    -0.247 OA
HETATM   21  N4  UNL     1      30.761   6.970  28.519  1.00  0.00    -0.335 N 
ATOM     22  H4  UNL     1      30.850   7.782  27.909  1.00  0.00     0.164 HD
ENDBRANCH  13  15
ENDBRANCH   1  13
TORSDOF 5
ENDMDL
