MODEL 1
REMARK VINA RESULT: -6.247367047      0.000      0.000
REMARK  4 active torsions:
REMARK  status: ('A' for Active; 'I' for Inactive)
REMARK    1  A    between atoms: N1_2  and  C2_3 
REMARK    2  A    between atoms: C2_3  and  C3_4 
REMARK    3  A    between atoms: C3_4  and  C4_5 
REMARK    4  A    between atoms: C4_5  and  N2_6 
REMARK       I    between atoms: N2_6  and  C5_8 
REMARK       I    between atoms: C5_8  and  N4_12 
ROOT
HETATM    1  C4  UNL     1      30.259  10.028  31.352  1.00  0.00     0.139 C 
ENDROOT
BRANCH   1   2
HETATM    2  C3  UNL     1      29.490   8.980  30.571  1.00  0.00     0.048 C 
BRANCH   2   3
HETATM    3  C2  UNL     1      30.351   8.405  29.507  1.00  0.00     0.238 C 
BRANCH   3   4
HETATM    4  N1  UNL     1      29.966   7.148  28.966  1.00  0.00    -0.068 N 
HETATM    5  C1  UNL     1      28.634   7.356  28.363  1.00  0.00     0.272 C 
HETATM    6  C10 UNL     1      30.762   6.689  27.857  1.00  0.00     0.256 C 
HETATM    7  C11 UNL     1      31.969   5.932  28.351  1.00  0.00     0.142 C 
HETATM    8  N5  UNL     1      31.448   4.692  28.860  1.00  0.00    -0.418 N 
HETATM    9  C12 UNL     1      30.340   4.810  29.728  1.00  0.00     0.142 C 
ATOM     10  H5  UNL     1      31.851   3.789  28.611  1.00  0.00     0.153 HD
HETATM   11  C13 UNL     1      29.780   6.146  29.980  1.00  0.00     0.256 C 
ENDBRANCH   3   4
ENDBRANCH   2   3
ENDBRANCH   1   2
BRANCH   1  12
HETATM   12  N2  UNL     1      31.650  10.058  30.986  1.00  0.00    -0.227 N 
HETATM   13  C5  UNL     1      32.566  10.916  31.641  1.00  0.00     0.669 C 
HETATM   14  N3  UNL     1      33.581  10.510  32.321  1.00  0.00    -0.235 N 
HETATM   15  N4  UNL     1      32.347  12.311  31.536  1.00  0.00    -0.218 N 
ATOM     16  H32 UNL     1      33.738   9.505  32.397  1.00  0.00     0.174 HD
ATOM     17  H31 UNL     1      34.241  11.128  32.793  1.00  0.00     0.174 HD
HETATM   18  C6  UNL     1      32.790  13.117  30.419  1.00  0.00     0.141 C 
HETATM   19  C9  UNL     1      31.657  13.098  32.526  1.00  0.00     0.141 C 
HETATM   20  C7  UNL     1      32.310  14.517  30.755  1.00  0.00     0.022 C 
HETATM   21  C8  UNL     1      32.162  14.493  32.253  1.00  0.00     0.022 C 
ATOM     22  H2  UNL     1      31.984   9.449  30.239  1.00  0.00     0.177 HD
ENDBRANCH   1  12
TORSDOF 4
ENDMDL
MODEL 2
REMARK VINA RESULT: -6.104765808      1.581      6.584
REMARK  4 active torsions:
REMARK  status: ('A' for Active; 'I' for Inactive)
REMARK    1  A    between atoms: N1_2  and  C2_3 
REMARK    2  A    between atoms: C2_3  and  C3_4 
REMARK    3  A    between atoms: C3_4  and  C4_5 
REMARK    4  A    between atoms: C4_5  and  N2_6 
REMARK       I    between atoms: N2_6  and  C5_8 
REMARK       I    between atoms: C5_8  and  N4_12 
ROOT
HETATM    1  C4  UNL     1      28.292   8.960  30.603  1.00  0.00     0.139 C 
ENDROOT
BRANCH   1   2
HETATM    2  C3  UNL     1      29.730   9.347  30.887  1.00  0.00     0.048 C 
BRANCH   2   3
HETATM    3  C2  UNL     1      29.772  10.566  31.733  1.00  0.00     0.238 C 
BRANCH   3   4
HETATM    4  N1  UNL     1      30.625  11.623  31.313  1.00  0.00    -0.068 N 
HETATM    5  C1  UNL     1      29.826  12.860  31.427  1.00  0.00     0.272 C 
HETATM    6  C10 UNL     1      31.752  11.878  32.170  1.00  0.00     0.256 C 
HETATM    7  C11 UNL     1      32.916  10.996  31.791  1.00  0.00     0.142 C 
HETATM    8  N5  UNL     1      33.386  11.521  30.537  1.00  0.00    -0.418 N 
HETATM    9  C12 UNL     1      32.389  11.758  29.565  1.00  0.00     0.142 C 
ATOM     10  H5  UNL     1      34.373  11.710  30.362  1.00  0.00     0.153 HD
HETATM   11  C13 UNL     1      30.984  11.521  29.924  1.00  0.00     0.256 C 
ENDBRANCH   3   4
ENDBRANCH   2   3
ENDBRANCH   1   2
BRANCH   1  12
HETATM   12  N2  UNL     1      28.084   8.646  29.214  1.00  0.00    -0.227 N 
HETATM   13  C5  UNL     1      28.163   7.315  28.740  1.00  0.00     0.669 C 
HETATM   14  N3  UNL     1      27.183   6.676  28.203  1.00  0.00    -0.235 N 
HETATM   15  N4  UNL     1      29.406   6.647  28.866  1.00  0.00    -0.218 N 
ATOM     16  H32 UNL     1      26.288   7.157  28.112  1.00  0.00     0.174 HD
ATOM     17  H31 UNL     1      27.240   5.717  27.861  1.00  0.00     0.174 HD
HETATM   18  C6  UNL     1      30.492   6.775  27.918  1.00  0.00     0.141 C 
HETATM   19  C9  UNL     1      29.741   5.761  29.952  1.00  0.00     0.141 C 
HETATM   20  C7  UNL     1      31.592   5.900  28.491  1.00  0.00     0.022 C 
HETATM   21  C8  UNL     1      30.851   4.924  29.366  1.00  0.00     0.022 C 
ATOM     22  H2  UNL     1      27.875   9.398  28.558  1.00  0.00     0.177 HD
ENDBRANCH   1  12
TORSDOF 4
ENDMDL
MODEL 3
REMARK VINA RESULT: -5.840145353      0.979      1.199
REMARK  4 active torsions:
REMARK  status: ('A' for Active; 'I' for Inactive)
REMARK    1  A    between atoms: N1_2  and  C2_3 
REMARK    2  A    between atoms: C2_3  and  C3_4 
REMARK    3  A    between atoms: C3_4  and  C4_5 
REMARK    4  A    between atoms: C4_5  and  N2_6 
REMARK       I    between atoms: N2_6  and  C5_8 
REMARK       I    between atoms: C5_8  and  N4_12 
ROOT
HETATM    1  C4  UNL     1      30.339  10.777  30.276  1.00  0.00     0.139 C 
ENDROOT
BRANCH   1   2
HETATM    2  C3  UNL     1      29.318   9.710  29.931  1.00  0.00     0.048 C 
BRANCH   2   3
HETATM    3  C2  UNL     1      29.885   8.362  30.187  1.00  0.00     0.238 C 
BRANCH   3   4
HETATM    4  N1  UNL     1      29.598   7.343  29.238  1.00  0.00    -0.068 N 
HETATM    5  C1  UNL     1      28.300   7.706  28.633  1.00  0.00     0.272 C 
HETATM    6  C10 UNL     1      30.486   7.293  28.107  1.00  0.00     0.256 C 
HETATM    7  C11 UNL     1      31.694   6.446  28.420  1.00  0.00     0.142 C 
HETATM    8  N5  UNL     1      31.200   5.095  28.455  1.00  0.00    -0.418 N 
HETATM    9  C12 UNL     1      30.033   4.895  29.224  1.00  0.00     0.142 C 
ATOM     10  H5  UNL     1      31.663   4.333  27.958  1.00  0.00     0.153 HD
HETATM   11  C13 UNL     1      29.394   6.060  29.853  1.00  0.00     0.256 C 
ENDBRANCH   3   4
ENDBRANCH   2   3
ENDBRANCH   1   2
BRANCH   1  12
HETATM   12  N2  UNL     1      31.663  10.230  30.418  1.00  0.00    -0.227 N 
HETATM   13  C5  UNL     1      32.686  10.939  31.091  1.00  0.00     0.669 C 
HETATM   14  N3  UNL     1      33.270  10.528  32.161  1.00  0.00    -0.235 N 
HETATM   15  N4  UNL     1      33.089  12.182  30.545  1.00  0.00    -0.218 N 
ATOM     16  H32 UNL     1      32.979   9.633  32.554  1.00  0.00     0.174 HD
ATOM     17  H31 UNL     1      34.007  11.039  32.647  1.00  0.00     0.174 HD
HETATM   18  C6  UNL     1      34.054  12.321  29.476  1.00  0.00     0.141 C 
HETATM   19  C9  UNL     1      32.589  13.460  30.986  1.00  0.00     0.141 C 
HETATM   20  C7  UNL     1      34.133  13.817  29.235  1.00  0.00     0.022 C 
HETATM   21  C8  UNL     1      33.669  14.412  30.538  1.00  0.00     0.022 C 
ATOM     22  H2  UNL     1      31.868   9.311  30.025  1.00  0.00     0.177 HD
ENDBRANCH   1  12
TORSDOF 4
ENDMDL
MODEL 4
REMARK VINA RESULT: -5.794504685      1.165      1.390
REMARK  4 active torsions:
REMARK  status: ('A' for Active; 'I' for Inactive)
REMARK    1  A    between atoms: N1_2  and  C2_3 
REMARK    2  A    between atoms: C2_3  and  C3_4 
REMARK    3  A    between atoms: C3_4  and  C4_5 
REMARK    4  A    between atoms: C4_5  and  N2_6 
REMARK       I    between atoms: N2_6  and  C5_8 
REMARK       I    between atoms: C5_8  and  N4_12 
ROOT
HETATM    1  C4  UNL     1      29.668  10.062  31.373  1.00  0.00     0.139 C 
ENDROOT
BRANCH   1   2
HETATM    2  C3  UNL     1      29.137   9.034  30.392  1.00  0.00     0.048 C 
BRANCH   2   3
HETATM    3  C2  UNL     1      30.265   8.331  29.731  1.00  0.00     0.238 C 
BRANCH   3   4
HETATM    4  N1  UNL     1      29.968   7.120  29.048  1.00  0.00    -0.068 N 
HETATM    5  C1  UNL     1      28.636   7.313  28.439  1.00  0.00     0.272 C 
HETATM    6  C10 UNL     1      30.810   6.833  27.917  1.00  0.00     0.256 C 
HETATM    7  C11 UNL     1      32.053   6.099  28.355  1.00  0.00     0.142 C 
HETATM    8  N5  UNL     1      31.599   4.782  28.715  1.00  0.00    -0.418 N 
HETATM    9  C12 UNL     1      30.471   4.740  29.563  1.00  0.00     0.142 C 
ATOM     10  H5  UNL     1      32.062   3.937  28.380  1.00  0.00     0.153 HD
HETATM   11  C13 UNL     1      29.826   6.004  29.944  1.00  0.00     0.256 C 
ENDBRANCH   3   4
ENDBRANCH   2   3
ENDBRANCH   1   2
BRANCH   1  12
HETATM   12  N2  UNL     1      31.105  10.038  31.451  1.00  0.00    -0.227 N 
HETATM   13  C5  UNL     1      31.863  11.234  31.454  1.00  0.00     0.669 C 
HETATM   14  N3  UNL     1      32.616  11.613  32.425  1.00  0.00    -0.235 N 
HETATM   15  N4  UNL     1      31.783  12.063  30.308  1.00  0.00    -0.218 N 
ATOM     16  H32 UNL     1      32.674  11.016  33.251  1.00  0.00     0.174 HD
ATOM     17  H31 UNL     1      33.163  12.474  32.428  1.00  0.00     0.174 HD
HETATM   18  C6  UNL     1      32.575  11.869  29.113  1.00  0.00     0.141 C 
HETATM   19  C9  UNL     1      30.903  13.199  30.191  1.00  0.00     0.141 C 
HETATM   20  C7  UNL     1      32.123  12.978  28.181  1.00  0.00     0.022 C 
HETATM   21  C8  UNL     1      31.564  14.020  29.113  1.00  0.00     0.022 C 
ATOM     22  H2  UNL     1      31.587   9.141  31.506  1.00  0.00     0.177 HD
ENDBRANCH   1  12
TORSDOF 4
ENDMDL
MODEL 5
REMARK VINA RESULT: -5.767594817      1.504      2.172
REMARK  4 active torsions:
REMARK  status: ('A' for Active; 'I' for Inactive)
REMARK    1  A    between atoms: N1_2  and  C2_3 
REMARK    2  A    between atoms: C2_3  and  C3_4 
REMARK    3  A    between atoms: C3_4  and  C4_5 
REMARK    4  A    between atoms: C4_5  and  N2_6 
REMARK       I    between atoms: N2_6  and  C5_8 
REMARK       I    between atoms: C5_8  and  N4_12 
ROOT
HETATM    1  C4  UNL     1      29.031   9.751  31.529  1.00  0.00     0.139 C 
ENDROOT
BRANCH   1   2
HETATM    2  C3  UNL     1      28.905   9.252  30.102  1.00  0.00     0.048 C 
BRANCH   2   3
HETATM    3  C2  UNL     1      30.071   8.401  29.756  1.00  0.00     0.238 C 
BRANCH   3   4
HETATM    4  N1  UNL     1      29.809   7.183  29.071  1.00  0.00    -0.068 N 
HETATM    5  C1  UNL     1      28.478   7.344  28.451  1.00  0.00     0.272 C 
HETATM    6  C10 UNL     1      30.667   6.916  27.947  1.00  0.00     0.256 C 
HETATM    7  C11 UNL     1      31.924   6.212  28.396  1.00  0.00     0.142 C 
HETATM    8  N5  UNL     1      31.499   4.885  28.753  1.00  0.00    -0.418 N 
HETATM    9  C12 UNL     1      30.365   4.815  29.591  1.00  0.00     0.142 C 
ATOM     10  H5  UNL     1      31.984   4.051  28.422  1.00  0.00     0.153 HD
HETATM   11  C13 UNL     1      29.687   6.065  29.966  1.00  0.00     0.256 C 
ENDBRANCH   3   4
ENDBRANCH   2   3
ENDBRANCH   1   2
BRANCH   1  12
HETATM   12  N2  UNL     1      28.679  11.142  31.645  1.00  0.00    -0.227 N 
HETATM   13  C5  UNL     1      29.377  12.142  30.928  1.00  0.00     0.669 C 
HETATM   14  N3  UNL     1      28.842  12.907  30.043  1.00  0.00    -0.235 N 
HETATM   15  N4  UNL     1      30.756  12.306  31.207  1.00  0.00    -0.218 N 
ATOM     16  H32 UNL     1      27.849  12.789  29.841  1.00  0.00     0.174 HD
ATOM     17  H31 UNL     1      29.345  13.628  29.525  1.00  0.00     0.174 HD
HETATM   18  C6  UNL     1      31.270  13.099  32.303  1.00  0.00     0.141 C 
HETATM   19  C9  UNL     1      31.815  11.704  30.437  1.00  0.00     0.141 C 
HETATM   20  C7  UNL     1      32.777  12.950  32.197  1.00  0.00     0.022 C 
HETATM   21  C8  UNL     1      32.997  12.585  30.753  1.00  0.00     0.022 C 
ATOM     22  H2  UNL     1      27.909  11.412  32.258  1.00  0.00     0.177 HD
ENDBRANCH   1  12
TORSDOF 4
ENDMDL
