MODEL 1
REMARK VINA RESULT: -5.444353426      0.000      0.000
REMARK  6 active torsions:
REMARK  status: ('A' for Active; 'I' for Inactive)
REMARK    1  A    between atoms: C3_3  and  C4_4 
REMARK    2  A    between atoms: C5_5  and  C6_6 
REMARK    3  A    between atoms: C6_6  and  C7_7 
REMARK    4  A    between atoms: C7_7  and  N1_8 
REMARK       I    between atoms: N1_8  and  C8_10 
REMARK       I    between atoms: C8_10  and  N3_14 
REMARK    5  A    between atoms: N3_14  and  C9_16 
REMARK    6  A    between atoms: C9_16  and  C10_17 
ROOT
HETATM    1  C1  UNL     1      34.280   4.667  28.007  1.00  0.00     0.113 C 
HETATM    2  C2  UNL     1      32.918   5.014  28.427  1.00  0.00    -0.097 C 
HETATM    3  C3  UNL     1      31.797   5.300  28.792  1.00  0.00    -0.015 C 
ENDROOT
BRANCH   3   4
HETATM    4  C4  UNL     1      30.495   5.649  29.231  1.00  0.00    -0.015 C 
HETATM    5  C5  UNL     1      29.389   5.944  29.627  1.00  0.00    -0.091 C 
BRANCH   5   6
HETATM    6  C6  UNL     1      28.050   6.322  30.130  1.00  0.00     0.115 C 
BRANCH   6   7
HETATM    7  C7  UNL     1      27.916   7.829  29.954  1.00  0.00     0.150 C 
BRANCH   7   8
HETATM    8  N1  UNL     1      28.568   8.537  31.032  1.00  0.00    -0.226 N 
HETATM    9  C8  UNL     1      29.635   9.431  30.880  1.00  0.00     0.667 C 
HETATM   10  N2  UNL     1      30.318   9.451  29.799  1.00  0.00    -0.235 N 
HETATM   11  N3  UNL     1      29.933  10.310  31.957  1.00  0.00    -0.225 N 
ATOM     12  H22 UNL     1      30.104   8.821  29.026  1.00  0.00     0.174 HD
ATOM     13  H21 UNL     1      31.095  10.102  29.687  1.00  0.00     0.174 HD
ATOM     14  H3  UNL     1      29.228  10.535  32.659  1.00  0.00     0.177 HD
ATOM     15  H1  UNL     1      28.223   8.374  31.978  1.00  0.00     0.177 HD
BRANCH  11  16
HETATM   16  C9  UNL     1      31.262  10.876  32.032  1.00  0.00     0.171 C 
BRANCH  16  17
HETATM   17  C10 UNL     1      31.213  12.374  31.806  1.00  0.00     0.209 C 
HETATM   18  C11 UNL     1      31.903  13.169  32.903  1.00  0.00     0.063 C 
HETATM   19  C12 UNL     1      32.755  13.731  31.773  1.00  0.00     0.239 C 
HETATM   20  N4  UNL     1      32.151  12.831  30.820  1.00  0.00    -0.069 N 
HETATM   21  C13 UNL     1      31.461  13.510  29.725  1.00  0.00     0.272 C 
HETATM   22  C14 UNL     1      33.076  11.816  30.318  1.00  0.00     0.272 C 
ENDBRANCH  16  17
ENDBRANCH  11  16
ENDBRANCH   7   8
ENDBRANCH   6   7
ENDBRANCH   5   6
ENDBRANCH   3   4
TORSDOF 6
ENDMDL
MODEL 2
REMARK VINA RESULT: -5.392642856      1.017      1.704
REMARK  6 active torsions:
REMARK  status: ('A' for Active; 'I' for Inactive)
REMARK    1  A    between atoms: C3_3  and  C4_4 
REMARK    2  A    between atoms: C5_5  and  C6_6 
REMARK    3  A    between atoms: C6_6  and  C7_7 
REMARK    4  A    between atoms: C7_7  and  N1_8 
REMARK       I    between atoms: N1_8  and  C8_10 
REMARK       I    between atoms: C8_10  and  N3_14 
REMARK    5  A    between atoms: N3_14  and  C9_16 
REMARK    6  A    between atoms: C9_16  and  C10_17 
ROOT
HETATM    1  C1  UNL     1      34.958   4.728  28.210  1.00  0.00     0.113 C 
HETATM    2  C2  UNL     1      33.510   4.926  28.315  1.00  0.00    -0.097 C 
HETATM    3  C3  UNL     1      32.313   5.108  28.410  1.00  0.00    -0.015 C 
ENDROOT
BRANCH   3   4
HETATM    4  C4  UNL     1      30.918   5.338  28.514  1.00  0.00    -0.015 C 
HETATM    5  C5  UNL     1      29.730   5.545  28.622  1.00  0.00    -0.091 C 
BRANCH   5   6
HETATM    6  C6  UNL     1      28.284   5.825  28.762  1.00  0.00     0.115 C 
BRANCH   6   7
HETATM    7  C7  UNL     1      28.129   6.799  29.923  1.00  0.00     0.150 C 
BRANCH   7   8
HETATM    8  N1  UNL     1      28.876   8.013  29.685  1.00  0.00    -0.226 N 
HETATM    9  C8  UNL     1      29.025   9.060  30.603  1.00  0.00     0.667 C 
HETATM   10  N2  UNL     1      28.249   9.154  31.614  1.00  0.00    -0.235 N 
HETATM   11  N3  UNL     1      30.061  10.008  30.377  1.00  0.00    -0.225 N 
ATOM     12  H22 UNL     1      27.506   8.475  31.776  1.00  0.00     0.174 HD
ATOM     13  H21 UNL     1      28.357   9.916  32.283  1.00  0.00     0.174 HD
ATOM     14  H3  UNL     1      30.865   9.775  29.795  1.00  0.00     0.177 HD
ATOM     15  H1  UNL     1      29.330   8.115  28.778  1.00  0.00     0.177 HD
BRANCH  11  16
HETATM   16  C9  UNL     1      29.944  11.310  30.994  1.00  0.00     0.171 C 
BRANCH  16  17
HETATM   17  C10 UNL     1      31.031  11.505  32.032  1.00  0.00     0.209 C 
HETATM   18  C11 UNL     1      32.268  10.662  31.771  1.00  0.00     0.063 C 
HETATM   19  C12 UNL     1      33.008  11.993  31.764  1.00  0.00     0.239 C 
HETATM   20  N4  UNL     1      31.767  12.725  31.862  1.00  0.00    -0.069 N 
HETATM   21  C13 UNL     1      31.670  13.560  33.057  1.00  0.00     0.272 C 
HETATM   22  C14 UNL     1      31.449  13.485  30.655  1.00  0.00     0.272 C 
ENDBRANCH  16  17
ENDBRANCH  11  16
ENDBRANCH   7   8
ENDBRANCH   6   7
ENDBRANCH   5   6
ENDBRANCH   3   4
TORSDOF 6
ENDMDL
MODEL 3
REMARK VINA RESULT: -5.358184542      0.973      1.781
REMARK  6 active torsions:
REMARK  status: ('A' for Active; 'I' for Inactive)
REMARK    1  A    between atoms: C3_3  and  C4_4 
REMARK    2  A    between atoms: C5_5  and  C6_6 
REMARK    3  A    between atoms: C6_6  and  C7_7 
REMARK    4  A    between atoms: C7_7  and  N1_8 
REMARK       I    between atoms: N1_8  and  C8_10 
REMARK       I    between atoms: C8_10  and  N3_14 
REMARK    5  A    between atoms: N3_14  and  C9_16 
REMARK    6  A    between atoms: C9_16  and  C10_17 
ROOT
HETATM    1  C1  UNL     1      33.756   4.594  28.211  1.00  0.00     0.113 C 
HETATM    2  C2  UNL     1      32.387   5.105  28.328  1.00  0.00    -0.097 C 
HETATM    3  C3  UNL     1      31.260   5.546  28.430  1.00  0.00    -0.015 C 
ENDROOT
BRANCH   3   4
HETATM    4  C4  UNL     1      29.950   6.076  28.540  1.00  0.00    -0.015 C 
HETATM    5  C5  UNL     1      28.840   6.549  28.640  1.00  0.00    -0.091 C 
BRANCH   5   6
HETATM    6  C6  UNL     1      27.492   7.150  28.747  1.00  0.00     0.115 C 
BRANCH   6   7
HETATM    7  C7  UNL     1      27.562   8.212  29.836  1.00  0.00     0.150 C 
BRANCH   7   8
HETATM    8  N1  UNL     1      28.834   8.897  29.811  1.00  0.00    -0.226 N 
HETATM    9  C8  UNL     1      29.506   9.389  30.937  1.00  0.00     0.667 C 
HETATM   10  N2  UNL     1      28.890   9.542  32.047  1.00  0.00    -0.235 N 
HETATM   11  N3  UNL     1      30.885   9.711  30.808  1.00  0.00    -0.225 N 
ATOM     12  H22 UNL     1      27.902   9.311  32.139  1.00  0.00     0.174 HD
ATOM     13  H21 UNL     1      29.379   9.901  32.867  1.00  0.00     0.174 HD
ATOM     14  H3  UNL     1      31.451   9.300  30.065  1.00  0.00     0.177 HD
ATOM     15  H1  UNL     1      29.278   9.032  28.903  1.00  0.00     0.177 HD
BRANCH  11  16
HETATM   16  C9  UNL     1      31.464  10.637  31.756  1.00  0.00     0.171 C 
BRANCH  16  17
HETATM   17  C10 UNL     1      32.283  11.690  31.037  1.00  0.00     0.209 C 
HETATM   18  C11 UNL     1      32.082  11.681  29.530  1.00  0.00     0.063 C 
HETATM   19  C12 UNL     1      31.664  13.134  29.713  1.00  0.00     0.239 C 
HETATM   20  N4  UNL     1      31.735  13.011  31.150  1.00  0.00    -0.069 N 
HETATM   21  C13 UNL     1      32.697  13.920  31.770  1.00  0.00     0.272 C 
HETATM   22  C14 UNL     1      30.429  13.094  31.801  1.00  0.00     0.272 C 
ENDBRANCH  16  17
ENDBRANCH  11  16
ENDBRANCH   7   8
ENDBRANCH   6   7
ENDBRANCH   5   6
ENDBRANCH   3   4
TORSDOF 6
ENDMDL
MODEL 4
REMARK VINA RESULT: -5.288943787      0.985      1.343
REMARK  6 active torsions:
REMARK  status: ('A' for Active; 'I' for Inactive)
REMARK    1  A    between atoms: C3_3  and  C4_4 
REMARK    2  A    between atoms: C5_5  and  C6_6 
REMARK    3  A    between atoms: C6_6  and  C7_7 
REMARK    4  A    between atoms: C7_7  and  N1_8 
REMARK       I    between atoms: N1_8  and  C8_10 
REMARK       I    between atoms: C8_10  and  N3_14 
REMARK    5  A    between atoms: N3_14  and  C9_16 
REMARK    6  A    between atoms: C9_16  and  C10_17 
ROOT
HETATM    1  C1  UNL     1      34.420   4.739  28.159  1.00  0.00     0.113 C 
HETATM    2  C2  UNL     1      33.006   5.072  28.355  1.00  0.00    -0.097 C 
HETATM    3  C3  UNL     1      31.836   5.341  28.536  1.00  0.00    -0.015 C 
ENDROOT
BRANCH   3   4
HETATM    4  C4  UNL     1      30.475   5.663  28.764  1.00  0.00    -0.015 C 
HETATM    5  C5  UNL     1      29.308   5.917  28.966  1.00  0.00    -0.091 C 
BRANCH   5   6
HETATM    6  C6  UNL     1      27.884   6.213  29.237  1.00  0.00     0.115 C 
BRANCH   6   7
HETATM    7  C7  UNL     1      27.638   7.653  28.807  1.00  0.00     0.150 C 
BRANCH   7   8
HETATM    8  N1  UNL     1      28.773   8.490  29.123  1.00  0.00    -0.226 N 
HETATM    9  C8  UNL     1      29.073   8.996  30.394  1.00  0.00     0.667 C 
HETATM   10  N2  UNL     1      28.186   9.006  31.315  1.00  0.00    -0.235 N 
HETATM   11  N3  UNL     1      30.385   9.492  30.626  1.00  0.00    -0.225 N 
ATOM     12  H22 UNL     1      27.246   8.650  31.148  1.00  0.00     0.174 HD
ATOM     13  H21 UNL     1      28.404   9.374  32.241  1.00  0.00     0.174 HD
ATOM     14  H3  UNL     1      31.167   9.198  30.041  1.00  0.00     0.177 HD
ATOM     15  H1  UNL     1      29.405   8.731  28.360  1.00  0.00     0.177 HD
BRANCH  11  16
HETATM   16  C9  UNL     1      30.581  10.425  31.713  1.00  0.00     0.171 C 
BRANCH  16  17
HETATM   17  C10 UNL     1      31.157  11.729  31.196  1.00  0.00     0.209 C 
HETATM   18  C11 UNL     1      30.915  12.904  32.129  1.00  0.00     0.063 C 
HETATM   19  C12 UNL     1      32.432  13.044  32.127  1.00  0.00     0.239 C 
HETATM   20  N4  UNL     1      32.579  11.827  31.363  1.00  0.00    -0.069 N 
HETATM   21  C13 UNL     1      33.239  12.021  30.074  1.00  0.00     0.272 C 
HETATM   22  C14 UNL     1      33.198  10.741  32.121  1.00  0.00     0.272 C 
ENDBRANCH  16  17
ENDBRANCH  11  16
ENDBRANCH   7   8
ENDBRANCH   6   7
ENDBRANCH   5   6
ENDBRANCH   3   4
TORSDOF 6
ENDMDL
MODEL 5
REMARK VINA RESULT: -5.216432839      0.861      1.111
REMARK  6 active torsions:
REMARK  status: ('A' for Active; 'I' for Inactive)
REMARK    1  A    between atoms: C3_3  and  C4_4 
REMARK    2  A    between atoms: C5_5  and  C6_6 
REMARK    3  A    between atoms: C6_6  and  C7_7 
REMARK    4  A    between atoms: C7_7  and  N1_8 
REMARK       I    between atoms: N1_8  and  C8_10 
REMARK       I    between atoms: C8_10  and  N3_14 
REMARK    5  A    between atoms: N3_14  and  C9_16 
REMARK    6  A    between atoms: C9_16  and  C10_17 
ROOT
HETATM    1  C1  UNL     1      33.563   4.693  28.226  1.00  0.00     0.113 C 
HETATM    2  C2  UNL     1      32.219   5.269  28.331  1.00  0.00    -0.097 C 
HETATM    3  C3  UNL     1      31.112   5.756  28.434  1.00  0.00    -0.015 C 
ENDROOT
BRANCH   3   4
HETATM    4  C4  UNL     1      29.827   6.341  28.556  1.00  0.00    -0.015 C 
HETATM    5  C5  UNL     1      28.738   6.861  28.656  1.00  0.00    -0.091 C 
BRANCH   5   6
HETATM    6  C6  UNL     1      27.412   7.512  28.754  1.00  0.00     0.115 C 
BRANCH   6   7
HETATM    7  C7  UNL     1      27.504   8.545  29.869  1.00  0.00     0.150 C 
BRANCH   7   8
HETATM    8  N1  UNL     1      28.762   9.254  29.818  1.00  0.00    -0.226 N 
HETATM    9  C8  UNL     1      29.556   9.569  30.927  1.00  0.00     0.667 C 
HETATM   10  N2  UNL     1      29.070   9.521  32.109  1.00  0.00    -0.235 N 
HETATM   11  N3  UNL     1      30.909   9.941  30.700  1.00  0.00    -0.225 N 
ATOM     12  H22 UNL     1      28.100   9.254  32.272  1.00  0.00     0.174 HD
ATOM     13  H21 UNL     1      29.649   9.749  32.918  1.00  0.00     0.174 HD
ATOM     14  H3  UNL     1      31.388   9.673  29.840  1.00  0.00     0.177 HD
ATOM     15  H1  UNL     1      29.097   9.549  28.901  1.00  0.00     0.177 HD
BRANCH  11  16
HETATM   16  C9  UNL     1      31.589  10.709  31.719  1.00  0.00     0.171 C 
BRANCH  16  17
HETATM   17  C10 UNL     1      31.308  12.189  31.544  1.00  0.00     0.209 C 
HETATM   18  C11 UNL     1      31.731  13.026  32.740  1.00  0.00     0.063 C 
HETATM   19  C12 UNL     1      32.589  13.783  31.736  1.00  0.00     0.239 C 
HETATM   20  N4  UNL     1      32.253  12.848  30.689  1.00  0.00    -0.069 N 
HETATM   21  C13 UNL     1      31.578  13.463  29.547  1.00  0.00     0.272 C 
HETATM   22  C14 UNL     1      33.387  12.031  30.259  1.00  0.00     0.272 C 
ENDBRANCH  16  17
ENDBRANCH  11  16
ENDBRANCH   7   8
ENDBRANCH   6   7
ENDBRANCH   5   6
ENDBRANCH   3   4
TORSDOF 6
ENDMDL
