MODEL 1
REMARK VINA RESULT: -9.371634033      0.000      0.000
REMARK  13 active torsions:
REMARK  status: ('A' for Active; 'I' for Inactive)
REMARK    1  A    between atoms: C2_2  and  C3_3 
REMARK    2  A    between atoms: C3_3  and  N1_4 
REMARK       I    between atoms: N1_4  and  C4_6 
REMARK    3  A    between atoms: C4_6  and  C5_8 
REMARK       I    between atoms: C5_8  and  N2_10 
REMARK    4  A    between atoms: C8_13  and  C9_14 
REMARK       I    between atoms: C9_14  and  N3_16 
REMARK    5  A    between atoms: C14_21  and  C15_22 
REMARK    6  A    between atoms: C15_22  and  N4_24 
REMARK    7  A    between atoms: C20_28  and  C21_29 
REMARK    8  A    between atoms: C21_29  and  N5_30 
REMARK    9  A    between atoms: N6_33  and  C23_34 
REMARK   10  A    between atoms: C26_37  and  C27_38 
REMARK   11  A    between atoms: C29_40  and  O5_41 
REMARK   12  A    between atoms: C29_40  and  C30_43 
REMARK   13  A    between atoms: C30_43  and  C31_44 
ROOT
HETATM    1  N4  UNL     1      10.101 -18.283 -19.606  1.00  0.00     0.101 N 
HETATM    2  C17 UNL     1      10.209 -19.503 -20.322  1.00  0.00     0.273 C 
HETATM    3  C18 UNL     1       9.500 -19.207 -21.660  1.00  0.00     0.032 C 
HETATM    4  C19 UNL     1       8.725 -17.935 -21.382  1.00  0.00     0.039 C 
HETATM    5  C20 UNL     1       8.750 -17.794 -19.886  1.00  0.00     0.242 C 
ENDROOT
BRANCH   1   6
HETATM    6  C15 UNL     1      10.505 -18.203 -18.259  1.00  0.00     0.242 C 
HETATM    7  C16 UNL     1      12.015 -17.807 -18.346  1.00  0.00     0.045 C 
BRANCH   6   8
HETATM    8  C14 UNL     1      10.438 -19.510 -17.477  1.00  0.00     0.120 C 
HETATM    9  N3  UNL     1      11.762 -19.873 -16.937  1.00  0.00    -0.344 N 
HETATM   10  C9  UNL     1      12.448 -21.046 -17.283  1.00  0.00     0.243 C 
HETATM   11  C10 UNL     1      12.371 -18.966 -15.958  1.00  0.00     0.126 C 
HETATM   12  O3  UNL     1      13.586 -21.293 -16.753  1.00  0.00    -0.271 OA
HETATM   13  C11 UNL     1      11.467 -18.912 -14.715  1.00  0.00     0.020 C 
HETATM   14  C12 UNL     1      10.300 -19.838 -14.998  1.00  0.00     0.004 C 
HETATM   15  C13 UNL     1       9.539 -19.354 -16.228  1.00  0.00     0.027 C 
BRANCH  10  16
HETATM   16  C8  UNL     1      11.961 -22.073 -18.242  1.00  0.00     0.181 C 
HETATM   17  N2  UNL     1      13.005 -22.787 -18.936  1.00  0.00    -0.330 N 
HETATM   18  C5  UNL     1      14.114 -22.471 -19.768  1.00  0.00     0.312 C 
HETATM   19  C6  UNL     1      12.474 -24.028 -18.428  1.00  0.00     0.130 C 
HETATM   20  O2  UNL     1      14.310 -21.250 -20.043  1.00  0.00    -0.262 OA
HETATM   21  C7  UNL     1      11.472 -23.317 -17.587  1.00  0.00     0.055 C 
BRANCH  18  22
HETATM   22  C4  UNL     1      15.011 -23.479 -20.299  1.00  0.00     0.309 C 
HETATM   23  N1  UNL     1      16.183 -23.847 -19.617  1.00  0.00    -0.349 N 
ATOM     24  H1  UNL     1      16.398 -23.388 -18.732  1.00  0.00     0.163 HD
HETATM   25  O1  UNL     1      14.705 -24.019 -21.395  1.00  0.00    -0.262 OA
BRANCH  23  26
HETATM   26  C3  UNL     1      17.092 -24.847 -20.116  1.00  0.00     0.149 C 
BRANCH  26  27
HETATM   27  C2  UNL     1      18.065 -25.310 -19.100  1.00  0.00    -0.018 C 
HETATM   28  C1  UNL     1      17.685 -26.107 -18.111  1.00  0.00     0.008 C 
ENDBRANCH  26  27
ENDBRANCH  23  26
ENDBRANCH  18  22
ENDBRANCH  10  16
ENDBRANCH   6   8
ENDBRANCH   1   6
BRANCH   5  29
HETATM   29  C21 UNL     1       7.709 -18.559 -19.153  1.00  0.00     0.172 C 
BRANCH  29  30
HETATM   30  N5  UNL     1       6.678 -17.802 -18.517  1.00  0.00    -0.265 N 
HETATM   31  C22 UNL     1       5.322 -17.973 -19.028  1.00  0.00     0.327 C 
HETATM   32  O4  UNL     1       5.125 -19.094 -19.598  1.00  0.00    -0.247 OA
HETATM   33  N6  UNL     1       4.244 -17.044 -18.951  1.00  0.00    -0.334 N 
HETATM   34  C25 UNL     1       4.253 -15.912 -18.078  1.00  0.00     0.135 C 
HETATM   35  C26 UNL     1       4.658 -16.157 -16.644  1.00  0.00     0.047 C 
HETATM   36  C29 UNL     1       6.055 -16.396 -16.359  1.00  0.00     0.144 C 
HETATM   37  C34 UNL     1       6.943 -16.917 -17.440  1.00  0.00     0.263 C 
HETATM   38  O6  UNL     1       8.123 -16.510 -17.392  1.00  0.00    -0.269 OA
BRANCH  33  39
HETATM   39  C23 UNL     1       3.154 -17.327 -19.845  1.00  0.00     0.123 C 
HETATM   40  C24 UNL     1       1.794 -16.997 -19.351  1.00  0.00     0.026 C 
ENDBRANCH  33  39
BRANCH  35  41
HETATM   41  C27 UNL     1       3.664 -17.230 -16.161  1.00  0.00     0.005 C 
HETATM   42  C28 UNL     1       2.444 -16.695 -15.479  1.00  0.00     0.005 C 
ENDBRANCH  35  41
BRANCH  36  43
HETATM   43  O5  UNL     1       6.140 -17.489 -15.412  1.00  0.00    -0.380 OA
ATOM     44  H5  UNL     1       5.779 -17.191 -14.585  1.00  0.00     0.211 HD
ENDBRANCH  36  43
BRANCH  36  45
HETATM   45  C30 UNL     1       6.842 -15.329 -15.659  1.00  0.00     0.052 C 
BRANCH  45  46
HETATM   46  C31 UNL     1       7.406 -15.575 -14.324  1.00  0.00    -0.019 C 
HETATM   47  C32 UNL     1       7.377 -14.157 -13.633  1.00  0.00     0.009 C 
HETATM   48  C33 UNL     1       8.905 -15.882 -14.291  1.00  0.00     0.009 C 
ENDBRANCH  45  46
ENDBRANCH  36  45
ENDBRANCH  29  30
ENDBRANCH   5  29
TORSDOF 13
ENDMDL
MODEL 2
REMARK VINA RESULT: -9.193878861      2.796      5.449
REMARK  13 active torsions:
REMARK  status: ('A' for Active; 'I' for Inactive)
REMARK    1  A    between atoms: C2_2  and  C3_3 
REMARK    2  A    between atoms: C3_3  and  N1_4 
REMARK       I    between atoms: N1_4  and  C4_6 
REMARK    3  A    between atoms: C4_6  and  C5_8 
REMARK       I    between atoms: C5_8  and  N2_10 
REMARK    4  A    between atoms: C8_13  and  C9_14 
REMARK       I    between atoms: C9_14  and  N3_16 
REMARK    5  A    between atoms: C14_21  and  C15_22 
REMARK    6  A    between atoms: C15_22  and  N4_24 
REMARK    7  A    between atoms: C20_28  and  C21_29 
REMARK    8  A    between atoms: C21_29  and  N5_30 
REMARK    9  A    between atoms: N6_33  and  C23_34 
REMARK   10  A    between atoms: C26_37  and  C27_38 
REMARK   11  A    between atoms: C29_40  and  O5_41 
REMARK   12  A    between atoms: C29_40  and  C30_43 
REMARK   13  A    between atoms: C30_43  and  C31_44 
ROOT
HETATM    1  N4  UNL     1      12.260 -20.016 -16.173  1.00  0.00     0.101 N 
HETATM    2  C17 UNL     1      13.542 -19.419 -16.286  1.00  0.00     0.273 C 
HETATM    3  C18 UNL     1      13.720 -18.675 -14.947  1.00  0.00     0.032 C 
HETATM    4  C19 UNL     1      12.319 -18.629 -14.372  1.00  0.00     0.039 C 
HETATM    5  C20 UNL     1      11.425 -19.005 -15.521  1.00  0.00     0.242 C 
ENDROOT
BRANCH   1   6
HETATM    6  C15 UNL     1      11.671 -20.666 -17.274  1.00  0.00     0.242 C 
HETATM    7  C16 UNL     1      11.181 -22.029 -16.685  1.00  0.00     0.045 C 
BRANCH   6   8
HETATM    8  C14 UNL     1      12.619 -20.999 -18.421  1.00  0.00     0.120 C 
HETATM    9  N3  UNL     1      12.794 -22.457 -18.558  1.00  0.00    -0.344 N 
HETATM   10  C9  UNL     1      14.027 -23.110 -18.411  1.00  0.00     0.243 C 
HETATM   11  C10 UNL     1      11.613 -23.257 -18.900  1.00  0.00     0.126 C 
HETATM   12  O3  UNL     1      14.094 -24.378 -18.564  1.00  0.00    -0.271 OA
HETATM   13  C11 UNL     1      11.108 -22.816 -20.283  1.00  0.00     0.020 C 
HETATM   14  C12 UNL     1      12.052 -21.724 -20.751  1.00  0.00     0.004 C 
HETATM   15  C13 UNL     1      12.016 -20.553 -19.775  1.00  0.00     0.027 C 
BRANCH  10  16
HETATM   16  C8  UNL     1      15.316 -22.443 -18.085  1.00  0.00     0.181 C 
HETATM   17  N2  UNL     1      15.863 -22.795 -16.797  1.00  0.00    -0.330 N 
HETATM   18  C5  UNL     1      15.447 -22.757 -15.437  1.00  0.00     0.312 C 
HETATM   19  C6  UNL     1      17.069 -23.242 -17.448  1.00  0.00     0.130 C 
HETATM   20  O2  UNL     1      14.297 -22.284 -15.191  1.00  0.00    -0.262 OA
HETATM   21  C7  UNL     1      16.486 -23.023 -18.800  1.00  0.00     0.055 C 
BRANCH  18  22
HETATM   22  C4  UNL     1      16.277 -23.233 -14.348  1.00  0.00     0.309 C 
HETATM   23  N1  UNL     1      15.808 -24.198 -13.440  1.00  0.00    -0.349 N 
ATOM     24  H1  UNL     1      14.863 -24.563 -13.559  1.00  0.00     0.163 HD
HETATM   25  O1  UNL     1      17.436 -22.754 -14.240  1.00  0.00    -0.262 OA
BRANCH  23  26
HETATM   26  C3  UNL     1      16.608 -24.694 -12.349  1.00  0.00     0.149 C 
BRANCH  26  27
HETATM   27  C2  UNL     1      16.617 -26.171 -12.256  1.00  0.00    -0.018 C 
HETATM   28  C1  UNL     1      15.493 -26.844 -12.051  1.00  0.00     0.008 C 
ENDBRANCH  26  27
ENDBRANCH  23  26
ENDBRANCH  18  22
ENDBRANCH  10  16
ENDBRANCH   6   8
ENDBRANCH   1   6
BRANCH   5  29
HETATM   29  C21 UNL     1      11.059 -17.897 -16.438  1.00  0.00     0.172 C 
BRANCH  29  30
HETATM   30  N5  UNL     1       9.680 -17.530 -16.491  1.00  0.00    -0.265 N 
HETATM   31  C22 UNL     1       9.181 -16.677 -15.418  1.00  0.00     0.327 C 
HETATM   32  O4  UNL     1      10.080 -15.962 -14.870  1.00  0.00    -0.247 OA
HETATM   33  N6  UNL     1       7.840 -16.572 -14.947  1.00  0.00    -0.334 N 
HETATM   34  C25 UNL     1       6.718 -17.075 -15.676  1.00  0.00     0.135 C 
HETATM   35  C26 UNL     1       6.642 -16.726 -17.144  1.00  0.00     0.047 C 
HETATM   36  C29 UNL     1       7.543 -17.399 -18.053  1.00  0.00     0.144 C 
HETATM   37  C34 UNL     1       8.819 -17.970 -17.530  1.00  0.00     0.263 C 
HETATM   38  O6  UNL     1       9.200 -19.013 -18.102  1.00  0.00    -0.269 OA
BRANCH  33  39
HETATM   39  C23 UNL     1       7.712 -15.938 -13.663  1.00  0.00     0.123 C 
HETATM   40  C24 UNL     1       7.572 -14.460 -13.668  1.00  0.00     0.026 C 
ENDBRANCH  33  39
BRANCH  35  41
HETATM   41  C27 UNL     1       6.675 -15.186 -17.156  1.00  0.00     0.005 C 
HETATM   42  C28 UNL     1       5.488 -14.527 -16.525  1.00  0.00     0.005 C 
ENDBRANCH  35  41
BRANCH  36  43
HETATM   43  O5  UNL     1       8.067 -16.413 -18.977  1.00  0.00    -0.380 OA
ATOM     44  H5  UNL     1       8.732 -16.834 -19.510  1.00  0.00     0.211 HD
ENDBRANCH  36  43
BRANCH  36  45
HETATM   45  C30 UNL     1       6.986 -18.426 -18.993  1.00  0.00     0.052 C 
BRANCH  45  46
HETATM   46  C31 UNL     1       5.923 -18.067 -19.942  1.00  0.00    -0.019 C 
HETATM   47  C32 UNL     1       4.755 -19.071 -19.601  1.00  0.00     0.009 C 
HETATM   48  C33 UNL     1       6.198 -18.430 -21.404  1.00  0.00     0.009 C 
ENDBRANCH  45  46
ENDBRANCH  36  45
ENDBRANCH  29  30
ENDBRANCH   5  29
TORSDOF 13
ENDMDL
MODEL 3
REMARK VINA RESULT: -9.147130621      2.387      2.724
REMARK  13 active torsions:
REMARK  status: ('A' for Active; 'I' for Inactive)
REMARK    1  A    between atoms: C2_2  and  C3_3 
REMARK    2  A    between atoms: C3_3  and  N1_4 
REMARK       I    between atoms: N1_4  and  C4_6 
REMARK    3  A    between atoms: C4_6  and  C5_8 
REMARK       I    between atoms: C5_8  and  N2_10 
REMARK    4  A    between atoms: C8_13  and  C9_14 
REMARK       I    between atoms: C9_14  and  N3_16 
REMARK    5  A    between atoms: C14_21  and  C15_22 
REMARK    6  A    between atoms: C15_22  and  N4_24 
REMARK    7  A    between atoms: C20_28  and  C21_29 
REMARK    8  A    between atoms: C21_29  and  N5_30 
REMARK    9  A    between atoms: N6_33  and  C23_34 
REMARK   10  A    between atoms: C26_37  and  C27_38 
REMARK   11  A    between atoms: C29_40  and  O5_41 
REMARK   12  A    between atoms: C29_40  and  C30_43 
REMARK   13  A    between atoms: C30_43  and  C31_44 
ROOT
HETATM    1  N4  UNL     1      10.225 -18.336 -19.567  1.00  0.00     0.101 N 
HETATM    2  C17 UNL     1      10.378 -19.628 -20.133  1.00  0.00     0.273 C 
HETATM    3  C18 UNL     1       9.653 -19.522 -21.490  1.00  0.00     0.032 C 
HETATM    4  C19 UNL     1       8.829 -18.257 -21.360  1.00  0.00     0.039 C 
HETATM    5  C20 UNL     1       8.854 -17.938 -19.890  1.00  0.00     0.242 C 
ENDROOT
BRANCH   1   6
HETATM    6  C15 UNL     1      10.631 -18.080 -18.243  1.00  0.00     0.242 C 
HETATM    7  C16 UNL     1      12.091 -17.541 -18.398  1.00  0.00     0.045 C 
BRANCH   6   8
HETATM    8  C14 UNL     1      10.708 -19.302 -17.334  1.00  0.00     0.120 C 
HETATM    9  N3  UNL     1      11.526 -19.023 -16.138  1.00  0.00    -0.344 N 
HETATM   10  C9  UNL     1      12.707 -19.712 -15.826  1.00  0.00     0.243 C 
HETATM   11  C10 UNL     1      11.051 -17.989 -15.214  1.00  0.00     0.126 C 
HETATM   12  O3  UNL     1      13.347 -19.418 -14.758  1.00  0.00    -0.271 OA
HETATM   13  C11 UNL     1       9.696 -18.433 -14.638  1.00  0.00     0.020 C 
HETATM   14  C12 UNL     1       9.396 -19.785 -15.256  1.00  0.00     0.004 C 
HETATM   15  C13 UNL     1       9.310 -19.655 -16.773  1.00  0.00     0.027 C 
BRANCH  10  16
HETATM   16  C8  UNL     1      13.310 -20.796 -16.647  1.00  0.00     0.181 C 
HETATM   17  N2  UNL     1      14.498 -21.386 -16.080  1.00  0.00    -0.330 N 
HETATM   18  C5  UNL     1      15.778 -20.945 -15.640  1.00  0.00     0.312 C 
HETATM   19  C6  UNL     1      13.859 -22.677 -16.119  1.00  0.00     0.130 C 
HETATM   20  O2  UNL     1      16.041 -19.711 -15.753  1.00  0.00    -0.262 OA
HETATM   21  C7  UNL     1      12.569 -22.085 -16.570  1.00  0.00     0.055 C 
BRANCH  18  22
HETATM   22  C4  UNL     1      16.767 -21.843 -15.078  1.00  0.00     0.309 C 
HETATM   23  N1  UNL     1      16.389 -22.972 -14.331  1.00  0.00    -0.349 N 
ATOM     24  H1  UNL     1      15.395 -23.152 -14.186  1.00  0.00     0.163 HD
HETATM   25  O1  UNL     1      17.982 -21.581 -15.281  1.00  0.00    -0.262 OA
BRANCH  23  26
HETATM   26  C3  UNL     1      17.346 -23.885 -13.761  1.00  0.00     0.149 C 
BRANCH  26  27
HETATM   27  C2  UNL     1      16.826 -24.619 -12.585  1.00  0.00    -0.018 C 
HETATM   28  C1  UNL     1      16.588 -25.921 -12.649  1.00  0.00     0.008 C 
ENDBRANCH  26  27
ENDBRANCH  23  26
ENDBRANCH  18  22
ENDBRANCH  10  16
ENDBRANCH   6   8
ENDBRANCH   1   6
BRANCH   5  29
HETATM   29  C21 UNL     1       7.848 -18.649 -19.063  1.00  0.00     0.172 C 
BRANCH  29  30
HETATM   30  N5  UNL     1       6.771 -17.869 -18.542  1.00  0.00    -0.265 N 
HETATM   31  C22 UNL     1       5.444 -18.123 -19.094  1.00  0.00     0.327 C 
HETATM   32  O4  UNL     1       5.301 -19.296 -19.569  1.00  0.00    -0.247 OA
HETATM   33  N6  UNL     1       4.341 -17.223 -19.146  1.00  0.00    -0.334 N 
HETATM   34  C25 UNL     1       4.282 -16.019 -18.378  1.00  0.00     0.135 C 
HETATM   35  C26 UNL     1       4.627 -16.124 -16.912  1.00  0.00     0.047 C 
HETATM   36  C29 UNL     1       6.015 -16.297 -16.547  1.00  0.00     0.144 C 
HETATM   37  C34 UNL     1       6.965 -16.886 -17.537  1.00  0.00     0.263 C 
HETATM   38  O6  UNL     1       8.130 -16.443 -17.475  1.00  0.00    -0.269 OA
BRANCH  33  39
HETATM   39  C23 UNL     1       3.300 -17.615 -20.058  1.00  0.00     0.123 C 
HETATM   40  C24 UNL     1       2.024 -18.063 -19.447  1.00  0.00     0.026 C 
ENDBRANCH  33  39
BRANCH  35  41
HETATM   41  C27 UNL     1       3.639 -17.179 -16.379  1.00  0.00     0.005 C 
HETATM   42  C28 UNL     1       2.562 -16.639 -15.490  1.00  0.00     0.005 C 
ENDBRANCH  35  41
BRANCH  36  43
HETATM   43  O5  UNL     1       6.084 -17.300 -15.503  1.00  0.00    -0.380 OA
ATOM     44  H5  UNL     1       5.239 -17.731 -15.453  1.00  0.00     0.211 HD
ENDBRANCH  36  43
BRANCH  36  45
HETATM   45  C30 UNL     1       6.743 -15.151 -15.911  1.00  0.00     0.052 C 
BRANCH  45  46
HETATM   46  C31 UNL     1       6.579 -14.869 -14.478  1.00  0.00    -0.019 C 
HETATM   47  C32 UNL     1       5.849 -13.470 -14.448  1.00  0.00     0.009 C 
HETATM   48  C33 UNL     1       7.868 -14.539 -13.721  1.00  0.00     0.009 C 
ENDBRANCH  45  46
ENDBRANCH  36  45
ENDBRANCH  29  30
ENDBRANCH   5  29
TORSDOF 13
ENDMDL
MODEL 4
REMARK VINA RESULT: -8.957152084      1.426      2.029
REMARK  13 active torsions:
REMARK  status: ('A' for Active; 'I' for Inactive)
REMARK    1  A    between atoms: C2_2  and  C3_3 
REMARK    2  A    between atoms: C3_3  and  N1_4 
REMARK       I    between atoms: N1_4  and  C4_6 
REMARK    3  A    between atoms: C4_6  and  C5_8 
REMARK       I    between atoms: C5_8  and  N2_10 
REMARK    4  A    between atoms: C8_13  and  C9_14 
REMARK       I    between atoms: C9_14  and  N3_16 
REMARK    5  A    between atoms: C14_21  and  C15_22 
REMARK    6  A    between atoms: C15_22  and  N4_24 
REMARK    7  A    between atoms: C20_28  and  C21_29 
REMARK    8  A    between atoms: C21_29  and  N5_30 
REMARK    9  A    between atoms: N6_33  and  C23_34 
REMARK   10  A    between atoms: C26_37  and  C27_38 
REMARK   11  A    between atoms: C29_40  and  O5_41 
REMARK   12  A    between atoms: C29_40  and  C30_43 
REMARK   13  A    between atoms: C30_43  and  C31_44 
ROOT
HETATM    1  N4  UNL     1      10.110 -18.595 -19.572  1.00  0.00     0.101 N 
HETATM    2  C17 UNL     1      10.093 -19.558 -20.614  1.00  0.00     0.273 C 
HETATM    3  C18 UNL     1       9.535 -18.779 -21.823  1.00  0.00     0.032 C 
HETATM    4  C19 UNL     1       8.933 -17.536 -21.203  1.00  0.00     0.039 C 
HETATM    5  C20 UNL     1       8.867 -17.838 -19.732  1.00  0.00     0.242 C 
ENDROOT
BRANCH   1   6
HETATM    6  C15 UNL     1      10.421 -18.973 -18.251  1.00  0.00     0.242 C 
HETATM    7  C16 UNL     1      11.184 -17.733 -17.679  1.00  0.00     0.045 C 
BRANCH   6   8
HETATM    8  C14 UNL     1      11.359 -20.167 -18.115  1.00  0.00     0.120 C 
HETATM    9  N3  UNL     1      11.776 -20.356 -16.713  1.00  0.00    -0.344 N 
HETATM   10  C9  UNL     1      13.108 -20.280 -16.280  1.00  0.00     0.243 C 
HETATM   11  C10 UNL     1      10.736 -20.676 -15.729  1.00  0.00     0.126 C 
HETATM   12  O3  UNL     1      13.385 -20.475 -15.047  1.00  0.00    -0.271 OA
HETATM   13  C11 UNL     1      10.101 -22.024 -16.110  1.00  0.00     0.020 C 
HETATM   14  C12 UNL     1      10.821 -22.493 -17.360  1.00  0.00     0.004 C 
HETATM   15  C13 UNL     1      10.628 -21.481 -18.483  1.00  0.00     0.027 C 
BRANCH  10  16
HETATM   16  C8  UNL     1      14.276 -19.984 -17.152  1.00  0.00     0.181 C 
HETATM   17  N2  UNL     1      14.928 -21.150 -17.695  1.00  0.00    -0.330 N 
HETATM   18  C5  UNL     1      15.542 -22.334 -17.197  1.00  0.00     0.312 C 
HETATM   19  C6  UNL     1      14.702 -20.641 -19.024  1.00  0.00     0.130 C 
HETATM   20  O2  UNL     1      15.589 -22.483 -15.940  1.00  0.00    -0.262 OA
HETATM   21  C7  UNL     1      13.900 -19.497 -18.508  1.00  0.00     0.055 C 
BRANCH  18  22
HETATM   22  C4  UNL     1      16.102 -23.353 -18.063  1.00  0.00     0.309 C 
HETATM   23  N1  UNL     1      15.341 -24.458 -18.477  1.00  0.00    -0.349 N 
ATOM     24  H1  UNL     1      14.377 -24.537 -18.155  1.00  0.00     0.163 HD
HETATM   25  O1  UNL     1      17.298 -23.215 -18.435  1.00  0.00    -0.262 OA
BRANCH  23  26
HETATM   26  C3  UNL     1      15.866 -25.486 -19.340  1.00  0.00     0.149 C 
BRANCH  26  27
HETATM   27  C2  UNL     1      15.665 -25.201 -20.778  1.00  0.00    -0.018 C 
HETATM   28  C1  UNL     1      16.699 -24.969 -21.575  1.00  0.00     0.008 C 
ENDBRANCH  26  27
ENDBRANCH  23  26
ENDBRANCH  18  22
ENDBRANCH  10  16
ENDBRANCH   6   8
ENDBRANCH   1   6
BRANCH   5  29
HETATM   29  C21 UNL     1       7.677 -18.606 -19.288  1.00  0.00     0.172 C 
BRANCH  29  30
HETATM   30  N5  UNL     1       6.646 -17.874 -18.623  1.00  0.00    -0.265 N 
HETATM   31  C22 UNL     1       5.280 -18.084 -19.091  1.00  0.00     0.327 C 
HETATM   32  O4  UNL     1       5.095 -19.213 -19.649  1.00  0.00    -0.247 OA
HETATM   33  N6  UNL     1       4.179 -17.184 -18.984  1.00  0.00    -0.334 N 
HETATM   34  C25 UNL     1       4.186 -16.048 -18.117  1.00  0.00     0.135 C 
HETATM   35  C26 UNL     1       4.642 -16.274 -16.695  1.00  0.00     0.047 C 
HETATM   36  C29 UNL     1       6.053 -16.473 -16.453  1.00  0.00     0.144 C 
HETATM   37  C34 UNL     1       6.921 -16.976 -17.559  1.00  0.00     0.263 C 
HETATM   38  O6  UNL     1       8.090 -16.537 -17.550  1.00  0.00    -0.269 OA
BRANCH  33  39
HETATM   39  C23 UNL     1       3.070 -17.502 -19.842  1.00  0.00     0.123 C 
HETATM   40  C24 UNL     1       1.731 -17.532 -19.202  1.00  0.00     0.026 C 
ENDBRANCH  33  39
BRANCH  35  41
HETATM   41  C27 UNL     1       3.693 -17.371 -16.176  1.00  0.00     0.005 C 
HETATM   42  C28 UNL     1       2.417 -16.867 -15.578  1.00  0.00     0.005 C 
ENDBRANCH  35  41
BRANCH  36  43
HETATM   43  O5  UNL     1       6.198 -17.559 -15.504  1.00  0.00    -0.380 OA
ATOM     44  H5  UNL     1       6.977 -18.051 -15.737  1.00  0.00     0.211 HD
ENDBRANCH  36  43
BRANCH  36  45
HETATM   45  C30 UNL     1       6.832 -15.382 -15.783  1.00  0.00     0.052 C 
BRANCH  45  46
HETATM   46  C31 UNL     1       7.420 -15.596 -14.453  1.00  0.00    -0.019 C 
HETATM   47  C32 UNL     1       7.266 -14.197 -13.740  1.00  0.00     0.009 C 
HETATM   48  C33 UNL     1       8.941 -15.767 -14.427  1.00  0.00     0.009 C 
ENDBRANCH  45  46
ENDBRANCH  36  45
ENDBRANCH  29  30
ENDBRANCH   5  29
TORSDOF 13
ENDMDL
MODEL 5
REMARK VINA RESULT: -8.920069279      2.205      9.806
REMARK  13 active torsions:
REMARK  status: ('A' for Active; 'I' for Inactive)
REMARK    1  A    between atoms: C2_2  and  C3_3 
REMARK    2  A    between atoms: C3_3  and  N1_4 
REMARK       I    between atoms: N1_4  and  C4_6 
REMARK    3  A    between atoms: C4_6  and  C5_8 
REMARK       I    between atoms: C5_8  and  N2_10 
REMARK    4  A    between atoms: C8_13  and  C9_14 
REMARK       I    between atoms: C9_14  and  N3_16 
REMARK    5  A    between atoms: C14_21  and  C15_22 
REMARK    6  A    between atoms: C15_22  and  N4_24 
REMARK    7  A    between atoms: C20_28  and  C21_29 
REMARK    8  A    between atoms: C21_29  and  N5_30 
REMARK    9  A    between atoms: N6_33  and  C23_34 
REMARK   10  A    between atoms: C26_37  and  C27_38 
REMARK   11  A    between atoms: C29_40  and  O5_41 
REMARK   12  A    between atoms: C29_40  and  C30_43 
REMARK   13  A    between atoms: C30_43  and  C31_44 
ROOT
HETATM    1  N4  UNL     1      10.416 -19.472 -18.486  1.00  0.00     0.101 N 
HETATM    2  C17 UNL     1      10.461 -18.321 -19.314  1.00  0.00     0.273 C 
HETATM    3  C18 UNL     1      10.357 -18.892 -20.743  1.00  0.00     0.032 C 
HETATM    4  C19 UNL     1      10.653 -20.366 -20.563  1.00  0.00     0.039 C 
HETATM    5  C20 UNL     1      11.231 -20.472 -19.179  1.00  0.00     0.242 C 
ENDROOT
BRANCH   1   6
HETATM    6  C15 UNL     1      10.639 -19.369 -17.100  1.00  0.00     0.242 C 
HETATM    7  C16 UNL     1       9.470 -20.196 -16.472  1.00  0.00     0.045 C 
BRANCH   6   8
HETATM    8  C14 UNL     1      10.539 -17.961 -16.523  1.00  0.00     0.120 C 
HETATM    9  N3  UNL     1       9.498 -17.887 -15.481  1.00  0.00    -0.344 N 
HETATM   10  C9  UNL     1       8.364 -17.066 -15.571  1.00  0.00     0.243 C 
HETATM   11  C10 UNL     1       9.685 -18.695 -14.272  1.00  0.00     0.126 C 
HETATM   12  O3  UNL     1       7.518 -17.048 -14.612  1.00  0.00    -0.271 OA
HETATM   13  C11 UNL     1      10.958 -18.216 -13.555  1.00  0.00     0.020 C 
HETATM   14  C12 UNL     1      11.511 -17.077 -14.391  1.00  0.00     0.004 C 
HETATM   15  C13 UNL     1      11.848 -17.576 -15.792  1.00  0.00     0.027 C 
BRANCH  10  16
HETATM   16  C8  UNL     1       8.040 -16.176 -16.718  1.00  0.00     0.181 C 
HETATM   17  N2  UNL     1       6.910 -16.604 -17.506  1.00  0.00    -0.330 N 
HETATM   18  C5  UNL     1       6.522 -17.762 -18.236  1.00  0.00     0.312 C 
HETATM   19  C6  UNL     1       6.271 -15.337 -17.254  1.00  0.00     0.130 C 
HETATM   20  O2  UNL     1       7.338 -18.731 -18.272  1.00  0.00    -0.262 OA
HETATM   21  C7  UNL     1       7.352 -14.917 -16.320  1.00  0.00     0.055 C 
BRANCH  18  22
HETATM   22  C4  UNL     1       5.250 -17.868 -18.924  1.00  0.00     0.309 C 
HETATM   23  N1  UNL     1       4.115 -18.395 -18.285  1.00  0.00    -0.349 N 
ATOM     24  H1  UNL     1       4.200 -18.709 -17.318  1.00  0.00     0.163 HD
HETATM   25  O1  UNL     1       5.192 -17.469 -20.118  1.00  0.00    -0.262 OA
BRANCH  23  26
HETATM   26  C3  UNL     1       2.837 -18.511 -18.939  1.00  0.00     0.149 C 
BRANCH  26  27
HETATM   27  C2  UNL     1       2.517 -19.895 -19.355  1.00  0.00    -0.018 C 
HETATM   28  C1  UNL     1       3.244 -20.917 -18.926  1.00  0.00     0.008 C 
ENDBRANCH  26  27
ENDBRANCH  23  26
ENDBRANCH  18  22
ENDBRANCH  10  16
ENDBRANCH   6   8
ENDBRANCH   1   6
BRANCH   5  29
HETATM   29  C21 UNL     1      12.684 -20.192 -19.069  1.00  0.00     0.172 C 
BRANCH  29  30
HETATM   30  N5  UNL     1      13.530 -21.291 -18.726  1.00  0.00    -0.265 N 
HETATM   31  C22 UNL     1      13.950 -22.167 -19.815  1.00  0.00     0.327 C 
HETATM   32  O4  UNL     1      13.955 -21.602 -20.956  1.00  0.00    -0.247 OA
HETATM   33  N6  UNL     1      14.340 -23.535 -19.726  1.00  0.00    -0.334 N 
HETATM   34  C25 UNL     1      14.672 -24.170 -18.488  1.00  0.00     0.135 C 
HETATM   35  C26 UNL     1      15.623 -23.434 -17.575  1.00  0.00     0.047 C 
HETATM   36  C29 UNL     1      15.127 -22.281 -16.858  1.00  0.00     0.144 C 
HETATM   37  C34 UNL     1      13.949 -21.537 -17.393  1.00  0.00     0.263 C 
HETATM   38  O6  UNL     1      13.201 -21.042 -16.524  1.00  0.00    -0.269 OA
BRANCH  33  39
HETATM   39  C23 UNL     1      14.348 -24.231 -20.984  1.00  0.00     0.123 C 
HETATM   40  C24 UNL     1      15.643 -24.829 -21.398  1.00  0.00     0.026 C 
ENDBRANCH  33  39
BRANCH  35  41
HETATM   41  C27 UNL     1      16.874 -23.217 -18.447  1.00  0.00     0.005 C 
HETATM   42  C28 UNL     1      17.866 -24.336 -18.413  1.00  0.00     0.005 C 
ENDBRANCH  35  41
BRANCH  36  43
HETATM   43  O5  UNL     1      16.135 -21.242 -16.925  1.00  0.00    -0.380 OA
ATOM     44  H5  UNL     1      16.925 -21.622 -17.292  1.00  0.00     0.211 HD
ENDBRANCH  36  43
BRANCH  36  45
HETATM   45  C30 UNL     1      14.908 -22.390 -15.378  1.00  0.00     0.052 C 
BRANCH  45  46
HETATM   46  C31 UNL     1      15.599 -23.427 -14.598  1.00  0.00    -0.019 C 
HETATM   47  C32 UNL     1      14.795 -23.478 -13.241  1.00  0.00     0.009 C 
HETATM   48  C33 UNL     1      16.993 -23.049 -14.093  1.00  0.00     0.009 C 
ENDBRANCH  45  46
ENDBRANCH  36  45
ENDBRANCH  29  30
ENDBRANCH   5  29
TORSDOF 13
ENDMDL
