MODEL 1
REMARK VINA RESULT: -9.183241470      0.000      0.000
REMARK  13 active torsions:
REMARK  status: ('A' for Active; 'I' for Inactive)
REMARK    1  A    between atoms: N1_2  and  C2_4 
REMARK    2  A    between atoms: C2_4  and  N2_6 
REMARK    3  A    between atoms: C4_8  and  C5_9 
REMARK    4  A    between atoms: C5_9  and  N3_10 
REMARK    5  A    between atoms: C10_15  and  C11_16 
REMARK       I    between atoms: C11_16  and  N4_18 
REMARK    6  A    between atoms: N5_21  and  C14_22 
REMARK    7  A    between atoms: C14_22  and  C15_23 
REMARK    8  A    between atoms: C15_23  and  C16_24 
REMARK    9  A    between atoms: C16_24  and  C17_25 
REMARK   10  A    between atoms: C17_25  and  C18_26 
REMARK       I    between atoms: C18_26  and  N6_28 
REMARK   11  A    between atoms: C22_35  and  C23_36 
REMARK   12  A    between atoms: C23_36  and  C24_37 
REMARK       I    between atoms: C24_37  and  N8_39 
REMARK   13  A    between atoms: N8_39  and  C25_41 
ROOT
HETATM    1  C14 UNL     1      10.968 -20.426 -19.824  1.00  0.00     0.272 C 
ENDROOT
BRANCH   1   2
HETATM    2  N5  UNL     1      10.520 -19.076 -20.108  1.00  0.00     0.091 N 
HETATM    3  C13 UNL     1       9.784 -19.027 -21.348  1.00  0.00     0.292 C 
HETATM    4  C12 UNL     1       8.590 -18.105 -21.322  1.00  0.00     0.156 C 
HETATM    5  N4  UNL     1       7.742 -18.475 -20.214  1.00  0.00    -0.347 N 
HETATM    6  C11 UNL     1       6.354 -18.203 -20.221  1.00  0.00     0.242 C 
HETATM    7  C32 UNL     1       8.358 -19.136 -19.092  1.00  0.00     0.156 C 
HETATM    8  O1  UNL     1       5.828 -17.626 -21.234  1.00  0.00    -0.271 OA
HETATM    9  C31 UNL     1       9.766 -18.592 -18.980  1.00  0.00     0.292 C 
BRANCH   6  10
HETATM   10  C10 UNL     1       5.445 -18.542 -19.121  1.00  0.00     0.179 C 
HETATM   11  N2  UNL     1       5.284 -17.427 -18.187  1.00  0.00    -0.344 N 
HETATM   12  C3  UNL     1       3.996 -16.803 -18.406  1.00  0.00     0.132 C 
HETATM   13  C4  UNL     1       3.392 -17.477 -19.601  1.00  0.00     0.032 C 
HETATM   14  C9  UNL     1       4.043 -18.849 -19.507  1.00  0.00     0.043 C 
BRANCH  11  15
HETATM   15  C2  UNL     1       6.217 -16.982 -17.210  1.00  0.00     0.170 C 
HETATM   16  S1  UNL     1       7.249 -15.772 -17.549  1.00  0.00    -0.041 SA
BRANCH  15  17
HETATM   17  N1  UNL     1       6.263 -17.577 -15.936  1.00  0.00    -0.371 N 
HETATM   18  C1  UNL     1       7.402 -17.387 -15.085  1.00  0.00     0.148 C 
ATOM     19  H1  UNL     1       5.482 -18.149 -15.616  1.00  0.00     0.161 HD
ENDBRANCH  15  17
ENDBRANCH  11  15
BRANCH  13  20
HETATM   20  C5  UNL     1       1.912 -17.719 -19.478  1.00  0.00     0.242 C 
BRANCH  20  21
HETATM   21  N3  UNL     1       1.147 -17.533 -20.657  1.00  0.00    -0.078 N 
HETATM   22  C6  UNL     1       1.920 -16.675 -21.563  1.00  0.00     0.271 C 
HETATM   23  C7  UNL     1      -0.038 -16.744 -20.283  1.00  0.00     0.271 C 
HETATM   24  C8  UNL     1       0.682 -18.717 -21.305  1.00  0.00     0.271 C 
ENDBRANCH  20  21
ENDBRANCH  13  20
ENDBRANCH   6  10
ENDBRANCH   1   2
BRANCH   1  25
HETATM   25  C15 UNL     1      10.594 -21.367 -20.965  1.00  0.00     0.031 C 
BRANCH  25  26
HETATM   26  C16 UNL     1      11.757 -22.300 -21.159  1.00  0.00     0.011 C 
BRANCH  26  27
HETATM   27  C17 UNL     1      12.974 -21.676 -20.465  1.00  0.00     0.103 C 
BRANCH  27  28
HETATM   28  C18 UNL     1      14.058 -22.658 -20.306  1.00  0.00     0.220 C 
HETATM   29  O2  UNL     1      14.585 -23.189 -21.346  1.00  0.00    -0.273 OA
HETATM   30  N6  UNL     1      14.538 -23.032 -19.029  1.00  0.00    -0.337 N 
HETATM   31  C19 UNL     1      15.667 -23.975 -19.044  1.00  0.00     0.146 C 
HETATM   32  C22 UNL     1      14.047 -22.543 -17.805  1.00  0.00     0.188 C 
HETATM   33  C20 UNL     1      16.762 -23.312 -18.201  1.00  0.00     0.142 C 
HETATM   34  N7  UNL     1      16.226 -23.319 -16.842  1.00  0.00    -0.358 N 
HETATM   35  C21 UNL     1      14.960 -22.757 -16.642  1.00  0.00     0.241 C 
ATOM     36  H7  UNL     1      16.754 -23.719 -16.067  1.00  0.00     0.162 HD
HETATM   37  O3  UNL     1      14.559 -22.419 -15.511  1.00  0.00    -0.271 OA
BRANCH  32  38
HETATM   38  C23 UNL     1      12.646 -22.866 -17.482  1.00  0.00     0.138 C 
BRANCH  38  39
HETATM   39  C24 UNL     1      11.866 -21.935 -16.669  1.00  0.00     0.220 C 
HETATM   40  O4  UNL     1      10.704 -22.117 -16.285  1.00  0.00    -0.274 OA
HETATM   41  N8  UNL     1      12.490 -20.689 -16.274  1.00  0.00    -0.356 N 
ATOM     42  H8  UNL     1      13.447 -20.474 -16.557  1.00  0.00     0.162 HD
BRANCH  41  43
HETATM   43  C25 UNL     1      11.737 -19.760 -15.474  1.00  0.00     0.084 C 
HETATM   44  C26 UNL     1      12.069 -19.878 -14.017  1.00  0.00     0.025 C 
HETATM   45  C27 UNL     1      12.347 -18.533 -13.404  1.00  0.00     0.002 C 
HETATM   46  C28 UNL     1      11.211 -17.604 -13.824  1.00  0.00     0.000 C 
HETATM   47  C29 UNL     1      11.193 -17.389 -15.311  1.00  0.00     0.002 C 
HETATM   48  C30 UNL     1      12.121 -18.364 -15.995  1.00  0.00     0.025 C 
ENDBRANCH  41  43
ENDBRANCH  38  39
ENDBRANCH  32  38
ENDBRANCH  27  28
ENDBRANCH  26  27
ENDBRANCH  25  26
ENDBRANCH   1  25
TORSDOF 13
ENDMDL
MODEL 2
REMARK VINA RESULT: -9.132642687      1.133      1.539
REMARK  13 active torsions:
REMARK  status: ('A' for Active; 'I' for Inactive)
REMARK    1  A    between atoms: N1_2  and  C2_4 
REMARK    2  A    between atoms: C2_4  and  N2_6 
REMARK    3  A    between atoms: C4_8  and  C5_9 
REMARK    4  A    between atoms: C5_9  and  N3_10 
REMARK    5  A    between atoms: C10_15  and  C11_16 
REMARK       I    between atoms: C11_16  and  N4_18 
REMARK    6  A    between atoms: N5_21  and  C14_22 
REMARK    7  A    between atoms: C14_22  and  C15_23 
REMARK    8  A    between atoms: C15_23  and  C16_24 
REMARK    9  A    between atoms: C16_24  and  C17_25 
REMARK   10  A    between atoms: C17_25  and  C18_26 
REMARK       I    between atoms: C18_26  and  N6_28 
REMARK   11  A    between atoms: C22_35  and  C23_36 
REMARK   12  A    between atoms: C23_36  and  C24_37 
REMARK       I    between atoms: C24_37  and  N8_39 
REMARK   13  A    between atoms: N8_39  and  C25_41 
ROOT
HETATM    1  C14 UNL     1      11.246 -20.543 -19.341  1.00  0.00     0.272 C 
ENDROOT
BRANCH   1   2
HETATM    2  N5  UNL     1      10.828 -19.214 -19.745  1.00  0.00     0.091 N 
HETATM    3  C13 UNL     1      10.187 -19.246 -21.037  1.00  0.00     0.292 C 
HETATM    4  C12 UNL     1       8.999 -18.322 -21.160  1.00  0.00     0.156 C 
HETATM    5  N4  UNL     1       8.069 -18.618 -20.096  1.00  0.00    -0.347 N 
HETATM    6  C11 UNL     1       6.687 -18.345 -20.224  1.00  0.00     0.242 C 
HETATM    7  C32 UNL     1       8.597 -19.204 -18.891  1.00  0.00     0.156 C 
HETATM    8  O1  UNL     1       6.241 -17.835 -21.309  1.00  0.00    -0.271 OA
HETATM    9  C31 UNL     1       9.996 -18.656 -18.710  1.00  0.00     0.292 C 
BRANCH   6  10
HETATM   10  C10 UNL     1       5.697 -18.610 -19.174  1.00  0.00     0.179 C 
HETATM   11  N2  UNL     1       5.498 -17.445 -18.311  1.00  0.00    -0.344 N 
HETATM   12  C3  UNL     1       4.242 -16.809 -18.650  1.00  0.00     0.132 C 
HETATM   13  C4  UNL     1       3.707 -17.532 -19.849  1.00  0.00     0.032 C 
HETATM   14  C9  UNL     1       4.318 -18.909 -19.642  1.00  0.00     0.043 C 
BRANCH  11  15
HETATM   15  C2  UNL     1       6.371 -16.968 -17.294  1.00  0.00     0.170 C 
HETATM   16  S1  UNL     1       7.388 -15.736 -17.595  1.00  0.00    -0.041 SA
BRANCH  15  17
HETATM   17  N1  UNL     1       6.371 -17.551 -16.014  1.00  0.00    -0.371 N 
HETATM   18  C1  UNL     1       7.262 -17.073 -14.996  1.00  0.00     0.148 C 
ATOM     19  H1  UNL     1       5.732 -18.320 -15.808  1.00  0.00     0.161 HD
ENDBRANCH  15  17
ENDBRANCH  11  15
BRANCH  13  20
HETATM   20  C5  UNL     1       2.217 -17.739 -19.817  1.00  0.00     0.242 C 
BRANCH  20  21
HETATM   21  N3  UNL     1       1.511 -17.387 -20.995  1.00  0.00    -0.078 N 
HETATM   22  C6  UNL     1       0.234 -16.787 -20.590  1.00  0.00     0.271 C 
HETATM   23  C7  UNL     1       1.157 -18.641 -21.679  1.00  0.00     0.271 C 
HETATM   24  C8  UNL     1       2.212 -16.573 -21.936  1.00  0.00     0.271 C 
ENDBRANCH  20  21
ENDBRANCH  13  20
ENDBRANCH   6  10
ENDBRANCH   1   2
BRANCH   1  25
HETATM   25  C15 UNL     1      11.223 -21.498 -20.531  1.00  0.00     0.031 C 
BRANCH  25  26
HETATM   26  C16 UNL     1      12.644 -21.640 -21.002  1.00  0.00     0.011 C 
BRANCH  26  27
HETATM   27  C17 UNL     1      13.520 -21.889 -19.768  1.00  0.00     0.103 C 
BRANCH  27  28
HETATM   28  C18 UNL     1      14.276 -23.145 -19.896  1.00  0.00     0.220 C 
HETATM   29  O2  UNL     1      14.068 -23.906 -20.905  1.00  0.00    -0.273 OA
HETATM   30  N6  UNL     1      15.231 -23.537 -18.929  1.00  0.00    -0.337 N 
HETATM   31  C19 UNL     1      15.946 -24.786 -19.236  1.00  0.00     0.146 C 
HETATM   32  C22 UNL     1      15.552 -22.811 -17.768  1.00  0.00     0.188 C 
HETATM   33  C20 UNL     1      17.435 -24.430 -19.164  1.00  0.00     0.142 C 
HETATM   34  N7  UNL     1      17.671 -24.147 -17.750  1.00  0.00    -0.358 N 
HETATM   35  C21 UNL     1      16.848 -23.198 -17.134  1.00  0.00     0.241 C 
ATOM     36  H7  UNL     1      18.409 -24.623 -17.232  1.00  0.00     0.162 HD
HETATM   37  O3  UNL     1      17.162 -22.651 -16.059  1.00  0.00    -0.271 OA
BRANCH  32  38
HETATM   38  C23 UNL     1      14.474 -22.644 -16.777  1.00  0.00     0.138 C 
BRANCH  38  39
HETATM   39  C24 UNL     1      14.172 -21.308 -16.267  1.00  0.00     0.220 C 
HETATM   40  O4  UNL     1      14.770 -20.270 -16.577  1.00  0.00    -0.274 OA
HETATM   41  N8  UNL     1      13.087 -21.171 -15.317  1.00  0.00    -0.356 N 
ATOM     42  H8  UNL     1      12.553 -21.987 -15.017  1.00  0.00     0.162 HD
BRANCH  41  43
HETATM   43  C25 UNL     1      12.777 -19.862 -14.805  1.00  0.00     0.084 C 
HETATM   44  C26 UNL     1      11.623 -19.237 -15.529  1.00  0.00     0.025 C 
HETATM   45  C27 UNL     1      10.604 -18.684 -14.571  1.00  0.00     0.002 C 
HETATM   46  C28 UNL     1      11.362 -17.851 -13.540  1.00  0.00     0.000 C 
HETATM   47  C29 UNL     1      12.292 -18.699 -12.719  1.00  0.00     0.002 C 
HETATM   48  C30 UNL     1      12.421 -20.076 -13.323  1.00  0.00     0.025 C 
ENDBRANCH  41  43
ENDBRANCH  38  39
ENDBRANCH  32  38
ENDBRANCH  27  28
ENDBRANCH  26  27
ENDBRANCH  25  26
ENDBRANCH   1  25
TORSDOF 13
ENDMDL
MODEL 3
REMARK VINA RESULT: -9.058248539      2.152      4.496
REMARK  13 active torsions:
REMARK  status: ('A' for Active; 'I' for Inactive)
REMARK    1  A    between atoms: N1_2  and  C2_4 
REMARK    2  A    between atoms: C2_4  and  N2_6 
REMARK    3  A    between atoms: C4_8  and  C5_9 
REMARK    4  A    between atoms: C5_9  and  N3_10 
REMARK    5  A    between atoms: C10_15  and  C11_16 
REMARK       I    between atoms: C11_16  and  N4_18 
REMARK    6  A    between atoms: N5_21  and  C14_22 
REMARK    7  A    between atoms: C14_22  and  C15_23 
REMARK    8  A    between atoms: C15_23  and  C16_24 
REMARK    9  A    between atoms: C16_24  and  C17_25 
REMARK   10  A    between atoms: C17_25  and  C18_26 
REMARK       I    between atoms: C18_26  and  N6_28 
REMARK   11  A    between atoms: C22_35  and  C23_36 
REMARK   12  A    between atoms: C23_36  and  C24_37 
REMARK       I    between atoms: C24_37  and  N8_39 
REMARK   13  A    between atoms: N8_39  and  C25_41 
ROOT
HETATM    1  C14 UNL     1      10.688 -19.348 -14.780  1.00  0.00     0.272 C 
ENDROOT
BRANCH   1   2
HETATM    2  N5  UNL     1      10.661 -17.926 -15.066  1.00  0.00     0.091 N 
HETATM    3  C13 UNL     1      10.449 -17.688 -16.473  1.00  0.00     0.292 C 
HETATM    4  C12 UNL     1       9.544 -16.518 -16.773  1.00  0.00     0.156 C 
HETATM    5  N4  UNL     1       8.296 -16.706 -16.071  1.00  0.00    -0.347 N 
HETATM    6  C11 UNL     1       7.092 -16.124 -16.532  1.00  0.00     0.242 C 
HETATM    7  C32 UNL     1       8.316 -17.510 -14.876  1.00  0.00     0.156 C 
HETATM    8  O1  UNL     1       7.098 -15.424 -17.603  1.00  0.00    -0.271 OA
HETATM    9  C31 UNL     1       9.668 -17.304 -14.228  1.00  0.00     0.292 C 
BRANCH   6  10
HETATM   10  C10 UNL     1       5.799 -16.267 -15.856  1.00  0.00     0.179 C 
HETATM   11  N2  UNL     1       4.877 -15.189 -16.215  1.00  0.00    -0.344 N 
HETATM   12  C3  UNL     1       3.891 -15.695 -17.147  1.00  0.00     0.132 C 
HETATM   13  C4  UNL     1       4.292 -17.102 -17.472  1.00  0.00     0.032 C 
HETATM   14  C9  UNL     1       5.020 -17.488 -16.193  1.00  0.00     0.043 C 
BRANCH  11  15
HETATM   15  C2  UNL     1       4.908 -13.842 -15.758  1.00  0.00     0.170 C 
HETATM   16  S1  UNL     1       5.869 -13.417 -14.517  1.00  0.00    -0.041 SA
BRANCH  15  17
HETATM   17  N1  UNL     1       4.111 -12.857 -16.368  1.00  0.00    -0.371 N 
HETATM   18  C1  UNL     1       3.750 -11.667 -15.653  1.00  0.00     0.148 C 
ATOM     19  H1  UNL     1       3.786 -12.990 -17.326  1.00  0.00     0.161 HD
ENDBRANCH  15  17
ENDBRANCH  11  15
BRANCH  13  20
HETATM   20  C5  UNL     1       3.131 -18.054 -17.581  1.00  0.00     0.242 C 
BRANCH  20  21
HETATM   21  N3  UNL     1       2.855 -18.557 -18.877  1.00  0.00    -0.078 N 
HETATM   22  C6  UNL     1       1.431 -18.331 -19.153  1.00  0.00     0.271 C 
HETATM   23  C7  UNL     1       3.016 -20.019 -18.817  1.00  0.00     0.271 C 
HETATM   24  C8  UNL     1       3.689 -18.082 -19.934  1.00  0.00     0.271 C 
ENDBRANCH  20  21
ENDBRANCH  13  20
ENDBRANCH   6  10
ENDBRANCH   1   2
BRANCH   1  25
HETATM   25  C15 UNL     1      10.883 -20.151 -16.062  1.00  0.00     0.031 C 
BRANCH  25  26
HETATM   26  C16 UNL     1      11.974 -21.149 -15.788  1.00  0.00     0.011 C 
BRANCH  26  27
HETATM   27  C17 UNL     1      12.223 -21.932 -17.083  1.00  0.00     0.103 C 
BRANCH  27  28
HETATM   28  C18 UNL     1      13.610 -22.420 -17.150  1.00  0.00     0.220 C 
HETATM   29  O2  UNL     1      14.308 -22.488 -16.079  1.00  0.00    -0.273 OA
HETATM   30  N6  UNL     1      14.196 -22.820 -18.374  1.00  0.00    -0.337 N 
HETATM   31  C19 UNL     1      15.566 -23.345 -18.263  1.00  0.00     0.146 C 
HETATM   32  C22 UNL     1      13.556 -22.787 -19.627  1.00  0.00     0.188 C 
HETATM   33  C20 UNL     1      15.531 -24.721 -18.936  1.00  0.00     0.142 C 
HETATM   34  N7  UNL     1      15.306 -24.428 -20.349  1.00  0.00    -0.358 N 
HETATM   35  C21 UNL     1      14.207 -23.626 -20.677  1.00  0.00     0.241 C 
ATOM     36  H7  UNL     1      15.928 -24.793 -21.070  1.00  0.00     0.162 HD
HETATM   37  O3  UNL     1      13.741 -23.586 -21.832  1.00  0.00    -0.271 OA
BRANCH  32  38
HETATM   38  C23 UNL     1      13.169 -21.458 -20.133  1.00  0.00     0.138 C 
BRANCH  38  39
HETATM   39  C24 UNL     1      11.770 -21.199 -20.464  1.00  0.00     0.220 C 
HETATM   40  O4  UNL     1      11.023 -21.971 -21.079  1.00  0.00    -0.274 OA
HETATM   41  N8  UNL     1      11.194 -19.937 -20.048  1.00  0.00    -0.356 N 
ATOM     42  H8  UNL     1      11.754 -19.253 -19.538  1.00  0.00     0.162 HD
BRANCH  41  43
HETATM   43  C25 UNL     1       9.817 -19.665 -20.367  1.00  0.00     0.084 C 
HETATM   44  C26 UNL     1       8.908 -19.955 -19.210  1.00  0.00     0.025 C 
HETATM   45  C27 UNL     1       7.962 -18.814 -18.954  1.00  0.00     0.002 C 
HETATM   46  C28 UNL     1       7.343 -18.432 -20.296  1.00  0.00     0.000 C 
HETATM   47  C29 UNL     1       8.377 -17.910 -21.253  1.00  0.00     0.002 C 
HETATM   48  C30 UNL     1       9.766 -18.169 -20.721  1.00  0.00     0.025 C 
ENDBRANCH  41  43
ENDBRANCH  38  39
ENDBRANCH  32  38
ENDBRANCH  27  28
ENDBRANCH  26  27
ENDBRANCH  25  26
ENDBRANCH   1  25
TORSDOF 13
ENDMDL
MODEL 4
REMARK VINA RESULT: -9.055621110      2.963     10.458
REMARK  13 active torsions:
REMARK  status: ('A' for Active; 'I' for Inactive)
REMARK    1  A    between atoms: N1_2  and  C2_4 
REMARK    2  A    between atoms: C2_4  and  N2_6 
REMARK    3  A    between atoms: C4_8  and  C5_9 
REMARK    4  A    between atoms: C5_9  and  N3_10 
REMARK    5  A    between atoms: C10_15  and  C11_16 
REMARK       I    between atoms: C11_16  and  N4_18 
REMARK    6  A    between atoms: N5_21  and  C14_22 
REMARK    7  A    between atoms: C14_22  and  C15_23 
REMARK    8  A    between atoms: C15_23  and  C16_24 
REMARK    9  A    between atoms: C16_24  and  C17_25 
REMARK   10  A    between atoms: C17_25  and  C18_26 
REMARK       I    between atoms: C18_26  and  N6_28 
REMARK   11  A    between atoms: C22_35  and  C23_36 
REMARK   12  A    between atoms: C23_36  and  C24_37 
REMARK       I    between atoms: C24_37  and  N8_39 
REMARK   13  A    between atoms: N8_39  and  C25_41 
ROOT
HETATM    1  C14 UNL     1       9.507 -16.472 -15.056  1.00  0.00     0.272 C 
ENDROOT
BRANCH   1   2
HETATM    2  N5  UNL     1      10.330 -17.327 -14.220  1.00  0.00     0.091 N 
HETATM    3  C13 UNL     1       9.931 -18.707 -14.343  1.00  0.00     0.292 C 
HETATM    4  C12 UNL     1      11.081 -19.685 -14.352  1.00  0.00     0.156 C 
HETATM    5  N4  UNL     1      12.006 -19.303 -15.393  1.00  0.00    -0.347 N 
HETATM    6  C11 UNL     1      12.856 -20.249 -16.010  1.00  0.00     0.242 C 
HETATM    7  C32 UNL     1      12.036 -17.918 -15.785  1.00  0.00     0.156 C 
HETATM    8  O1  UNL     1      12.803 -21.476 -15.653  1.00  0.00    -0.271 OA
HETATM    9  C31 UNL     1      11.714 -17.103 -14.551  1.00  0.00     0.292 C 
BRANCH   6  10
HETATM   10  C10 UNL     1      13.825 -19.920 -17.061  1.00  0.00     0.179 C 
HETATM   11  N2  UNL     1      14.988 -20.808 -17.025  1.00  0.00    -0.344 N 
HETATM   12  C3  UNL     1      14.887 -21.770 -18.102  1.00  0.00     0.132 C 
HETATM   13  C4  UNL     1      13.554 -21.548 -18.750  1.00  0.00     0.032 C 
HETATM   14  C9  UNL     1      13.344 -20.070 -18.459  1.00  0.00     0.043 C 
BRANCH  11  15
HETATM   15  C2  UNL     1      16.064 -20.778 -16.096  1.00  0.00     0.170 C 
HETATM   16  S1  UNL     1      16.317 -19.464 -15.171  1.00  0.00    -0.041 SA
BRANCH  15  17
HETATM   17  N1  UNL     1      16.928 -21.880 -15.960  1.00  0.00    -0.371 N 
HETATM   18  C1  UNL     1      16.751 -22.816 -14.888  1.00  0.00     0.148 C 
ATOM     19  H1  UNL     1      17.687 -22.013 -16.629  1.00  0.00     0.161 HD
ENDBRANCH  15  17
ENDBRANCH  11  15
BRANCH  13  20
HETATM   20  C5  UNL     1      13.581 -21.668 -20.250  1.00  0.00     0.242 C 
BRANCH  20  21
HETATM   21  N3  UNL     1      12.946 -22.811 -20.798  1.00  0.00    -0.078 N 
HETATM   22  C6  UNL     1      12.427 -23.613 -19.684  1.00  0.00     0.271 C 
HETATM   23  C7  UNL     1      13.997 -23.633 -21.420  1.00  0.00     0.271 C 
HETATM   24  C8  UNL     1      11.952 -22.568 -21.795  1.00  0.00     0.271 C 
ENDBRANCH  20  21
ENDBRANCH  13  20
ENDBRANCH   6  10
ENDBRANCH   1   2
BRANCH   1  25
HETATM   25  C15 UNL     1       8.154 -16.221 -14.398  1.00  0.00     0.031 C 
BRANCH  25  26
HETATM   26  C16 UNL     1       8.027 -14.734 -14.218  1.00  0.00     0.011 C 
BRANCH  26  27
HETATM   27  C17 UNL     1       7.223 -14.189 -15.405  1.00  0.00     0.103 C 
BRANCH  27  28
HETATM   28  C18 UNL     1       5.797 -14.057 -15.066  1.00  0.00     0.220 C 
HETATM   29  O2  UNL     1       5.458 -13.443 -13.994  1.00  0.00    -0.273 OA
HETATM   30  N6  UNL     1       4.786 -14.593 -15.896  1.00  0.00    -0.337 N 
HETATM   31  C19 UNL     1       3.410 -14.321 -15.451  1.00  0.00     0.146 C 
HETATM   32  C22 UNL     1       5.010 -15.301 -17.091  1.00  0.00     0.188 C 
HETATM   33  C20 UNL     1       2.715 -13.671 -16.653  1.00  0.00     0.142 C 
HETATM   34  N7  UNL     1       2.632 -14.741 -17.645  1.00  0.00    -0.358 N 
HETATM   35  C21 UNL     1       3.818 -15.401 -17.985  1.00  0.00     0.241 C 
ATOM     36  H7  UNL     1       1.743 -14.997 -18.073  1.00  0.00     0.162 HD
HETATM   37  O3  UNL     1       3.920 -16.080 -19.025  1.00  0.00    -0.271 OA
BRANCH  32  38
HETATM   38  C23 UNL     1       5.728 -16.583 -16.971  1.00  0.00     0.138 C 
BRANCH  38  39
HETATM   39  C24 UNL     1       6.921 -16.813 -17.783  1.00  0.00     0.220 C 
HETATM   40  O4  UNL     1       7.567 -15.937 -18.373  1.00  0.00    -0.274 OA
HETATM   41  N8  UNL     1       7.400 -18.173 -17.921  1.00  0.00    -0.356 N 
ATOM     42  H8  UNL     1       6.914 -18.944 -17.462  1.00  0.00     0.162 HD
BRANCH  41  43
HETATM   43  C25 UNL     1       8.573 -18.416 -18.717  1.00  0.00     0.084 C 
HETATM   44  C26 UNL     1       9.398 -19.541 -18.169  1.00  0.00     0.025 C 
HETATM   45  C27 UNL     1       9.769 -20.528 -19.242  1.00  0.00     0.002 C 
HETATM   46  C28 UNL     1      10.314 -19.726 -20.421  1.00  0.00     0.000 C 
HETATM   47  C29 UNL     1       9.261 -18.835 -21.018  1.00  0.00     0.002 C 
HETATM   48  C30 UNL     1       8.050 -18.776 -20.119  1.00  0.00     0.025 C 
ENDBRANCH  41  43
ENDBRANCH  38  39
ENDBRANCH  32  38
ENDBRANCH  27  28
ENDBRANCH  26  27
ENDBRANCH  25  26
ENDBRANCH   1  25
TORSDOF 13
ENDMDL
MODEL 5
REMARK VINA RESULT: -9.020265444      2.385      4.601
REMARK  13 active torsions:
REMARK  status: ('A' for Active; 'I' for Inactive)
REMARK    1  A    between atoms: N1_2  and  C2_4 
REMARK    2  A    between atoms: C2_4  and  N2_6 
REMARK    3  A    between atoms: C4_8  and  C5_9 
REMARK    4  A    between atoms: C5_9  and  N3_10 
REMARK    5  A    between atoms: C10_15  and  C11_16 
REMARK       I    between atoms: C11_16  and  N4_18 
REMARK    6  A    between atoms: N5_21  and  C14_22 
REMARK    7  A    between atoms: C14_22  and  C15_23 
REMARK    8  A    between atoms: C15_23  and  C16_24 
REMARK    9  A    between atoms: C16_24  and  C17_25 
REMARK   10  A    between atoms: C17_25  and  C18_26 
REMARK       I    between atoms: C18_26  and  N6_28 
REMARK   11  A    between atoms: C22_35  and  C23_36 
REMARK   12  A    between atoms: C23_36  and  C24_37 
REMARK       I    between atoms: C24_37  and  N8_39 
REMARK   13  A    between atoms: N8_39  and  C25_41 
ROOT
HETATM    1  C14 UNL     1      10.581 -19.008 -14.618  1.00  0.00     0.272 C 
ENDROOT
BRANCH   1   2
HETATM    2  N5  UNL     1      10.507 -17.610 -14.998  1.00  0.00     0.091 N 
HETATM    3  C13 UNL     1      10.284 -17.472 -16.416  1.00  0.00     0.292 C 
HETATM    4  C12 UNL     1       9.340 -16.355 -16.788  1.00  0.00     0.156 C 
HETATM    5  N4  UNL     1       8.101 -16.536 -16.069  1.00  0.00    -0.347 N 
HETATM    6  C11 UNL     1       6.878 -16.025 -16.561  1.00  0.00     0.242 C 
HETATM    7  C32 UNL     1       8.151 -17.258 -14.823  1.00  0.00     0.156 C 
HETATM    8  O1  UNL     1       6.857 -15.397 -17.676  1.00  0.00    -0.271 OA
HETATM    9  C31 UNL     1       9.497 -16.966 -14.197  1.00  0.00     0.292 C 
BRANCH   6  10
HETATM   10  C10 UNL     1       5.591 -16.165 -15.870  1.00  0.00     0.179 C 
HETATM   11  N2  UNL     1       4.665 -15.090 -16.227  1.00  0.00    -0.344 N 
HETATM   12  C3  UNL     1       3.669 -15.602 -17.144  1.00  0.00     0.132 C 
HETATM   13  C4  UNL     1       4.068 -17.011 -17.464  1.00  0.00     0.032 C 
HETATM   14  C9  UNL     1       4.810 -17.388 -16.191  1.00  0.00     0.043 C 
BRANCH  11  15
HETATM   15  C2  UNL     1       4.699 -13.740 -15.778  1.00  0.00     0.170 C 
HETATM   16  S1  UNL     1       5.618 -13.320 -14.503  1.00  0.00    -0.041 SA
BRANCH  15  17
HETATM   17  N1  UNL     1       3.943 -12.747 -16.426  1.00  0.00    -0.371 N 
HETATM   18  C1  UNL     1       3.664 -11.501 -15.772  1.00  0.00     0.148 C 
ATOM     19  H1  UNL     1       3.589 -12.914 -17.368  1.00  0.00     0.161 HD
ENDBRANCH  15  17
ENDBRANCH  11  15
BRANCH  13  20
HETATM   20  C5  UNL     1       2.907 -17.965 -17.556  1.00  0.00     0.242 C 
BRANCH  20  21
HETATM   21  N3  UNL     1       2.680 -18.555 -18.824  1.00  0.00    -0.078 N 
HETATM   22  C6  UNL     1       1.237 -18.516 -19.086  1.00  0.00     0.271 C 
HETATM   23  C7  UNL     1       3.020 -19.982 -18.704  1.00  0.00     0.271 C 
HETATM   24  C8  UNL     1       3.439 -18.029 -19.914  1.00  0.00     0.271 C 
ENDBRANCH  20  21
ENDBRANCH  13  20
ENDBRANCH   6  10
ENDBRANCH   1   2
BRANCH   1  25
HETATM   25  C15 UNL     1      11.699 -19.230 -13.603  1.00  0.00     0.031 C 
BRANCH  25  26
HETATM   26  C16 UNL     1      12.505 -20.401 -14.094  1.00  0.00     0.011 C 
BRANCH  26  27
HETATM   27  C17 UNL     1      11.956 -20.798 -15.469  1.00  0.00     0.103 C 
BRANCH  27  28
HETATM   28  C18 UNL     1      12.920 -20.488 -16.537  1.00  0.00     0.220 C 
HETATM   29  O2  UNL     1      13.458 -19.326 -16.583  1.00  0.00    -0.273 OA
HETATM   30  N6  UNL     1      13.271 -21.444 -17.520  1.00  0.00    -0.337 N 
HETATM   31  C19 UNL     1      14.296 -20.999 -18.478  1.00  0.00     0.146 C 
HETATM   32  C22 UNL     1      12.752 -22.749 -17.601  1.00  0.00     0.188 C 
HETATM   33  C20 UNL     1      15.394 -22.067 -18.424  1.00  0.00     0.142 C 
HETATM   34  N7  UNL     1      14.769 -23.257 -18.997  1.00  0.00    -0.358 N 
HETATM   35  C21 UNL     1      13.558 -23.684 -18.442  1.00  0.00     0.241 C 
ATOM     36  H7  UNL     1      15.200 -23.757 -19.774  1.00  0.00     0.162 HD
HETATM   37  O3  UNL     1      13.119 -24.836 -18.623  1.00  0.00    -0.271 OA
BRANCH  32  38
HETATM   38  C23 UNL     1      11.307 -22.867 -17.862  1.00  0.00     0.138 C 
BRANCH  38  39
HETATM   39  C24 UNL     1      10.711 -22.092 -18.948  1.00  0.00     0.220 C 
HETATM   40  O4  UNL     1      10.699 -22.420 -20.141  1.00  0.00    -0.274 OA
HETATM   41  N8  UNL     1      10.080 -20.830 -18.619  1.00  0.00    -0.356 N 
ATOM     42  H8  UNL     1      10.055 -20.498 -17.654  1.00  0.00     0.162 HD
BRANCH  41  43
HETATM   43  C25 UNL     1       9.489 -20.055 -19.677  1.00  0.00     0.084 C 
HETATM   44  C26 UNL     1       8.115 -19.573 -19.317  1.00  0.00     0.025 C 
HETATM   45  C27 UNL     1       7.956 -18.104 -19.597  1.00  0.00     0.002 C 
HETATM   46  C28 UNL     1       8.472 -17.856 -21.012  1.00  0.00     0.000 C 
HETATM   47  C29 UNL     1       9.943 -18.145 -21.122  1.00  0.00     0.002 C 
HETATM   48  C30 UNL     1      10.434 -18.858 -19.885  1.00  0.00     0.025 C 
ENDBRANCH  41  43
ENDBRANCH  38  39
ENDBRANCH  32  38
ENDBRANCH  27  28
ENDBRANCH  26  27
ENDBRANCH  25  26
ENDBRANCH   1  25
TORSDOF 13
ENDMDL
