MODEL 1
REMARK VINA RESULT: -9.527753719      0.000      0.000
REMARK  13 active torsions:
REMARK  status: ('A' for Active; 'I' for Inactive)
REMARK    1  A    between atoms: C2_2  and  N1_3 
REMARK    2  A    between atoms: C2_2  and  C29_44 
REMARK       I    between atoms: N1_3  and  C3_5 
REMARK    3  A    between atoms: C3_5  and  C4_7 
REMARK       I    between atoms: N2_11  and  C8_12 
REMARK    4  A    between atoms: C8_12  and  C9_14 
REMARK    5  A    between atoms: N3_18  and  C13_19 
REMARK    6  A    between atoms: C13_19  and  O3_20 
REMARK    7  A    between atoms: C14_22  and  N4_23 
REMARK    8  A    between atoms: C14_22  and  C26_41 
REMARK       I    between atoms: N4_23  and  C15_25 
REMARK    9  A    between atoms: C15_25  and  C16_27 
REMARK   10  A    between atoms: C16_27  and  C17_28 
REMARK   11  A    between atoms: C17_28  and  C18_29 
REMARK       I    between atoms: C18_29  and  N5_31 
REMARK   12  A    between atoms: N5_31  and  C19_33 
REMARK   13  A    between atoms: C19_33  and  C20_34 
REMARK       I    between atoms: C29_44  and  N7_46 
ROOT
HETATM    1  C9  UNL     1      14.413 -23.551 -18.874  1.00  0.00     0.178 C 
HETATM    2  C10 UNL     1      14.594 -24.770 -19.702  1.00  0.00     0.037 C 
HETATM    3  C11 UNL     1      14.248 -24.331 -21.136  1.00  0.00     0.022 C 
HETATM    4  C12 UNL     1      14.705 -22.844 -21.056  1.00  0.00     0.126 C 
HETATM    5  N3  UNL     1      14.027 -22.469 -19.852  1.00  0.00    -0.347 N 
ENDROOT
BRANCH   5   6
HETATM    6  C13 UNL     1      13.253 -21.363 -19.426  1.00  0.00     0.162 C 
HETATM    7  C14 UNL     1      11.895 -21.091 -19.049  1.00  0.00     0.066 C 
BRANCH   6   8
HETATM    8  O3  UNL     1      14.080 -20.282 -19.374  1.00  0.00    -0.345 OA
ATOM      9  H3  UNL     1      14.245 -20.094 -18.458  1.00  0.00     0.219 HD
ENDBRANCH   6   8
BRANCH   7  10
HETATM   10  N4  UNL     1      11.305 -20.014 -19.805  1.00  0.00    -0.327 N 
HETATM   11  C15 UNL     1      10.737 -18.818 -19.573  1.00  0.00     0.222 C 
HETATM   12  O4  UNL     1      10.582 -18.281 -18.457  1.00  0.00    -0.273 OA
ATOM     13  H4  UNL     1      11.325 -20.218 -20.804  1.00  0.00     0.168 HD
BRANCH  11  14
HETATM   14  C16 UNL     1      10.213 -17.978 -20.729  1.00  0.00     0.112 C 
BRANCH  14  15
HETATM   15  C17 UNL     1       9.025 -18.642 -21.374  1.00  0.00     0.112 C 
BRANCH  15  16
HETATM   16  C18 UNL     1       7.779 -18.007 -20.895  1.00  0.00     0.218 C 
HETATM   17  O5  UNL     1       7.857 -17.022 -20.128  1.00  0.00    -0.274 OA
HETATM   18  N5  UNL     1       6.526 -18.560 -21.337  1.00  0.00    -0.359 N 
ATOM     19  H5  UNL     1       6.553 -19.367 -21.961  1.00  0.00     0.162 HD
BRANCH  18  20
HETATM   20  C19 UNL     1       5.257 -18.055 -20.962  1.00  0.00     0.158 C 
BRANCH  20  21
HETATM   21  C20 UNL     1       4.728 -18.687 -19.698  1.00  0.00     0.240 C 
HETATM   22  C21 UNL     1       4.928 -17.781 -18.504  1.00  0.00     0.037 C 
HETATM   23  C22 UNL     1       3.655 -17.378 -17.812  1.00  0.00     0.004 C 
HETATM   24  C23 UNL     1       2.500 -17.264 -18.765  1.00  0.00     0.030 C 
HETATM   25  C24 UNL     1       2.303 -18.562 -19.450  1.00  0.00     0.272 C 
HETATM   26  N6  UNL     1       3.459 -19.302 -19.800  1.00  0.00     0.090 N 
HETATM   27  C25 UNL     1       3.461 -20.584 -19.057  1.00  0.00     0.310 C 
ENDBRANCH  20  21
ENDBRANCH  18  20
ENDBRANCH  15  16
ENDBRANCH  14  15
ENDBRANCH  11  14
ENDBRANCH   7  10
BRANCH   7  28
HETATM   28  C26 UNL     1      10.980 -22.067 -18.521  1.00  0.00     0.032 C 
HETATM   29  C27 UNL     1      11.314 -23.064 -17.508  1.00  0.00     0.016 C 
HETATM   30  C28 UNL     1      10.208 -22.815 -19.646  1.00  0.00     0.016 C 
ENDBRANCH   7  28
ENDBRANCH   5   6
BRANCH   1  31
HETATM   31  C8  UNL     1      15.627 -23.188 -18.163  1.00  0.00     0.243 C 
HETATM   32  N2  UNL     1      15.674 -22.662 -16.840  1.00  0.00    -0.337 N 
HETATM   33  C4  UNL     1      14.556 -22.433 -15.986  1.00  0.00     0.179 C 
HETATM   34  C7  UNL     1      16.890 -22.259 -16.123  1.00  0.00     0.127 C 
HETATM   35  C5  UNL     1      15.134 -22.801 -14.602  1.00  0.00     0.037 C 
HETATM   36  C6  UNL     1      16.493 -22.180 -14.686  1.00  0.00     0.022 C 
HETATM   37  O2  UNL     1      16.745 -23.342 -18.757  1.00  0.00    -0.271 OA
BRANCH  33  38
HETATM   38  C3  UNL     1      14.039 -21.041 -15.955  1.00  0.00     0.241 C 
HETATM   39  N1  UNL     1      12.925 -20.801 -15.108  1.00  0.00    -0.346 N 
ATOM     40  H1  UNL     1      12.519 -21.556 -14.555  1.00  0.00     0.163 HD
HETATM   41  O1  UNL     1      14.519 -20.111 -16.612  1.00  0.00    -0.271 OA
BRANCH  39  42
HETATM   42  C2  UNL     1      12.368 -19.443 -15.045  1.00  0.00     0.172 C 
HETATM   43  C1  UNL     1      12.831 -18.779 -13.761  1.00  0.00     0.042 C 
BRANCH  42  44
HETATM   44  C29 UNL     1      10.889 -19.594 -15.113  1.00  0.00     0.242 C 
HETATM   45  O6  UNL     1      10.374 -20.641 -15.640  1.00  0.00    -0.271 OA
HETATM   46  N7  UNL     1       9.985 -18.628 -14.619  1.00  0.00    -0.350 N 
HETATM   47  C30 UNL     1      10.329 -17.386 -13.998  1.00  0.00     0.126 C 
HETATM   48  C34 UNL     1       8.545 -18.922 -14.742  1.00  0.00     0.126 C 
HETATM   49  C31 UNL     1       9.588 -16.224 -14.635  1.00  0.00     0.020 C 
HETATM   50  C32 UNL     1       8.152 -16.518 -14.914  1.00  0.00     0.003 C 
HETATM   51  C33 UNL     1       7.952 -17.848 -15.611  1.00  0.00     0.020 C 
ENDBRANCH  42  44
ENDBRANCH  39  42
ENDBRANCH  33  38
ENDBRANCH   1  31
TORSDOF 13
ENDMDL
MODEL 2
REMARK VINA RESULT: -9.420025527      2.729      6.508
REMARK  13 active torsions:
REMARK  status: ('A' for Active; 'I' for Inactive)
REMARK    1  A    between atoms: C2_2  and  N1_3 
REMARK    2  A    between atoms: C2_2  and  C29_44 
REMARK       I    between atoms: N1_3  and  C3_5 
REMARK    3  A    between atoms: C3_5  and  C4_7 
REMARK       I    between atoms: N2_11  and  C8_12 
REMARK    4  A    between atoms: C8_12  and  C9_14 
REMARK    5  A    between atoms: N3_18  and  C13_19 
REMARK    6  A    between atoms: C13_19  and  O3_20 
REMARK    7  A    between atoms: C14_22  and  N4_23 
REMARK    8  A    between atoms: C14_22  and  C26_41 
REMARK       I    between atoms: N4_23  and  C15_25 
REMARK    9  A    between atoms: C15_25  and  C16_27 
REMARK   10  A    between atoms: C16_27  and  C17_28 
REMARK   11  A    between atoms: C17_28  and  C18_29 
REMARK       I    between atoms: C18_29  and  N5_31 
REMARK   12  A    between atoms: N5_31  and  C19_33 
REMARK   13  A    between atoms: C19_33  and  C20_34 
REMARK       I    between atoms: C29_44  and  N7_46 
ROOT
HETATM    1  C9  UNL     1      14.837 -21.014 -17.373  1.00  0.00     0.178 C 
HETATM    2  C10 UNL     1      15.519 -21.987 -16.483  1.00  0.00     0.037 C 
HETATM    3  C11 UNL     1      14.475 -22.342 -15.410  1.00  0.00     0.022 C 
HETATM    4  C12 UNL     1      13.181 -22.183 -16.262  1.00  0.00     0.126 C 
HETATM    5  N3  UNL     1      13.440 -20.890 -16.818  1.00  0.00    -0.347 N 
ENDROOT
BRANCH   5   6
HETATM    6  C13 UNL     1      12.694 -19.703 -17.018  1.00  0.00     0.162 C 
HETATM    7  C14 UNL     1      11.389 -19.197 -16.705  1.00  0.00     0.066 C 
BRANCH   6   8
HETATM    8  O3  UNL     1      13.487 -18.833 -17.703  1.00  0.00    -0.345 OA
ATOM      9  H3  UNL     1      14.200 -19.335 -18.081  1.00  0.00     0.219 HD
ENDBRANCH   6   8
BRANCH   7  10
HETATM   10  N4  UNL     1      10.674 -18.725 -17.865  1.00  0.00    -0.327 N 
HETATM   11  C15 UNL     1      10.355 -19.163 -19.095  1.00  0.00     0.222 C 
HETATM   12  O4  UNL     1      10.650 -20.275 -19.580  1.00  0.00    -0.273 OA
ATOM     13  H4  UNL     1      10.303 -17.788 -17.706  1.00  0.00     0.168 HD
BRANCH  11  14
HETATM   14  C16 UNL     1       9.556 -18.279 -20.043  1.00  0.00     0.112 C 
BRANCH  14  15
HETATM   15  C17 UNL     1       8.083 -18.562 -19.920  1.00  0.00     0.112 C 
BRANCH  15  16
HETATM   16  C18 UNL     1       7.431 -17.484 -19.147  1.00  0.00     0.218 C 
HETATM   17  O5  UNL     1       6.181 -17.419 -19.135  1.00  0.00    -0.274 OA
HETATM   18  N5  UNL     1       8.272 -16.553 -18.442  1.00  0.00    -0.359 N 
ATOM     19  H5  UNL     1       9.283 -16.678 -18.508  1.00  0.00     0.162 HD
BRANCH  18  20
HETATM   20  C19 UNL     1       7.786 -15.475 -17.662  1.00  0.00     0.158 C 
BRANCH  20  21
HETATM   21  C20 UNL     1       7.053 -15.935 -16.426  1.00  0.00     0.240 C 
HETATM   22  C21 UNL     1       7.918 -15.804 -15.193  1.00  0.00     0.037 C 
HETATM   23  C22 UNL     1       7.359 -14.889 -14.138  1.00  0.00     0.004 C 
HETATM   24  C23 UNL     1       6.566 -13.758 -14.727  1.00  0.00     0.030 C 
HETATM   25  C24 UNL     1       5.459 -14.311 -15.541  1.00  0.00     0.272 C 
HETATM   26  N6  UNL     1       5.720 -15.481 -16.296  1.00  0.00     0.090 N 
HETATM   27  C25 UNL     1       4.862 -16.582 -15.800  1.00  0.00     0.310 C 
ENDBRANCH  20  21
ENDBRANCH  18  20
ENDBRANCH  15  16
ENDBRANCH  14  15
ENDBRANCH  11  14
ENDBRANCH   7  10
BRANCH   7  28
HETATM   28  C26 UNL     1      10.580 -19.642 -15.602  1.00  0.00     0.032 C 
HETATM   29  C27 UNL     1       9.160 -19.348 -15.434  1.00  0.00     0.016 C 
HETATM   30  C28 UNL     1      11.258 -19.364 -14.229  1.00  0.00     0.016 C 
ENDBRANCH   7  28
ENDBRANCH   5   6
BRANCH   1  31
HETATM   31  C8  UNL     1      14.800 -21.469 -18.753  1.00  0.00     0.243 C 
HETATM   32  N2  UNL     1      15.001 -22.814 -19.177  1.00  0.00    -0.337 N 
HETATM   33  C4  UNL     1      15.241 -23.935 -18.330  1.00  0.00     0.179 C 
HETATM   34  C7  UNL     1      15.001 -23.281 -20.568  1.00  0.00     0.127 C 
HETATM   35  C5  UNL     1      14.475 -25.056 -19.065  1.00  0.00     0.037 C 
HETATM   36  C6  UNL     1      14.833 -24.762 -20.487  1.00  0.00     0.022 C 
HETATM   37  O2  UNL     1      14.574 -20.609 -19.667  1.00  0.00    -0.271 OA
BRANCH  33  38
HETATM   38  C3  UNL     1      16.664 -24.331 -18.166  1.00  0.00     0.241 C 
HETATM   39  N1  UNL     1      16.903 -25.572 -17.519  1.00  0.00    -0.346 N 
ATOM     40  H1  UNL     1      16.126 -26.149 -17.196  1.00  0.00     0.163 HD
HETATM   41  O1  UNL     1      17.619 -23.649 -18.553  1.00  0.00    -0.271 OA
BRANCH  39  42
HETATM   42  C2  UNL     1      18.291 -26.007 -17.323  1.00  0.00     0.172 C 
HETATM   43  C1  UNL     1      18.701 -26.892 -18.487  1.00  0.00     0.042 C 
BRANCH  42  44
HETATM   44  C29 UNL     1      18.325 -26.723 -16.018  1.00  0.00     0.242 C 
HETATM   45  O6  UNL     1      18.457 -27.996 -15.987  1.00  0.00    -0.271 OA
HETATM   46  N7  UNL     1      18.219 -26.070 -14.770  1.00  0.00    -0.350 N 
HETATM   47  C30 UNL     1      18.061 -24.664 -14.561  1.00  0.00     0.126 C 
HETATM   48  C34 UNL     1      18.285 -26.910 -13.559  1.00  0.00     0.126 C 
HETATM   49  C31 UNL     1      16.898 -24.370 -13.630  1.00  0.00     0.020 C 
HETATM   50  C32 UNL     1      16.833 -25.286 -12.455  1.00  0.00     0.003 C 
HETATM   51  C33 UNL     1      16.975 -26.744 -12.840  1.00  0.00     0.020 C 
ENDBRANCH  42  44
ENDBRANCH  39  42
ENDBRANCH  33  38
ENDBRANCH   1  31
TORSDOF 13
ENDMDL
MODEL 3
REMARK VINA RESULT: -9.286786723      2.607      6.409
REMARK  13 active torsions:
REMARK  status: ('A' for Active; 'I' for Inactive)
REMARK    1  A    between atoms: C2_2  and  N1_3 
REMARK    2  A    between atoms: C2_2  and  C29_44 
REMARK       I    between atoms: N1_3  and  C3_5 
REMARK    3  A    between atoms: C3_5  and  C4_7 
REMARK       I    between atoms: N2_11  and  C8_12 
REMARK    4  A    between atoms: C8_12  and  C9_14 
REMARK    5  A    between atoms: N3_18  and  C13_19 
REMARK    6  A    between atoms: C13_19  and  O3_20 
REMARK    7  A    between atoms: C14_22  and  N4_23 
REMARK    8  A    between atoms: C14_22  and  C26_41 
REMARK       I    between atoms: N4_23  and  C15_25 
REMARK    9  A    between atoms: C15_25  and  C16_27 
REMARK   10  A    between atoms: C16_27  and  C17_28 
REMARK   11  A    between atoms: C17_28  and  C18_29 
REMARK       I    between atoms: C18_29  and  N5_31 
REMARK   12  A    between atoms: N5_31  and  C19_33 
REMARK   13  A    between atoms: C19_33  and  C20_34 
REMARK       I    between atoms: C29_44  and  N7_46 
ROOT
HETATM    1  C9  UNL     1      14.712 -20.871 -17.552  1.00  0.00     0.178 C 
HETATM    2  C10 UNL     1      15.272 -21.863 -16.600  1.00  0.00     0.037 C 
HETATM    3  C11 UNL     1      14.171 -22.065 -15.543  1.00  0.00     0.022 C 
HETATM    4  C12 UNL     1      12.921 -21.820 -16.439  1.00  0.00     0.126 C 
HETATM    5  N3  UNL     1      13.321 -20.585 -17.043  1.00  0.00    -0.347 N 
ENDROOT
BRANCH   5   6
HETATM    6  C13 UNL     1      12.701 -19.341 -17.317  1.00  0.00     0.162 C 
HETATM    7  C14 UNL     1      11.599 -18.567 -16.824  1.00  0.00     0.066 C 
BRANCH   6   8
HETATM    8  O3  UNL     1      13.385 -18.761 -18.341  1.00  0.00    -0.345 OA
ATOM      9  H3  UNL     1      13.000 -17.906 -18.493  1.00  0.00     0.219 HD
ENDBRANCH   6   8
BRANCH   7  10
HETATM   10  N4  UNL     1      10.665 -18.193 -17.858  1.00  0.00    -0.327 N 
HETATM   11  C15 UNL     1       9.861 -18.796 -18.751  1.00  0.00     0.222 C 
HETATM   12  O4  UNL     1       9.711 -20.027 -18.893  1.00  0.00    -0.273 OA
ATOM     13  H4  UNL     1      10.596 -17.178 -17.934  1.00  0.00     0.168 HD
BRANCH  11  14
HETATM   14  C16 UNL     1       9.017 -17.966 -19.709  1.00  0.00     0.112 C 
BRANCH  14  15
HETATM   15  C17 UNL     1       7.834 -18.758 -20.198  1.00  0.00     0.112 C 
BRANCH  15  16
HETATM   16  C18 UNL     1       6.582 -18.117 -19.743  1.00  0.00     0.218 C 
HETATM   17  O5  UNL     1       5.693 -17.861 -20.586  1.00  0.00    -0.274 OA
HETATM   18  N5  UNL     1       6.447 -17.815 -18.342  1.00  0.00    -0.359 N 
ATOM     19  H5  UNL     1       7.223 -18.056 -17.725  1.00  0.00     0.162 HD
BRANCH  18  20
HETATM   20  C19 UNL     1       5.305 -17.205 -17.767  1.00  0.00     0.158 C 
BRANCH  20  21
HETATM   21  C20 UNL     1       5.615 -16.491 -16.475  1.00  0.00     0.240 C 
HETATM   22  C21 UNL     1       6.414 -17.369 -15.538  1.00  0.00     0.037 C 
HETATM   23  C22 UNL     1       7.763 -16.816 -15.168  1.00  0.00     0.004 C 
HETATM   24  C23 UNL     1       8.370 -16.007 -16.277  1.00  0.00     0.030 C 
HETATM   25  C24 UNL     1       7.457 -14.895 -16.627  1.00  0.00     0.272 C 
HETATM   26  N6  UNL     1       6.064 -15.156 -16.601  1.00  0.00     0.090 N 
HETATM   27  C25 UNL     1       5.429 -14.313 -15.562  1.00  0.00     0.310 C 
ENDBRANCH  20  21
ENDBRANCH  18  20
ENDBRANCH  15  16
ENDBRANCH  14  15
ENDBRANCH  11  14
ENDBRANCH   7  10
BRANCH   7  28
HETATM   28  C26 UNL     1      11.063 -18.658 -15.493  1.00  0.00     0.032 C 
HETATM   29  C27 UNL     1      11.860 -18.680 -14.270  1.00  0.00     0.016 C 
HETATM   30  C28 UNL     1      10.013 -19.800 -15.361  1.00  0.00     0.016 C 
ENDBRANCH   7  28
ENDBRANCH   5   6
BRANCH   1  31
HETATM   31  C8  UNL     1      14.664 -21.383 -18.911  1.00  0.00     0.243 C 
HETATM   32  N2  UNL     1      14.867 -22.744 -19.280  1.00  0.00    -0.337 N 
HETATM   33  C4  UNL     1      15.118 -23.827 -18.389  1.00  0.00     0.179 C 
HETATM   34  C7  UNL     1      14.855 -23.269 -20.650  1.00  0.00     0.127 C 
HETATM   35  C5  UNL     1      14.349 -24.981 -19.069  1.00  0.00     0.037 C 
HETATM   36  C6  UNL     1      14.694 -24.745 -20.506  1.00  0.00     0.022 C 
HETATM   37  O2  UNL     1      14.427 -20.563 -19.858  1.00  0.00    -0.271 OA
BRANCH  33  38
HETATM   38  C3  UNL     1      16.544 -24.211 -18.221  1.00  0.00     0.241 C 
HETATM   39  N1  UNL     1      16.792 -25.438 -17.551  1.00  0.00    -0.346 N 
ATOM     40  H1  UNL     1      16.019 -26.014 -17.215  1.00  0.00     0.163 HD
HETATM   41  O1  UNL     1      17.494 -23.532 -18.624  1.00  0.00    -0.271 OA
BRANCH  39  42
HETATM   42  C2  UNL     1      18.184 -25.862 -17.351  1.00  0.00     0.172 C 
HETATM   43  C1  UNL     1      18.601 -26.752 -18.508  1.00  0.00     0.042 C 
BRANCH  42  44
HETATM   44  C29 UNL     1      18.222 -26.568 -16.040  1.00  0.00     0.242 C 
HETATM   45  O6  UNL     1      18.393 -27.835 -15.999  1.00  0.00    -0.271 OA
HETATM   46  N7  UNL     1      18.077 -25.910 -14.798  1.00  0.00    -0.350 N 
HETATM   47  C30 UNL     1      17.872 -24.508 -14.602  1.00  0.00     0.126 C 
HETATM   48  C34 UNL     1      18.153 -26.739 -13.580  1.00  0.00     0.126 C 
HETATM   49  C31 UNL     1      16.687 -24.244 -13.689  1.00  0.00     0.020 C 
HETATM   50  C32 UNL     1      16.635 -25.154 -12.508  1.00  0.00     0.003 C 
HETATM   51  C33 UNL     1      16.828 -26.610 -12.881  1.00  0.00     0.020 C 
ENDBRANCH  42  44
ENDBRANCH  39  42
ENDBRANCH  33  38
ENDBRANCH   1  31
TORSDOF 13
ENDMDL
MODEL 4
REMARK VINA RESULT: -9.206363529      2.708      6.547
REMARK  13 active torsions:
REMARK  status: ('A' for Active; 'I' for Inactive)
REMARK    1  A    between atoms: C2_2  and  N1_3 
REMARK    2  A    between atoms: C2_2  and  C29_44 
REMARK       I    between atoms: N1_3  and  C3_5 
REMARK    3  A    between atoms: C3_5  and  C4_7 
REMARK       I    between atoms: N2_11  and  C8_12 
REMARK    4  A    between atoms: C8_12  and  C9_14 
REMARK    5  A    between atoms: N3_18  and  C13_19 
REMARK    6  A    between atoms: C13_19  and  O3_20 
REMARK    7  A    between atoms: C14_22  and  N4_23 
REMARK    8  A    between atoms: C14_22  and  C26_41 
REMARK       I    between atoms: N4_23  and  C15_25 
REMARK    9  A    between atoms: C15_25  and  C16_27 
REMARK   10  A    between atoms: C16_27  and  C17_28 
REMARK   11  A    between atoms: C17_28  and  C18_29 
REMARK       I    between atoms: C18_29  and  N5_31 
REMARK   12  A    between atoms: N5_31  and  C19_33 
REMARK   13  A    between atoms: C19_33  and  C20_34 
REMARK       I    between atoms: C29_44  and  N7_46 
ROOT
HETATM    1  C9  UNL     1      15.099 -21.965 -15.687  1.00  0.00     0.178 C 
HETATM    2  C10 UNL     1      16.276 -21.065 -15.583  1.00  0.00     0.037 C 
HETATM    3  C11 UNL     1      15.722 -19.655 -15.859  1.00  0.00     0.022 C 
HETATM    4  C12 UNL     1      14.285 -19.838 -15.288  1.00  0.00     0.126 C 
HETATM    5  N3  UNL     1      13.932 -21.050 -15.963  1.00  0.00    -0.347 N 
ENDROOT
BRANCH   5   6
HETATM    6  C13 UNL     1      12.795 -21.531 -16.657  1.00  0.00     0.162 C 
HETATM    7  C14 UNL     1      12.320 -21.600 -18.009  1.00  0.00     0.066 C 
BRANCH   6   8
HETATM    8  O3  UNL     1      11.952 -22.072 -15.734  1.00  0.00    -0.345 OA
ATOM      9  H3  UNL     1      11.069 -21.810 -15.967  1.00  0.00     0.219 HD
ENDBRANCH   6   8
BRANCH   7  10
HETATM   10  N4  UNL     1      11.009 -21.020 -18.176  1.00  0.00    -0.327 N 
HETATM   11  C15 UNL     1      10.410 -19.828 -18.013  1.00  0.00     0.222 C 
HETATM   12  O4  UNL     1      10.959 -18.776 -17.626  1.00  0.00    -0.273 OA
ATOM     13  H4  UNL     1      10.346 -21.716 -18.516  1.00  0.00     0.168 HD
BRANCH  11  14
HETATM   14  C16 UNL     1       8.927 -19.666 -18.312  1.00  0.00     0.112 C 
BRANCH  14  15
HETATM   15  C17 UNL     1       8.717 -18.721 -19.465  1.00  0.00     0.112 C 
BRANCH  15  16
HETATM   16  C18 UNL     1       7.921 -17.558 -19.019  1.00  0.00     0.218 C 
HETATM   17  O5  UNL     1       6.809 -17.345 -19.552  1.00  0.00    -0.274 OA
HETATM   18  N5  UNL     1       8.469 -16.720 -17.985  1.00  0.00    -0.359 N 
ATOM     19  H5  UNL     1       9.385 -16.965 -17.607  1.00  0.00     0.162 HD
BRANCH  18  20
HETATM   20  C19 UNL     1       7.818 -15.577 -17.460  1.00  0.00     0.158 C 
BRANCH  20  21
HETATM   21  C20 UNL     1       7.500 -15.712 -15.991  1.00  0.00     0.240 C 
HETATM   22  C21 UNL     1       6.931 -17.077 -15.675  1.00  0.00     0.037 C 
HETATM   23  C22 UNL     1       7.744 -17.875 -14.692  1.00  0.00     0.004 C 
HETATM   24  C23 UNL     1       9.213 -17.584 -14.800  1.00  0.00     0.030 C 
HETATM   25  C24 UNL     1       9.443 -16.138 -14.576  1.00  0.00     0.272 C 
HETATM   26  N6  UNL     1       8.487 -15.233 -15.099  1.00  0.00     0.090 N 
HETATM   27  C25 UNL     1       7.842 -14.505 -13.981  1.00  0.00     0.310 C 
ENDBRANCH  20  21
ENDBRANCH  18  20
ENDBRANCH  15  16
ENDBRANCH  14  15
ENDBRANCH  11  14
ENDBRANCH   7  10
BRANCH   7  28
HETATM   28  C26 UNL     1      13.162 -21.604 -19.175  1.00  0.00     0.032 C 
HETATM   29  C27 UNL     1      14.409 -20.858 -19.308  1.00  0.00     0.016 C 
HETATM   30  C28 UNL     1      12.353 -21.358 -20.482  1.00  0.00     0.016 C 
ENDBRANCH   7  28
ENDBRANCH   5   6
BRANCH   1  31
HETATM   31  C8  UNL     1      14.879 -22.720 -14.465  1.00  0.00     0.243 C 
HETATM   32  N2  UNL     1      15.853 -23.536 -13.821  1.00  0.00    -0.337 N 
HETATM   33  C4  UNL     1      17.201 -23.726 -14.241  1.00  0.00     0.179 C 
HETATM   34  C7  UNL     1      15.635 -24.331 -12.607  1.00  0.00     0.127 C 
HETATM   35  C5  UNL     1      17.945 -23.813 -12.891  1.00  0.00     0.037 C 
HETATM   36  C6  UNL     1      16.999 -24.659 -12.099  1.00  0.00     0.022 C 
HETATM   37  O2  UNL     1      13.729 -22.662 -13.917  1.00  0.00    -0.271 OA
BRANCH  33  38
HETATM   38  C3  UNL     1      17.466 -24.954 -15.035  1.00  0.00     0.241 C 
HETATM   39  N1  UNL     1      17.428 -24.813 -16.447  1.00  0.00    -0.346 N 
ATOM     40  H1  UNL     1      17.232 -23.908 -16.876  1.00  0.00     0.163 HD
HETATM   41  O1  UNL     1      17.711 -26.058 -14.537  1.00  0.00    -0.271 OA
BRANCH  39  42
HETATM   42  C2  UNL     1      17.675 -25.997 -17.279  1.00  0.00     0.172 C 
HETATM   43  C1  UNL     1      19.016 -26.598 -16.899  1.00  0.00     0.042 C 
BRANCH  42  44
HETATM   44  C29 UNL     1      17.635 -25.531 -18.693  1.00  0.00     0.242 C 
HETATM   45  O6  UNL     1      18.691 -25.064 -19.245  1.00  0.00    -0.271 OA
HETATM   46  N7  UNL     1      16.471 -25.571 -19.492  1.00  0.00    -0.350 N 
HETATM   47  C30 UNL     1      15.183 -26.044 -19.089  1.00  0.00     0.126 C 
HETATM   48  C34 UNL     1      16.587 -25.089 -20.882  1.00  0.00     0.126 C 
HETATM   49  C31 UNL     1      14.097 -25.032 -19.407  1.00  0.00     0.020 C 
HETATM   50  C32 UNL     1      14.247 -24.404 -20.752  1.00  0.00     0.003 C 
HETATM   51  C33 UNL     1      15.656 -23.916 -21.017  1.00  0.00     0.020 C 
ENDBRANCH  42  44
ENDBRANCH  39  42
ENDBRANCH  33  38
ENDBRANCH   1  31
TORSDOF 13
ENDMDL
MODEL 5
REMARK VINA RESULT: -9.175213847      3.269      9.752
REMARK  13 active torsions:
REMARK  status: ('A' for Active; 'I' for Inactive)
REMARK    1  A    between atoms: C2_2  and  N1_3 
REMARK    2  A    between atoms: C2_2  and  C29_44 
REMARK       I    between atoms: N1_3  and  C3_5 
REMARK    3  A    between atoms: C3_5  and  C4_7 
REMARK       I    between atoms: N2_11  and  C8_12 
REMARK    4  A    between atoms: C8_12  and  C9_14 
REMARK    5  A    between atoms: N3_18  and  C13_19 
REMARK    6  A    between atoms: C13_19  and  O3_20 
REMARK    7  A    between atoms: C14_22  and  N4_23 
REMARK    8  A    between atoms: C14_22  and  C26_41 
REMARK       I    between atoms: N4_23  and  C15_25 
REMARK    9  A    between atoms: C15_25  and  C16_27 
REMARK   10  A    between atoms: C16_27  and  C17_28 
REMARK   11  A    between atoms: C17_28  and  C18_29 
REMARK       I    between atoms: C18_29  and  N5_31 
REMARK   12  A    between atoms: N5_31  and  C19_33 
REMARK   13  A    between atoms: C19_33  and  C20_34 
REMARK       I    between atoms: C29_44  and  N7_46 
ROOT
HETATM    1  C9  UNL     1      12.917 -21.592 -19.631  1.00  0.00     0.178 C 
HETATM    2  C10 UNL     1      13.562 -21.894 -20.934  1.00  0.00     0.037 C 
HETATM    3  C11 UNL     1      14.421 -23.144 -20.672  1.00  0.00     0.022 C 
HETATM    4  C12 UNL     1      13.549 -23.815 -19.569  1.00  0.00     0.126 C 
HETATM    5  N3  UNL     1      13.381 -22.687 -18.704  1.00  0.00    -0.347 N 
ENDROOT
BRANCH   5   6
HETATM    6  C13 UNL     1      13.451 -22.460 -17.308  1.00  0.00     0.162 C 
HETATM    7  C14 UNL     1      14.337 -21.831 -16.372  1.00  0.00     0.066 C 
BRANCH   6   8
HETATM    8  O3  UNL     1      12.338 -23.013 -16.749  1.00  0.00    -0.345 OA
ATOM      9  H3  UNL     1      12.616 -23.492 -15.977  1.00  0.00     0.219 HD
ENDBRANCH   6   8
BRANCH   7  10
HETATM   10  N4  UNL     1      14.738 -22.707 -15.299  1.00  0.00    -0.327 N 
HETATM   11  C15 UNL     1      14.385 -22.967 -14.028  1.00  0.00     0.222 C 
HETATM   12  O4  UNL     1      13.459 -22.418 -13.396  1.00  0.00    -0.273 OA
ATOM     13  H4  UNL     1      15.516 -23.301 -15.587  1.00  0.00     0.168 HD
BRANCH  11  14
HETATM   14  C16 UNL     1      15.132 -24.019 -13.222  1.00  0.00     0.112 C 
BRANCH  14  15
HETATM   15  C17 UNL     1      16.619 -23.809 -13.321  1.00  0.00     0.112 C 
BRANCH  15  16
HETATM   16  C18 UNL     1      17.307 -25.116 -13.364  1.00  0.00     0.218 C 
HETATM   17  O5  UNL     1      17.641 -25.660 -12.287  1.00  0.00    -0.274 OA
HETATM   18  N5  UNL     1      17.560 -25.705 -14.653  1.00  0.00    -0.359 N 
ATOM     19  H5  UNL     1      17.256 -25.192 -15.481  1.00  0.00     0.162 HD
BRANCH  18  20
HETATM   20  C19 UNL     1      18.206 -26.951 -14.845  1.00  0.00     0.158 C 
BRANCH  20  21
HETATM   21  C20 UNL     1      19.088 -26.968 -16.069  1.00  0.00     0.240 C 
HETATM   22  C21 UNL     1      20.541 -27.156 -15.697  1.00  0.00     0.037 C 
HETATM   23  C22 UNL     1      21.175 -28.390 -16.279  1.00  0.00     0.004 C 
HETATM   24  C23 UNL     1      20.196 -29.519 -16.425  1.00  0.00     0.030 C 
HETATM   25  C24 UNL     1      19.074 -29.083 -17.288  1.00  0.00     0.272 C 
HETATM   26  N6  UNL     1      18.622 -27.747 -17.153  1.00  0.00     0.090 N 
HETATM   27  C25 UNL     1      18.853 -27.024 -18.426  1.00  0.00     0.310 C 
ENDBRANCH  20  21
ENDBRANCH  18  20
ENDBRANCH  15  16
ENDBRANCH  14  15
ENDBRANCH  11  14
ENDBRANCH   7  10
BRANCH   7  28
HETATM   28  C26 UNL     1      15.250 -20.768 -16.694  1.00  0.00     0.032 C 
HETATM   29  C27 UNL     1      16.073 -20.050 -15.726  1.00  0.00     0.016 C 
HETATM   30  C28 UNL     1      14.596 -19.691 -17.609  1.00  0.00     0.016 C 
ENDBRANCH   7  28
ENDBRANCH   5   6
BRANCH   1  31
HETATM   31  C8  UNL     1      11.467 -21.584 -19.729  1.00  0.00     0.243 C 
HETATM   32  N2  UNL     1      10.648 -20.420 -19.658  1.00  0.00    -0.337 N 
HETATM   33  C4  UNL     1      11.106 -19.078 -19.512  1.00  0.00     0.179 C 
HETATM   34  C7  UNL     1       9.182 -20.401 -19.720  1.00  0.00     0.127 C 
HETATM   35  C5  UNL     1      10.099 -18.303 -20.388  1.00  0.00     0.037 C 
HETATM   36  C6  UNL     1       8.819 -18.985 -20.022  1.00  0.00     0.022 C 
HETATM   37  O2  UNL     1      10.865 -22.697 -19.885  1.00  0.00    -0.271 OA
BRANCH  33  38
HETATM   38  C3  UNL     1      11.086 -18.533 -18.130  1.00  0.00     0.241 C 
HETATM   39  N1  UNL     1      11.075 -19.485 -17.076  1.00  0.00    -0.346 N 
ATOM     40  H1  UNL     1      11.087 -20.485 -17.277  1.00  0.00     0.163 HD
HETATM   41  O1  UNL     1      11.077 -17.326 -17.864  1.00  0.00    -0.271 OA
BRANCH  39  42
HETATM   42  C2  UNL     1      11.047 -19.000 -15.690  1.00  0.00     0.172 C 
HETATM   43  C1  UNL     1      11.862 -19.940 -14.821  1.00  0.00     0.042 C 
BRANCH  42  44
HETATM   44  C29 UNL     1       9.613 -18.949 -15.294  1.00  0.00     0.242 C 
HETATM   45  O6  UNL     1       8.871 -19.982 -15.435  1.00  0.00    -0.271 OA
HETATM   46  N7  UNL     1       8.996 -17.799 -14.754  1.00  0.00    -0.350 N 
HETATM   47  C30 UNL     1       9.622 -16.536 -14.514  1.00  0.00     0.126 C 
HETATM   48  C34 UNL     1       7.569 -17.902 -14.393  1.00  0.00     0.126 C 
HETATM   49  C31 UNL     1       8.822 -15.396 -15.120  1.00  0.00     0.020 C 
HETATM   50  C32 UNL     1       7.351 -15.525 -14.905  1.00  0.00     0.003 C 
HETATM   51  C33 UNL     1       6.829 -16.906 -15.242  1.00  0.00     0.020 C 
ENDBRANCH  42  44
ENDBRANCH  39  42
ENDBRANCH  33  38
ENDBRANCH   1  31
TORSDOF 13
ENDMDL
