MODEL 1
REMARK VINA RESULT: -8.693956161      0.000      0.000
REMARK  13 active torsions:
REMARK  status: ('A' for Active; 'I' for Inactive)
REMARK    1  A    between atoms: C2_2  and  C4_4 
REMARK    2  A    between atoms: C2_2  and  C11_11 
REMARK    3  A    between atoms: C4_4  and  C5_5 
REMARK       I    between atoms: C11_11  and  N1_13 
REMARK       I    between atoms: N2_16  and  C14_17 
REMARK    4  A    between atoms: C14_17  and  C15_19 
REMARK    5  A    between atoms: C15_19  and  N3_22 
REMARK       I    between atoms: N3_22  and  C18_24 
REMARK    6  A    between atoms: C18_24  and  C19_26 
REMARK    7  A    between atoms: C19_26  and  C20_27 
REMARK    8  A    between atoms: C20_27  and  C21_28 
REMARK    9  A    between atoms: C21_28  and  C22_30 
REMARK       I    between atoms: C22_30  and  N4_32 
REMARK   10  A    between atoms: C26_36  and  C27_37 
REMARK       I    between atoms: C27_37  and  N5_39 
REMARK   11  A    between atoms: N5_39  and  C28_41 
REMARK   12  A    between atoms: C28_41  and  C29_42 
REMARK   13  A    between atoms: C29_42  and  N6_43 
ROOT
HETATM    1  N3  UNL     1      -7.474  16.957 -16.755  1.00  0.00    -0.344 N 
ATOM      2  H3  UNL     1      -7.044  17.803 -17.129  1.00  0.00     0.163 HD
HETATM    3  C18 UNL     1      -7.438  15.807 -17.557  1.00  0.00     0.218 C 
HETATM    4  O3  UNL     1      -7.930  14.685 -17.267  1.00  0.00    -0.274 OA
ENDROOT
BRANCH   1   5
HETATM    5  C15 UNL     1      -8.076  17.042 -15.428  1.00  0.00     0.106 C 
HETATM    6  C16 UNL     1      -7.580  15.895 -14.595  1.00  0.00     0.048 C 
HETATM    7  C17 UNL     1      -7.609  18.379 -14.869  1.00  0.00     0.048 C 
BRANCH   5   8
HETATM    8  C14 UNL     1      -9.541  17.003 -15.586  1.00  0.00     0.247 C 
HETATM    9  N2  UNL     1     -10.333  17.883 -16.366  1.00  0.00    -0.347 N 
HETATM   10  C13 UNL     1      -9.759  18.958 -17.090  1.00  0.00     0.145 C 
HETATM   11  C33 UNL     1     -11.757  17.646 -16.378  1.00  0.00     0.145 C 
HETATM   12  C12 UNL     1     -10.455  19.123 -18.436  1.00  0.00     0.145 C 
HETATM   13  N1  UNL     1     -11.857  19.283 -18.192  1.00  0.00    -0.348 N 
HETATM   14  C11 UNL     1     -12.647  20.388 -18.433  1.00  0.00     0.228 C 
HETATM   15  C34 UNL     1     -12.466  18.034 -17.623  1.00  0.00     0.145 C 
HETATM   16  O1  UNL     1     -13.890  20.303 -18.086  1.00  0.00    -0.273 OA
HETATM   17  O2  UNL     1     -10.179  16.086 -14.957  1.00  0.00    -0.271 OA
BRANCH  14  18
HETATM   18  C2  UNL     1     -12.256  21.665 -19.041  1.00  0.00     0.034 C 
HETATM   19  C1  UNL     1     -11.558  22.494 -17.924  1.00  0.00     0.025 C 
HETATM   20  C3  UNL     1     -11.226  21.438 -20.086  1.00  0.00     0.025 C 
BRANCH  18  21
HETATM   21  C4  UNL     1     -13.431  22.513 -19.423  1.00  0.00     0.023 C 
BRANCH  21  22
HETATM   22  C5  UNL     1     -13.309  23.875 -19.898  1.00  0.00    -0.013 C 
HETATM   23  C6  UNL     1     -14.072  24.982 -19.288  1.00  0.00     0.005 C 
HETATM   24  C7  UNL     1     -15.559  24.990 -19.569  1.00  0.00     0.000 C 
HETATM   25  C8  UNL     1     -15.808  25.057 -21.037  1.00  0.00     0.000 C 
HETATM   26  C9  UNL     1     -15.132  23.821 -21.644  1.00  0.00     0.000 C 
HETATM   27  C10 UNL     1     -13.663  23.885 -21.410  1.00  0.00     0.005 C 
ENDBRANCH  21  22
ENDBRANCH  18  21
ENDBRANCH  14  18
ENDBRANCH   5   8
ENDBRANCH   1   5
BRANCH   3  28
HETATM   28  C19 UNL     1      -6.756  15.876 -18.884  1.00  0.00     0.110 C 
BRANCH  28  29
HETATM   29  C20 UNL     1      -7.618  16.500 -19.933  1.00  0.00     0.098 C 
BRANCH  29  30
HETATM   30  C21 UNL     1      -6.899  17.608 -20.636  1.00  0.00     0.217 C 
HETATM   31  O4  UNL     1      -7.072  17.811 -21.847  1.00  0.00    -0.287 OA
BRANCH  30  32
HETATM   32  C22 UNL     1      -6.000  18.438 -19.867  1.00  0.00     0.290 C 
HETATM   33  O5  UNL     1      -6.463  19.179 -18.934  1.00  0.00    -0.264 OA
HETATM   34  N4  UNL     1      -4.601  18.453 -20.132  1.00  0.00    -0.332 N 
HETATM   35  C23 UNL     1      -3.815  17.741 -21.094  1.00  0.00     0.127 C 
HETATM   36  C26 UNL     1      -3.685  19.296 -19.380  1.00  0.00     0.179 C 
HETATM   37  C24 UNL     1      -2.554  18.550 -21.325  1.00  0.00     0.022 C 
HETATM   38  C25 UNL     1      -2.609  19.702 -20.355  1.00  0.00     0.037 C 
BRANCH  36  39
HETATM   39  C27 UNL     1      -3.193  18.582 -18.196  1.00  0.00     0.240 C 
HETATM   40  O6  UNL     1      -1.944  18.542 -18.023  1.00  0.00    -0.271 OA
HETATM   41  N5  UNL     1      -4.124  17.978 -17.320  1.00  0.00    -0.358 N 
ATOM     42  H5  UNL     1      -5.120  18.052 -17.528  1.00  0.00     0.162 HD
BRANCH  41  43
HETATM   43  C28 UNL     1      -3.709  17.268 -16.152  1.00  0.00     0.150 C 
BRANCH  43  44
HETATM   44  C29 UNL     1      -4.064  15.822 -16.156  1.00  0.00     0.255 C 
BRANCH  44  45
HETATM   45  N6  UNL     1      -3.025  14.930 -16.567  1.00  0.00    -0.077 N 
HETATM   46  C30 UNL     1      -3.356  13.593 -16.049  1.00  0.00     0.271 C 
HETATM   47  C31 UNL     1      -2.953  14.793 -18.015  1.00  0.00     0.271 C 
HETATM   48  C32 UNL     1      -1.699  15.307 -16.132  1.00  0.00     0.271 C 
ENDBRANCH  44  45
ENDBRANCH  43  44
ENDBRANCH  41  43
ENDBRANCH  36  39
ENDBRANCH  30  32
ENDBRANCH  29  30
ENDBRANCH  28  29
ENDBRANCH   3  28
TORSDOF 13
ENDMDL
MODEL 2
REMARK VINA RESULT: -8.578231251      4.703     10.795
REMARK  13 active torsions:
REMARK  status: ('A' for Active; 'I' for Inactive)
REMARK    1  A    between atoms: C2_2  and  C4_4 
REMARK    2  A    between atoms: C2_2  and  C11_11 
REMARK    3  A    between atoms: C4_4  and  C5_5 
REMARK       I    between atoms: C11_11  and  N1_13 
REMARK       I    between atoms: N2_16  and  C14_17 
REMARK    4  A    between atoms: C14_17  and  C15_19 
REMARK    5  A    between atoms: C15_19  and  N3_22 
REMARK       I    between atoms: N3_22  and  C18_24 
REMARK    6  A    between atoms: C18_24  and  C19_26 
REMARK    7  A    between atoms: C19_26  and  C20_27 
REMARK    8  A    between atoms: C20_27  and  C21_28 
REMARK    9  A    between atoms: C21_28  and  C22_30 
REMARK       I    between atoms: C22_30  and  N4_32 
REMARK   10  A    between atoms: C26_36  and  C27_37 
REMARK       I    between atoms: C27_37  and  N5_39 
REMARK   11  A    between atoms: N5_39  and  C28_41 
REMARK   12  A    between atoms: C28_41  and  C29_42 
REMARK   13  A    between atoms: C29_42  and  N6_43 
ROOT
HETATM    1  N3  UNL     1     -10.045  20.125 -18.320  1.00  0.00    -0.344 N 
ATOM      2  H3  UNL     1     -10.096  20.886 -17.643  1.00  0.00     0.163 HD
HETATM    3  C18 UNL     1     -10.199  20.456 -19.675  1.00  0.00     0.218 C 
HETATM    4  O3  UNL     1     -10.183  19.650 -20.641  1.00  0.00    -0.274 OA
ENDROOT
BRANCH   1   5
HETATM    5  C15 UNL     1      -9.819  18.780 -17.800  1.00  0.00     0.106 C 
HETATM    6  C16 UNL     1     -10.752  17.828 -18.493  1.00  0.00     0.048 C 
HETATM    7  C17 UNL     1      -8.364  18.472 -18.128  1.00  0.00     0.048 C 
BRANCH   5   8
HETATM    8  C14 UNL     1     -10.052  18.806 -16.345  1.00  0.00     0.247 C 
HETATM    9  N2  UNL     1     -11.158  19.388 -15.675  1.00  0.00    -0.347 N 
HETATM   10  C13 UNL     1     -12.189  20.057 -16.380  1.00  0.00     0.145 C 
HETATM   11  C33 UNL     1     -11.180  19.284 -14.235  1.00  0.00     0.145 C 
HETATM   12  C12 UNL     1     -13.544  19.758 -15.750  1.00  0.00     0.145 C 
HETATM   13  N1  UNL     1     -13.476  20.114 -14.364  1.00  0.00    -0.348 N 
HETATM   14  C11 UNL     1     -14.166  21.107 -13.702  1.00  0.00     0.228 C 
HETATM   15  C34 UNL     1     -12.525  19.229 -13.611  1.00  0.00     0.145 C 
HETATM   16  O1  UNL     1     -13.900  21.263 -12.445  1.00  0.00    -0.273 OA
HETATM   17  O2  UNL     1      -9.173  18.252 -15.596  1.00  0.00    -0.271 OA
BRANCH  14  18
HETATM   18  C2  UNL     1     -15.179  22.021 -14.243  1.00  0.00     0.034 C 
HETATM   19  C1  UNL     1     -14.518  22.755 -15.446  1.00  0.00     0.025 C 
HETATM   20  C3  UNL     1     -16.313  21.249 -14.808  1.00  0.00     0.025 C 
BRANCH  18  21
HETATM   21  C4  UNL     1     -15.521  23.135 -13.300  1.00  0.00     0.023 C 
BRANCH  21  22
HETATM   22  C5  UNL     1     -16.640  24.032 -13.500  1.00  0.00    -0.013 C 
HETATM   23  C6  UNL     1     -16.508  25.492 -13.323  1.00  0.00     0.005 C 
HETATM   24  C7  UNL     1     -16.348  25.969 -11.895  1.00  0.00     0.000 C 
HETATM   25  C8  UNL     1     -17.516  25.541 -11.073  1.00  0.00     0.000 C 
HETATM   26  C9  UNL     1     -17.556  24.010 -11.148  1.00  0.00     0.000 C 
HETATM   27  C10 UNL     1     -17.787  23.582 -12.555  1.00  0.00     0.005 C 
ENDBRANCH  21  22
ENDBRANCH  18  21
ENDBRANCH  14  18
ENDBRANCH   5   8
ENDBRANCH   1   5
BRANCH   3  28
HETATM   28  C19 UNL     1     -10.397  21.889 -20.047  1.00  0.00     0.110 C 
BRANCH  28  29
HETATM   29  C20 UNL     1     -11.821  22.199 -20.375  1.00  0.00     0.098 C 
BRANCH  29  30
HETATM   30  C21 UNL     1     -12.592  22.563 -19.146  1.00  0.00     0.217 C 
HETATM   31  O4  UNL     1     -12.007  22.893 -18.103  1.00  0.00    -0.287 OA
BRANCH  30  32
HETATM   32  C22 UNL     1     -14.035  22.525 -19.204  1.00  0.00     0.290 C 
HETATM   33  O5  UNL     1     -14.662  21.506 -18.755  1.00  0.00    -0.264 OA
HETATM   34  N4  UNL     1     -14.780  23.604 -19.759  1.00  0.00    -0.332 N 
HETATM   35  C23 UNL     1     -14.357  24.849 -20.325  1.00  0.00     0.127 C 
HETATM   36  C26 UNL     1     -16.231  23.575 -19.841  1.00  0.00     0.179 C 
HETATM   37  C24 UNL     1     -15.459  25.312 -21.257  1.00  0.00     0.022 C 
HETATM   38  C25 UNL     1     -16.584  24.322 -21.102  1.00  0.00     0.037 C 
BRANCH  36  39
HETATM   39  C27 UNL     1     -16.821  24.135 -18.619  1.00  0.00     0.240 C 
HETATM   40  O6  UNL     1     -16.895  23.377 -17.614  1.00  0.00    -0.271 OA
HETATM   41  N5  UNL     1     -17.273  25.474 -18.624  1.00  0.00    -0.358 N 
ATOM     42  H5  UNL     1     -17.180  26.026 -19.477  1.00  0.00     0.162 HD
BRANCH  41  43
HETATM   43  C28 UNL     1     -17.857  26.077 -17.468  1.00  0.00     0.150 C 
BRANCH  43  44
HETATM   44  C29 UNL     1     -18.868  27.128 -17.769  1.00  0.00     0.255 C 
BRANCH  44  45
HETATM   45  N6  UNL     1     -19.506  27.717 -16.634  1.00  0.00    -0.077 N 
HETATM   46  C30 UNL     1     -19.241  29.164 -16.676  1.00  0.00     0.271 C 
HETATM   47  C31 UNL     1     -20.955  27.573 -16.678  1.00  0.00     0.271 C 
HETATM   48  C32 UNL     1     -19.087  27.181 -15.359  1.00  0.00     0.271 C 
ENDBRANCH  44  45
ENDBRANCH  43  44
ENDBRANCH  41  43
ENDBRANCH  36  39
ENDBRANCH  30  32
ENDBRANCH  29  30
ENDBRANCH  28  29
ENDBRANCH   3  28
TORSDOF 13
ENDMDL
MODEL 3
REMARK VINA RESULT: -8.520375389      3.158     10.040
REMARK  13 active torsions:
REMARK  status: ('A' for Active; 'I' for Inactive)
REMARK    1  A    between atoms: C2_2  and  C4_4 
REMARK    2  A    between atoms: C2_2  and  C11_11 
REMARK    3  A    between atoms: C4_4  and  C5_5 
REMARK       I    between atoms: C11_11  and  N1_13 
REMARK       I    between atoms: N2_16  and  C14_17 
REMARK    4  A    between atoms: C14_17  and  C15_19 
REMARK    5  A    between atoms: C15_19  and  N3_22 
REMARK       I    between atoms: N3_22  and  C18_24 
REMARK    6  A    between atoms: C18_24  and  C19_26 
REMARK    7  A    between atoms: C19_26  and  C20_27 
REMARK    8  A    between atoms: C20_27  and  C21_28 
REMARK    9  A    between atoms: C21_28  and  C22_30 
REMARK       I    between atoms: C22_30  and  N4_32 
REMARK   10  A    between atoms: C26_36  and  C27_37 
REMARK       I    between atoms: C27_37  and  N5_39 
REMARK   11  A    between atoms: N5_39  and  C28_41 
REMARK   12  A    between atoms: C28_41  and  C29_42 
REMARK   13  A    between atoms: C29_42  and  N6_43 
ROOT
HETATM    1  N3  UNL     1     -11.298  19.757 -15.289  1.00  0.00    -0.344 N 
ATOM      2  H3  UNL     1     -10.404  19.373 -15.595  1.00  0.00     0.163 HD
HETATM    3  C18 UNL     1     -11.711  20.967 -15.866  1.00  0.00     0.218 C 
HETATM    4  O3  UNL     1     -12.770  21.593 -15.598  1.00  0.00    -0.274 OA
ENDROOT
BRANCH   1   5
HETATM    5  C15 UNL     1     -12.043  19.002 -14.286  1.00  0.00     0.106 C 
HETATM    6  C16 UNL     1     -12.263  19.877 -13.085  1.00  0.00     0.048 C 
HETATM    7  C17 UNL     1     -13.359  18.642 -14.962  1.00  0.00     0.048 C 
BRANCH   5   8
HETATM    8  C14 UNL     1     -11.262  17.800 -13.945  1.00  0.00     0.247 C 
HETATM    9  N2  UNL     1     -10.094  17.334 -14.598  1.00  0.00    -0.347 N 
HETATM   10  C13 UNL     1      -9.548  18.008 -15.720  1.00  0.00     0.145 C 
HETATM   11  C33 UNL     1      -9.489  16.129 -14.081  1.00  0.00     0.145 C 
HETATM   12  C12 UNL     1      -8.026  17.995 -15.659  1.00  0.00     0.145 C 
HETATM   13  N1  UNL     1      -7.599  16.631 -15.549  1.00  0.00    -0.348 N 
HETATM   14  C11 UNL     1      -6.876  15.886 -16.457  1.00  0.00     0.228 C 
HETATM   15  C34 UNL     1      -8.018  16.024 -14.241  1.00  0.00     0.145 C 
HETATM   16  O1  UNL     1      -6.647  14.651 -16.146  1.00  0.00    -0.273 OA
HETATM   17  O2  UNL     1     -11.672  17.089 -12.960  1.00  0.00    -0.271 OA
BRANCH  14  18
HETATM   18  C2  UNL     1      -6.324  16.317 -17.746  1.00  0.00     0.034 C 
HETATM   19  C1  UNL     1      -5.442  17.567 -17.456  1.00  0.00     0.025 C 
HETATM   20  C3  UNL     1      -5.403  15.281 -18.278  1.00  0.00     0.025 C 
BRANCH  18  21
HETATM   21  C4  UNL     1      -7.370  16.838 -18.684  1.00  0.00     0.023 C 
BRANCH  21  22
HETATM   22  C5  UNL     1      -7.300  18.141 -19.311  1.00  0.00    -0.013 C 
HETATM   23  C6  UNL     1      -8.376  19.139 -19.152  1.00  0.00     0.005 C 
HETATM   24  C7  UNL     1      -9.670  18.833 -19.877  1.00  0.00     0.000 C 
HETATM   25  C8  UNL     1      -9.423  18.696 -21.340  1.00  0.00     0.000 C 
HETATM   26  C9  UNL     1      -8.411  17.556 -21.502  1.00  0.00     0.000 C 
HETATM   27  C10 UNL     1      -7.129  17.925 -20.839  1.00  0.00     0.005 C 
ENDBRANCH  21  22
ENDBRANCH  18  21
ENDBRANCH  14  18
ENDBRANCH   5   8
ENDBRANCH   1   5
BRANCH   3  28
HETATM   28  C19 UNL     1     -10.845  21.602 -16.904  1.00  0.00     0.110 C 
BRANCH  28  29
HETATM   29  C20 UNL     1     -11.552  22.690 -17.646  1.00  0.00     0.098 C 
BRANCH  29  30
HETATM   30  C21 UNL     1     -12.174  22.169 -18.903  1.00  0.00     0.217 C 
HETATM   31  O4  UNL     1     -11.474  21.870 -19.883  1.00  0.00    -0.287 OA
BRANCH  30  32
HETATM   32  C22 UNL     1     -13.610  22.019 -18.946  1.00  0.00     0.290 C 
HETATM   33  O5  UNL     1     -14.128  20.851 -18.911  1.00  0.00    -0.264 OA
HETATM   34  N4  UNL     1     -14.469  23.153 -19.032  1.00  0.00    -0.332 N 
HETATM   35  C23 UNL     1     -14.179  24.553 -19.084  1.00  0.00     0.127 C 
HETATM   36  C26 UNL     1     -15.915  23.019 -19.094  1.00  0.00     0.179 C 
HETATM   37  C24 UNL     1     -15.362  25.229 -19.748  1.00  0.00     0.022 C 
HETATM   38  C25 UNL     1     -16.393  24.152 -19.966  1.00  0.00     0.037 C 
BRANCH  36  39
HETATM   39  C27 UNL     1     -16.483  23.012 -17.741  1.00  0.00     0.240 C 
HETATM   40  O6  UNL     1     -17.583  23.607 -17.573  1.00  0.00    -0.271 OA
HETATM   41  N5  UNL     1     -15.784  22.353 -16.704  1.00  0.00    -0.358 N 
ATOM     42  H5  UNL     1     -14.898  21.894 -16.917  1.00  0.00     0.162 HD
BRANCH  41  43
HETATM   43  C28 UNL     1     -16.283  22.312 -15.366  1.00  0.00     0.150 C 
BRANCH  43  44
HETATM   44  C29 UNL     1     -15.636  23.282 -14.440  1.00  0.00     0.255 C 
BRANCH  44  45
HETATM   45  N6  UNL     1     -16.526  24.101 -13.679  1.00  0.00    -0.077 N 
HETATM   46  C30 UNL     1     -17.384  23.207 -12.885  1.00  0.00     0.271 C 
HETATM   47  C31 UNL     1     -15.821  24.939 -12.718  1.00  0.00     0.271 C 
HETATM   48  C32 UNL     1     -17.347  24.994 -14.465  1.00  0.00     0.271 C 
ENDBRANCH  44  45
ENDBRANCH  43  44
ENDBRANCH  41  43
ENDBRANCH  36  39
ENDBRANCH  30  32
ENDBRANCH  29  30
ENDBRANCH  28  29
ENDBRANCH   3  28
TORSDOF 13
ENDMDL
MODEL 4
REMARK VINA RESULT: -8.489843868      2.278     10.164
REMARK  13 active torsions:
REMARK  status: ('A' for Active; 'I' for Inactive)
REMARK    1  A    between atoms: C2_2  and  C4_4 
REMARK    2  A    between atoms: C2_2  and  C11_11 
REMARK    3  A    between atoms: C4_4  and  C5_5 
REMARK       I    between atoms: C11_11  and  N1_13 
REMARK       I    between atoms: N2_16  and  C14_17 
REMARK    4  A    between atoms: C14_17  and  C15_19 
REMARK    5  A    between atoms: C15_19  and  N3_22 
REMARK       I    between atoms: N3_22  and  C18_24 
REMARK    6  A    between atoms: C18_24  and  C19_26 
REMARK    7  A    between atoms: C19_26  and  C20_27 
REMARK    8  A    between atoms: C20_27  and  C21_28 
REMARK    9  A    between atoms: C21_28  and  C22_30 
REMARK       I    between atoms: C22_30  and  N4_32 
REMARK   10  A    between atoms: C26_36  and  C27_37 
REMARK       I    between atoms: C27_37  and  N5_39 
REMARK   11  A    between atoms: N5_39  and  C28_41 
REMARK   12  A    between atoms: C28_41  and  C29_42 
REMARK   13  A    between atoms: C29_42  and  N6_43 
ROOT
HETATM    1  N3  UNL     1     -11.769  18.430 -14.803  1.00  0.00    -0.344 N 
ATOM      2  H3  UNL     1     -12.182  18.532 -15.730  1.00  0.00     0.163 HD
HETATM    3  C18 UNL     1     -12.390  19.105 -13.742  1.00  0.00     0.218 C 
HETATM    4  O3  UNL     1     -12.011  19.109 -12.542  1.00  0.00    -0.274 OA
ENDROOT
BRANCH   1   5
HETATM    5  C15 UNL     1     -10.578  17.594 -14.690  1.00  0.00     0.106 C 
HETATM    6  C16 UNL     1      -9.513  18.362 -13.961  1.00  0.00     0.048 C 
HETATM    7  C17 UNL     1     -11.028  16.375 -13.896  1.00  0.00     0.048 C 
BRANCH   5   8
HETATM    8  C14 UNL     1     -10.145  17.225 -16.050  1.00  0.00     0.247 C 
HETATM    9  N2  UNL     1      -8.841  16.840 -16.449  1.00  0.00    -0.347 N 
HETATM   10  C13 UNL     1      -7.763  16.793 -15.530  1.00  0.00     0.145 C 
HETATM   11  C33 UNL     1      -8.652  16.513 -17.843  1.00  0.00     0.145 C 
HETATM   12  C12 UNL     1      -6.868  15.595 -15.821  1.00  0.00     0.145 C 
HETATM   13  N1  UNL     1      -6.448  15.679 -17.188  1.00  0.00    -0.348 N 
HETATM   14  C11 UNL     1      -5.175  15.870 -17.682  1.00  0.00     0.228 C 
HETATM   15  C34 UNL     1      -7.602  15.505 -18.134  1.00  0.00     0.145 C 
HETATM   16  O1  UNL     1      -5.054  15.952 -18.967  1.00  0.00    -0.273 OA
HETATM   17  O2  UNL     1     -11.028  17.254 -16.978  1.00  0.00    -0.271 OA
BRANCH  14  18
HETATM   18  C2  UNL     1      -3.921  15.991 -16.929  1.00  0.00     0.034 C 
HETATM   19  C1  UNL     1      -4.225  16.898 -15.701  1.00  0.00     0.025 C 
HETATM   20  C3  UNL     1      -3.529  14.670 -16.374  1.00  0.00     0.025 C 
BRANCH  18  21
HETATM   21  C4  UNL     1      -2.866  16.752 -17.672  1.00  0.00     0.023 C 
BRANCH  21  22
HETATM   22  C5  UNL     1      -2.446  18.090 -17.311  1.00  0.00    -0.013 C 
HETATM   23  C6  UNL     1      -2.720  19.252 -18.180  1.00  0.00     0.005 C 
HETATM   24  C7  UNL     1      -1.917  19.319 -19.462  1.00  0.00     0.000 C 
HETATM   25  C8  UNL     1      -0.458  19.345 -19.158  1.00  0.00     0.000 C 
HETATM   26  C9  UNL     1      -0.158  18.059 -18.378  1.00  0.00     0.000 C 
HETATM   27  C10 UNL     1      -0.909  18.064 -17.093  1.00  0.00     0.005 C 
ENDBRANCH  21  22
ENDBRANCH  18  21
ENDBRANCH  14  18
ENDBRANCH   5   8
ENDBRANCH   1   5
BRANCH   3  28
HETATM   28  C19 UNL     1     -13.623  19.901 -14.020  1.00  0.00     0.110 C 
BRANCH  28  29
HETATM   29  C20 UNL     1     -14.292  19.486 -15.291  1.00  0.00     0.098 C 
BRANCH  29  30
HETATM   30  C21 UNL     1     -14.259  20.587 -16.302  1.00  0.00     0.217 C 
HETATM   31  O4  UNL     1     -14.816  21.673 -16.080  1.00  0.00    -0.287 OA
BRANCH  30  32
HETATM   32  C22 UNL     1     -13.558  20.357 -17.544  1.00  0.00     0.290 C 
HETATM   33  O5  UNL     1     -14.183  19.863 -18.544  1.00  0.00    -0.264 OA
HETATM   34  N4  UNL     1     -12.174  20.666 -17.679  1.00  0.00    -0.332 N 
HETATM   35  C23 UNL     1     -11.236  21.220 -16.750  1.00  0.00     0.127 C 
HETATM   36  C26 UNL     1     -11.449  20.425 -18.917  1.00  0.00     0.179 C 
HETATM   37  C24 UNL     1      -9.855  20.787 -17.200  1.00  0.00     0.022 C 
HETATM   38  C25 UNL     1     -10.047  20.055 -18.503  1.00  0.00     0.037 C 
BRANCH  36  39
HETATM   39  C27 UNL     1     -11.534  21.599 -19.793  1.00  0.00     0.240 C 
HETATM   40  O6  UNL     1     -10.449  22.087 -20.212  1.00  0.00    -0.271 OA
HETATM   41  N5  UNL     1     -12.805  22.124 -20.119  1.00  0.00    -0.358 N 
ATOM     42  H5  UNL     1     -13.639  21.675 -19.739  1.00  0.00     0.162 HD
BRANCH  41  43
HETATM   43  C28 UNL     1     -12.955  23.266 -20.965  1.00  0.00     0.150 C 
BRANCH  43  44
HETATM   44  C29 UNL     1     -14.367  23.599 -21.300  1.00  0.00     0.255 C 
BRANCH  44  45
HETATM   45  N6  UNL     1     -15.091  24.313 -20.295  1.00  0.00    -0.077 N 
HETATM   46  C30 UNL     1     -16.110  25.127 -20.976  1.00  0.00     0.271 C 
HETATM   47  C31 UNL     1     -15.819  23.424 -19.401  1.00  0.00     0.271 C 
HETATM   48  C32 UNL     1     -14.277  25.157 -19.450  1.00  0.00     0.271 C 
ENDBRANCH  44  45
ENDBRANCH  43  44
ENDBRANCH  41  43
ENDBRANCH  36  39
ENDBRANCH  30  32
ENDBRANCH  29  30
ENDBRANCH  28  29
ENDBRANCH   3  28
TORSDOF 13
ENDMDL
MODEL 5
REMARK VINA RESULT: -8.474663509      2.339      4.710
REMARK  13 active torsions:
REMARK  status: ('A' for Active; 'I' for Inactive)
REMARK    1  A    between atoms: C2_2  and  C4_4 
REMARK    2  A    between atoms: C2_2  and  C11_11 
REMARK    3  A    between atoms: C4_4  and  C5_5 
REMARK       I    between atoms: C11_11  and  N1_13 
REMARK       I    between atoms: N2_16  and  C14_17 
REMARK    4  A    between atoms: C14_17  and  C15_19 
REMARK    5  A    between atoms: C15_19  and  N3_22 
REMARK       I    between atoms: N3_22  and  C18_24 
REMARK    6  A    between atoms: C18_24  and  C19_26 
REMARK    7  A    between atoms: C19_26  and  C20_27 
REMARK    8  A    between atoms: C20_27  and  C21_28 
REMARK    9  A    between atoms: C21_28  and  C22_30 
REMARK       I    between atoms: C22_30  and  N4_32 
REMARK   10  A    between atoms: C26_36  and  C27_37 
REMARK       I    between atoms: C27_37  and  N5_39 
REMARK   11  A    between atoms: N5_39  and  C28_41 
REMARK   12  A    between atoms: C28_41  and  C29_42 
REMARK   13  A    between atoms: C29_42  and  N6_43 
ROOT
HETATM    1  N3  UNL     1      -7.603  16.399 -15.063  1.00  0.00    -0.344 N 
ATOM      2  H3  UNL     1      -6.717  16.723 -15.452  1.00  0.00     0.163 HD
HETATM    3  C18 UNL     1      -7.664  15.070 -14.617  1.00  0.00     0.218 C 
HETATM    4  O3  UNL     1      -8.673  14.497 -14.129  1.00  0.00    -0.274 OA
ENDROOT
BRANCH   1   5
HETATM    5  C15 UNL     1      -8.704  17.356 -15.016  1.00  0.00     0.106 C 
HETATM    6  C16 UNL     1      -9.555  17.059 -13.816  1.00  0.00     0.048 C 
HETATM    7  C17 UNL     1      -8.035  18.719 -14.901  1.00  0.00     0.048 C 
BRANCH   5   8
HETATM    8  C14 UNL     1      -9.472  17.233 -16.269  1.00  0.00     0.247 C 
HETATM    9  N2  UNL     1     -10.378  18.183 -16.805  1.00  0.00    -0.347 N 
HETATM   10  C13 UNL     1     -10.663  19.399 -16.136  1.00  0.00     0.145 C 
HETATM   11  C33 UNL     1     -11.012  17.849 -18.058  1.00  0.00     0.145 C 
HETATM   12  C12 UNL     1     -10.803  20.537 -17.141  1.00  0.00     0.145 C 
HETATM   13  N1  UNL     1     -11.803  20.162 -18.096  1.00  0.00    -0.348 N 
HETATM   14  C11 UNL     1     -13.034  20.743 -18.318  1.00  0.00     0.228 C 
HETATM   15  C34 UNL     1     -11.360  18.996 -18.932  1.00  0.00     0.145 C 
HETATM   16  O1  UNL     1     -13.784  20.193 -19.218  1.00  0.00    -0.273 OA
HETATM   17  O2  UNL     1      -9.318  16.160 -16.953  1.00  0.00    -0.271 OA
BRANCH  14  18
HETATM   18  C2  UNL     1     -13.612  21.920 -17.659  1.00  0.00     0.034 C 
HETATM   19  C1  UNL     1     -12.817  23.154 -18.176  1.00  0.00     0.025 C 
HETATM   20  C3  UNL     1     -15.013  22.119 -18.107  1.00  0.00     0.025 C 
BRANCH  18  21
HETATM   21  C4  UNL     1     -13.366  21.939 -16.181  1.00  0.00     0.023 C 
BRANCH  21  22
HETATM   22  C5  UNL     1     -14.375  21.601 -15.200  1.00  0.00    -0.013 C 
HETATM   23  C6  UNL     1     -14.303  22.088 -13.809  1.00  0.00     0.005 C 
HETATM   24  C7  UNL     1     -13.224  21.465 -12.949  1.00  0.00     0.000 C 
HETATM   25  C8  UNL     1     -13.408  19.988 -12.877  1.00  0.00     0.000 C 
HETATM   26  C9  UNL     1     -13.336  19.474 -14.320  1.00  0.00     0.000 C 
HETATM   27  C10 UNL     1     -14.455  20.052 -15.115  1.00  0.00     0.005 C 
ENDBRANCH  21  22
ENDBRANCH  18  21
ENDBRANCH  14  18
ENDBRANCH   5   8
ENDBRANCH   1   5
BRANCH   3  28
HETATM   28  C19 UNL     1      -6.437  14.224 -14.709  1.00  0.00     0.110 C 
BRANCH  28  29
HETATM   29  C20 UNL     1      -5.868  14.195 -16.091  1.00  0.00     0.098 C 
BRANCH  29  30
HETATM   30  C21 UNL     1      -4.374  14.245 -16.061  1.00  0.00     0.217 C 
HETATM   31  O4  UNL     1      -3.734  13.637 -15.190  1.00  0.00    -0.287 OA
BRANCH  30  32
HETATM   32  C22 UNL     1      -3.693  15.015 -17.077  1.00  0.00     0.290 C 
HETATM   33  O5  UNL     1      -3.734  14.634 -18.296  1.00  0.00    -0.264 OA
HETATM   34  N4  UNL     1      -2.967  16.195 -16.745  1.00  0.00    -0.332 N 
HETATM   35  C23 UNL     1      -2.753  16.850 -15.491  1.00  0.00     0.127 C 
HETATM   36  C26 UNL     1      -2.262  16.972 -17.752  1.00  0.00     0.179 C 
HETATM   37  C24 UNL     1      -1.480  17.662 -15.623  1.00  0.00     0.022 C 
HETATM   38  C25 UNL     1      -1.044  17.528 -17.059  1.00  0.00     0.037 C 
BRANCH  36  39
HETATM   39  C27 UNL     1      -3.152  17.989 -18.325  1.00  0.00     0.240 C 
HETATM   40  O6  UNL     1      -2.962  19.186 -17.975  1.00  0.00    -0.271 OA
HETATM   41  N5  UNL     1      -4.165  17.588 -19.225  1.00  0.00    -0.358 N 
ATOM     42  H5  UNL     1      -4.257  16.599 -19.460  1.00  0.00     0.162 HD
BRANCH  41  43
HETATM   43  C28 UNL     1      -5.064  18.528 -19.816  1.00  0.00     0.150 C 
BRANCH  43  44
HETATM   44  C29 UNL     1      -6.017  17.934 -20.793  1.00  0.00     0.255 C 
BRANCH  44  45
HETATM   45  N6  UNL     1      -7.375  17.842 -20.358  1.00  0.00    -0.077 N 
HETATM   46  C30 UNL     1      -7.567  16.503 -19.778  1.00  0.00     0.271 C 
HETATM   47  C31 UNL     1      -7.680  18.788 -19.294  1.00  0.00     0.271 C 
HETATM   48  C32 UNL     1      -8.358  18.070 -21.394  1.00  0.00     0.271 C 
ENDBRANCH  44  45
ENDBRANCH  43  44
ENDBRANCH  41  43
ENDBRANCH  36  39
ENDBRANCH  30  32
ENDBRANCH  29  30
ENDBRANCH  28  29
ENDBRANCH   3  28
TORSDOF 13
ENDMDL
