MODEL 1
REMARK VINA RESULT: -10.084204064      0.000      0.000
REMARK  12 active torsions:
REMARK  status: ('A' for Active; 'I' for Inactive)
REMARK    1  A    between atoms: C2_2  and  C3_3 
REMARK    2  A    between atoms: C3_3  and  C4_4 
REMARK    3  A    between atoms: C4_4  and  N1_5 
REMARK    4  A    between atoms: C4_4  and  C22_31 
REMARK       I    between atoms: N1_5  and  C5_7 
REMARK    5  A    between atoms: C5_7  and  C6_9 
REMARK       I    between atoms: N2_13  and  C10_14 
REMARK    6  A    between atoms: C10_14  and  C11_16 
REMARK    7  A    between atoms: C15_20  and  C16_21 
REMARK    8  A    between atoms: C17_22  and  C18_23 
REMARK    9  A    between atoms: C18_23  and  C19_24 
REMARK   10  A    between atoms: C19_24  and  N3_25 
REMARK   11  A    between atoms: C22_31  and  C23_33 
REMARK       I    between atoms: C23_33  and  N5_35 
REMARK       I    between atoms: N6_38  and  C26_39 
REMARK   12  A    between atoms: C26_39  and  C27_41 
REMARK       I    between atoms: N7_44  and  C30_45 
ROOT
HETATM    1  C4  UNL     1      -6.482  17.007 -18.297  1.00  0.00     0.164 C 
ENDROOT
BRANCH   1   2
HETATM    2  C3  UNL     1      -5.021  16.642 -18.374  1.00  0.00     0.033 C 
BRANCH   2   3
HETATM    3  C2  UNL     1      -4.209  17.624 -19.176  1.00  0.00    -0.002 C 
HETATM    4  C1  UNL     1      -3.248  18.372 -18.269  1.00  0.00     0.005 C 
ENDBRANCH   2   3
ENDBRANCH   1   2
BRANCH   1   5
HETATM    5  N1  UNL     1      -7.068  16.516 -17.058  1.00  0.00    -0.347 N 
HETATM    6  C5  UNL     1      -6.590  16.871 -15.778  1.00  0.00     0.241 C 
HETATM    7  O1  UNL     1      -5.617  17.652 -15.730  1.00  0.00    -0.271 OA
ATOM      8  H1  UNL     1      -7.866  15.882 -17.118  1.00  0.00     0.163 HD
BRANCH   6   9
HETATM    9  C6  UNL     1      -7.279  16.288 -14.583  1.00  0.00     0.179 C 
HETATM   10  C7  UNL     1      -7.221  14.793 -14.630  1.00  0.00     0.037 C 
HETATM   11  C8  UNL     1      -8.636  14.343 -14.491  1.00  0.00     0.022 C 
HETATM   12  C9  UNL     1      -9.437  15.522 -14.088  1.00  0.00     0.127 C 
HETATM   13  N2  UNL     1      -8.620  16.667 -14.411  1.00  0.00    -0.338 N 
HETATM   14  C10 UNL     1      -9.213  17.992 -14.488  1.00  0.00     0.224 C 
HETATM   15  O2  UNL     1      -8.432  18.941 -14.702  1.00  0.00    -0.273 OA
BRANCH  14  16
HETATM   16  C11 UNL     1     -10.671  18.209 -14.320  1.00  0.00     0.079 C 
HETATM   17  C12 UNL     1     -11.415  17.147 -15.093  1.00  0.00     0.014 C 
HETATM   18  C13 UNL     1     -11.540  17.424 -16.550  1.00  0.00     0.002 C 
HETATM   19  C14 UNL     1     -12.065  18.782 -16.855  1.00  0.00     0.008 C 
HETATM   20  C15 UNL     1     -12.191  19.693 -15.654  1.00  0.00     0.009 C 
HETATM   21  C21 UNL     1     -11.020  19.600 -14.736  1.00  0.00     0.022 C 
BRANCH  20  22
HETATM   22  C16 UNL     1     -13.518  19.623 -15.002  1.00  0.00    -0.026 C 
HETATM   23  C17 UNL     1     -14.574  20.355 -15.314  1.00  0.00    -0.029 C 
BRANCH  23  24
HETATM   24  C18 UNL     1     -15.881  20.237 -14.619  1.00  0.00     0.048 C 
BRANCH  24  25
HETATM   25  C19 UNL     1     -16.952  21.068 -15.264  1.00  0.00     0.145 C 
BRANCH  25  26
HETATM   26  N3  UNL     1     -16.713  22.445 -14.897  1.00  0.00    -0.338 N 
HETATM   27  C20 UNL     1     -16.688  22.896 -13.528  1.00  0.00     0.170 C 
HETATM   28  N4  UNL     1     -16.512  23.324 -15.758  1.00  0.00    -0.348 N 
ATOM     29  H42 UNL     1     -16.530  23.005 -16.727  1.00  0.00     0.176 HD
ATOM     30  H41 UNL     1     -16.344  24.295 -15.499  1.00  0.00     0.176 HD
ENDBRANCH  25  26
ENDBRANCH  24  25
ENDBRANCH  23  24
ENDBRANCH  20  22
ENDBRANCH  14  16
ENDBRANCH   6   9
ENDBRANCH   1   5
BRANCH   1  31
HETATM   31  C22 UNL     1      -7.270  16.457 -19.455  1.00  0.00     0.239 C 
HETATM   32  O3  UNL     1      -7.170  15.231 -19.651  1.00  0.00    -0.285 OA
BRANCH  31  33
HETATM   33  C23 UNL     1      -8.102  17.280 -20.304  1.00  0.00     0.291 C 
HETATM   34  O4  UNL     1      -8.116  16.928 -21.549  1.00  0.00    -0.264 OA
HETATM   35  N5  UNL     1      -8.880  18.383 -19.977  1.00  0.00    -0.342 N 
HETATM   36  C24 UNL     1      -9.667  19.019 -21.044  1.00  0.00     0.146 C 
HETATM   37  C34 UNL     1      -8.972  18.981 -18.679  1.00  0.00     0.146 C 
HETATM   38  C25 UNL     1     -10.854  19.806 -20.493  1.00  0.00     0.145 C 
HETATM   39  N6  UNL     1     -10.429  20.693 -19.441  1.00  0.00    -0.349 N 
HETATM   40  C26 UNL     1     -11.216  21.738 -18.943  1.00  0.00     0.224 C 
HETATM   41  C33 UNL     1      -9.094  20.495 -18.850  1.00  0.00     0.145 C 
HETATM   42  O5  UNL     1     -10.703  22.427 -17.988  1.00  0.00    -0.273 OA
BRANCH  40  43
HETATM   43  C27 UNL     1     -12.557  22.162 -19.366  1.00  0.00     0.081 C 
HETATM   44  C28 UNL     1     -12.712  23.626 -19.617  1.00  0.00     0.034 C 
HETATM   45  C29 UNL     1     -14.035  23.784 -20.384  1.00  0.00     0.126 C 
HETATM   46  N7  UNL     1     -15.059  23.380 -19.409  1.00  0.00    -0.356 N 
HETATM   47  C30 UNL     1     -16.100  24.270 -19.038  1.00  0.00     0.183 C 
HETATM   48  C31 UNL     1     -15.003  22.064 -18.822  1.00  0.00     0.126 C 
HETATM   49  N8  UNL     1     -15.903  25.534 -18.935  1.00  0.00    -0.374 N 
HETATM   50  N9  UNL     1     -17.382  23.717 -18.780  1.00  0.00    -0.064 NA
ATOM     51  H82 UNL     1     -14.982  25.931 -19.120  1.00  0.00     0.158 HD
ATOM     52  H81 UNL     1     -16.652  26.173 -18.667  1.00  0.00     0.158 HD
HETATM   53  C32 UNL     1     -13.599  21.637 -18.445  1.00  0.00     0.034 C 
ENDBRANCH  40  43
ENDBRANCH  31  33
ENDBRANCH   1  31
TORSDOF 12
ENDMDL
MODEL 2
REMARK VINA RESULT: -9.847362200      3.507      9.088
REMARK  12 active torsions:
REMARK  status: ('A' for Active; 'I' for Inactive)
REMARK    1  A    between atoms: C2_2  and  C3_3 
REMARK    2  A    between atoms: C3_3  and  C4_4 
REMARK    3  A    between atoms: C4_4  and  N1_5 
REMARK    4  A    between atoms: C4_4  and  C22_31 
REMARK       I    between atoms: N1_5  and  C5_7 
REMARK    5  A    between atoms: C5_7  and  C6_9 
REMARK       I    between atoms: N2_13  and  C10_14 
REMARK    6  A    between atoms: C10_14  and  C11_16 
REMARK    7  A    between atoms: C15_20  and  C16_21 
REMARK    8  A    between atoms: C17_22  and  C18_23 
REMARK    9  A    between atoms: C18_23  and  C19_24 
REMARK   10  A    between atoms: C19_24  and  N3_25 
REMARK   11  A    between atoms: C22_31  and  C23_33 
REMARK       I    between atoms: C23_33  and  N5_35 
REMARK       I    between atoms: N6_38  and  C26_39 
REMARK   12  A    between atoms: C26_39  and  C27_41 
REMARK       I    between atoms: N7_44  and  C30_45 
ROOT
HETATM    1  C4  UNL     1     -13.203  22.174 -18.563  1.00  0.00     0.164 C 
ENDROOT
BRANCH   1   2
HETATM    2  C3  UNL     1     -14.061  22.595 -19.729  1.00  0.00     0.033 C 
BRANCH   2   3
HETATM    3  C2  UNL     1     -13.697  23.952 -20.269  1.00  0.00    -0.002 C 
HETATM    4  C1  UNL     1     -12.823  23.807 -21.502  1.00  0.00     0.005 C 
ENDBRANCH   2   3
ENDBRANCH   1   2
BRANCH   1   5
HETATM    5  N1  UNL     1     -12.082  21.363 -19.020  1.00  0.00    -0.347 N 
HETATM    6  C5  UNL     1     -10.732  21.735 -18.842  1.00  0.00     0.241 C 
HETATM    7  O1  UNL     1     -10.511  22.815 -18.256  1.00  0.00    -0.271 OA
ATOM      8  H1  UNL     1     -12.283  20.482 -19.492  1.00  0.00     0.163 HD
BRANCH   6   9
HETATM    9  C6  UNL     1      -9.674  20.813 -19.365  1.00  0.00     0.179 C 
HETATM   10  C7  UNL     1      -9.980  20.424 -20.778  1.00  0.00     0.037 C 
HETATM   11  C8  UNL     1      -9.956  18.933 -20.787  1.00  0.00     0.022 C 
HETATM   12  C9  UNL     1      -9.373  18.493 -19.498  1.00  0.00     0.127 C 
HETATM   13  N2  UNL     1      -9.471  19.638 -18.624  1.00  0.00    -0.338 N 
HETATM   14  C10 UNL     1      -9.330  19.477 -17.186  1.00  0.00     0.224 C 
HETATM   15  O2  UNL     1      -9.356  20.520 -16.503  1.00  0.00    -0.273 OA
BRANCH  14  16
HETATM   16  C11 UNL     1      -9.163  18.143 -16.560  1.00  0.00     0.079 C 
HETATM   17  C12 UNL     1     -10.476  17.401 -16.632  1.00  0.00     0.014 C 
HETATM   18  C13 UNL     1     -11.451  17.778 -15.572  1.00  0.00     0.002 C 
HETATM   19  C14 UNL     1     -10.883  17.738 -14.199  1.00  0.00     0.008 C 
HETATM   20  C15 UNL     1      -9.388  17.515 -14.142  1.00  0.00     0.009 C 
HETATM   21  C21 UNL     1      -8.648  18.305 -15.168  1.00  0.00     0.022 C 
BRANCH  20  22
HETATM   22  C16 UNL     1      -9.011  16.087 -14.046  1.00  0.00    -0.026 C 
HETATM   23  C17 UNL     1      -7.796  15.593 -14.218  1.00  0.00    -0.029 C 
BRANCH  23  24
HETATM   24  C18 UNL     1      -7.482  14.146 -14.109  1.00  0.00     0.048 C 
BRANCH  24  25
HETATM   25  C19 UNL     1      -6.735  13.629 -15.304  1.00  0.00     0.145 C 
BRANCH  25  26
HETATM   26  N3  UNL     1      -5.393  13.312 -14.872  1.00  0.00    -0.338 N 
HETATM   27  C20 UNL     1      -4.233  14.037 -15.327  1.00  0.00     0.170 C 
HETATM   28  N4  UNL     1      -5.168  12.381 -14.073  1.00  0.00    -0.348 N 
ATOM     29  H42 UNL     1      -5.988  11.868 -13.751  1.00  0.00     0.176 HD
ATOM     30  H41 UNL     1      -4.221  12.158 -13.768  1.00  0.00     0.176 HD
ENDBRANCH  25  26
ENDBRANCH  24  25
ENDBRANCH  23  24
ENDBRANCH  20  22
ENDBRANCH  14  16
ENDBRANCH   6   9
ENDBRANCH   1   5
BRANCH   1  31
HETATM   31  C22 UNL     1     -13.977  21.393 -17.537  1.00  0.00     0.239 C 
HETATM   32  O3  UNL     1     -14.773  20.544 -17.982  1.00  0.00    -0.285 OA
BRANCH  31  33
HETATM   33  C23 UNL     1     -13.823  21.593 -16.113  1.00  0.00     0.291 C 
HETATM   34  O4  UNL     1     -12.686  21.204 -15.635  1.00  0.00    -0.264 OA
HETATM   35  N5  UNL     1     -14.712  22.138 -15.196  1.00  0.00    -0.342 N 
HETATM   36  C24 UNL     1     -14.280  22.259 -13.796  1.00  0.00     0.146 C 
HETATM   37  C34 UNL     1     -16.043  22.580 -15.490  1.00  0.00     0.146 C 
HETATM   38  C25 UNL     1     -15.062  23.332 -13.042  1.00  0.00     0.145 C 
HETATM   39  N6  UNL     1     -16.479  23.149 -13.226  1.00  0.00    -0.349 N 
HETATM   40  C26 UNL     1     -17.451  23.782 -12.444  1.00  0.00     0.224 C 
HETATM   41  C33 UNL     1     -16.939  22.246 -14.298  1.00  0.00     0.145 C 
HETATM   42  O5  UNL     1     -18.674  23.532 -12.747  1.00  0.00    -0.273 OA
BRANCH  40  43
HETATM   43  C27 UNL     1     -17.266  24.699 -11.312  1.00  0.00     0.081 C 
HETATM   44  C28 UNL     1     -18.483  24.936 -10.478  1.00  0.00     0.034 C 
HETATM   45  C29 UNL     1     -17.984  25.598  -9.183  1.00  0.00     0.126 C 
HETATM   46  N7  UNL     1     -17.479  26.905  -9.627  1.00  0.00    -0.356 N 
HETATM   47  C30 UNL     1     -18.003  28.108  -9.089  1.00  0.00     0.183 C 
HETATM   48  C31 UNL     1     -16.438  26.963 -10.623  1.00  0.00     0.126 C 
HETATM   49  N8  UNL     1     -19.243  28.226  -8.780  1.00  0.00    -0.374 N 
HETATM   50  N9  UNL     1     -17.107  29.194  -8.899  1.00  0.00    -0.064 NA
ATOM     51  H82 UNL     1     -19.887  27.446  -8.916  1.00  0.00     0.158 HD
ATOM     52  H81 UNL     1     -19.620  29.091  -8.393  1.00  0.00     0.158 HD
HETATM   53  C32 UNL     1     -16.632  25.970 -11.750  1.00  0.00     0.034 C 
ENDBRANCH  40  43
ENDBRANCH  31  33
ENDBRANCH   1  31
TORSDOF 12
ENDMDL
MODEL 3
REMARK VINA RESULT: -9.828873333      3.268      6.902
REMARK  12 active torsions:
REMARK  status: ('A' for Active; 'I' for Inactive)
REMARK    1  A    between atoms: C2_2  and  C3_3 
REMARK    2  A    between atoms: C3_3  and  C4_4 
REMARK    3  A    between atoms: C4_4  and  N1_5 
REMARK    4  A    between atoms: C4_4  and  C22_31 
REMARK       I    between atoms: N1_5  and  C5_7 
REMARK    5  A    between atoms: C5_7  and  C6_9 
REMARK       I    between atoms: N2_13  and  C10_14 
REMARK    6  A    between atoms: C10_14  and  C11_16 
REMARK    7  A    between atoms: C15_20  and  C16_21 
REMARK    8  A    between atoms: C17_22  and  C18_23 
REMARK    9  A    between atoms: C18_23  and  C19_24 
REMARK   10  A    between atoms: C19_24  and  N3_25 
REMARK   11  A    between atoms: C22_31  and  C23_33 
REMARK       I    between atoms: C23_33  and  N5_35 
REMARK       I    between atoms: N6_38  and  C26_39 
REMARK   12  A    between atoms: C26_39  and  C27_41 
REMARK       I    between atoms: N7_44  and  C30_45 
ROOT
HETATM    1  C4  UNL     1      -7.176  15.942 -16.400  1.00  0.00     0.164 C 
ENDROOT
BRANCH   1   2
HETATM    2  C3  UNL     1      -6.811  14.692 -15.639  1.00  0.00     0.033 C 
BRANCH   2   3
HETATM    3  C2  UNL     1      -7.937  14.173 -14.785  1.00  0.00    -0.002 C 
HETATM    4  C1  UNL     1      -7.556  14.246 -13.317  1.00  0.00     0.005 C 
ENDBRANCH   2   3
ENDBRANCH   1   2
BRANCH   1   5
HETATM    5  N1  UNL     1      -8.391  16.536 -15.857  1.00  0.00    -0.347 N 
HETATM    6  C5  UNL     1      -8.402  17.736 -15.115  1.00  0.00     0.241 C 
HETATM    7  O1  UNL     1      -7.305  18.303 -14.931  1.00  0.00    -0.271 OA
ATOM      8  H1  UNL     1      -9.278  16.060 -16.022  1.00  0.00     0.163 HD
BRANCH   6   9
HETATM    9  C6  UNL     1      -9.719  18.236 -14.606  1.00  0.00     0.179 C 
HETATM   10  C7  UNL     1     -10.479  17.122 -13.955  1.00  0.00     0.037 C 
HETATM   11  C8  UNL     1     -11.809  17.110 -14.629  1.00  0.00     0.022 C 
HETATM   12  C9  UNL     1     -11.910  18.353 -15.428  1.00  0.00     0.127 C 
HETATM   13  N2  UNL     1     -10.555  18.831 -15.565  1.00  0.00    -0.338 N 
HETATM   14  C10 UNL     1     -10.224  19.820 -16.577  1.00  0.00     0.224 C 
HETATM   15  O2  UNL     1      -9.048  20.236 -16.588  1.00  0.00    -0.273 OA
BRANCH  14  16
HETATM   16  C11 UNL     1     -11.231  20.314 -17.548  1.00  0.00     0.079 C 
HETATM   17  C12 UNL     1     -10.992  19.648 -18.881  1.00  0.00     0.014 C 
HETATM   18  C13 UNL     1      -9.906  20.268 -19.689  1.00  0.00     0.002 C 
HETATM   19  C14 UNL     1     -10.042  21.742 -19.838  1.00  0.00     0.008 C 
HETATM   20  C15 UNL     1     -11.132  22.362 -18.993  1.00  0.00     0.009 C 
HETATM   21  C21 UNL     1     -11.176  21.805 -17.610  1.00  0.00     0.022 C 
BRANCH  20  22
HETATM   22  C16 UNL     1     -12.437  22.445 -19.687  1.00  0.00    -0.026 C 
HETATM   23  C17 UNL     1     -12.845  23.444 -20.451  1.00  0.00    -0.029 C 
BRANCH  23  24
HETATM   24  C18 UNL     1     -14.170  23.468 -21.121  1.00  0.00     0.048 C 
BRANCH  24  25
HETATM   25  C19 UNL     1     -14.915  24.747 -20.875  1.00  0.00     0.145 C 
BRANCH  25  26
HETATM   26  N3  UNL     1     -16.149  24.409 -20.204  1.00  0.00    -0.338 N 
HETATM   27  C20 UNL     1     -16.193  23.620 -18.999  1.00  0.00     0.170 C 
HETATM   28  N4  UNL     1     -17.254  24.789 -20.640  1.00  0.00    -0.348 N 
ATOM     29  H42 UNL     1     -17.223  25.348 -21.494  1.00  0.00     0.176 HD
ATOM     30  H41 UNL     1     -18.125  24.551 -20.167  1.00  0.00     0.176 HD
ENDBRANCH  25  26
ENDBRANCH  24  25
ENDBRANCH  23  24
ENDBRANCH  20  22
ENDBRANCH  14  16
ENDBRANCH   6   9
ENDBRANCH   1   5
BRANCH   1  31
HETATM   31  C22 UNL     1      -7.384  15.677 -17.867  1.00  0.00     0.239 C 
HETATM   32  O3  UNL     1      -7.920  14.591 -18.155  1.00  0.00    -0.285 OA
BRANCH  31  33
HETATM   33  C23 UNL     1      -6.994  16.611 -18.899  1.00  0.00     0.291 C 
HETATM   34  O4  UNL     1      -7.813  16.682 -19.898  1.00  0.00    -0.264 OA
HETATM   35  N5  UNL     1      -5.878  17.434 -18.971  1.00  0.00    -0.342 N 
HETATM   36  C24 UNL     1      -5.746  18.325 -20.133  1.00  0.00     0.146 C 
HETATM   37  C34 UNL     1      -4.816  17.481 -18.011  1.00  0.00     0.146 C 
HETATM   38  C25 UNL     1      -4.844  19.522 -19.841  1.00  0.00     0.145 C 
HETATM   39  N6  UNL     1      -3.598  19.088 -19.264  1.00  0.00    -0.349 N 
HETATM   40  C26 UNL     1      -2.467  19.905 -19.156  1.00  0.00     0.224 C 
HETATM   41  C33 UNL     1      -3.500  17.708 -18.756  1.00  0.00     0.145 C 
HETATM   42  O5  UNL     1      -1.438  19.376 -18.596  1.00  0.00    -0.273 OA
BRANCH  40  43
HETATM   43  C27 UNL     1      -2.289  21.294 -19.598  1.00  0.00     0.081 C 
HETATM   44  C28 UNL     1      -3.319  22.257 -19.103  1.00  0.00     0.034 C 
HETATM   45  C29 UNL     1      -2.745  23.659 -19.365  1.00  0.00     0.126 C 
HETATM   46  N7  UNL     1      -2.703  23.755 -20.831  1.00  0.00    -0.356 N 
HETATM   47  C30 UNL     1      -3.394  24.790 -21.512  1.00  0.00     0.183 C 
HETATM   48  C31 UNL     1      -1.950  22.784 -21.586  1.00  0.00     0.126 C 
HETATM   49  N8  UNL     1      -4.527  25.231 -21.100  1.00  0.00    -0.374 N 
HETATM   50  N9  UNL     1      -2.792  25.332 -22.678  1.00  0.00    -0.064 NA
ATOM     51  H82 UNL     1      -4.959  24.841 -20.262  1.00  0.00     0.158 HD
ATOM     52  H81 UNL     1      -5.024  25.975 -21.589  1.00  0.00     0.158 HD
HETATM   53  C32 UNL     1      -2.115  21.368 -21.072  1.00  0.00     0.034 C 
ENDBRANCH  40  43
ENDBRANCH  31  33
ENDBRANCH   1  31
TORSDOF 12
ENDMDL
MODEL 4
REMARK VINA RESULT: -9.612157401      3.145      8.109
REMARK  12 active torsions:
REMARK  status: ('A' for Active; 'I' for Inactive)
REMARK    1  A    between atoms: C2_2  and  C3_3 
REMARK    2  A    between atoms: C3_3  and  C4_4 
REMARK    3  A    between atoms: C4_4  and  N1_5 
REMARK    4  A    between atoms: C4_4  and  C22_31 
REMARK       I    between atoms: N1_5  and  C5_7 
REMARK    5  A    between atoms: C5_7  and  C6_9 
REMARK       I    between atoms: N2_13  and  C10_14 
REMARK    6  A    between atoms: C10_14  and  C11_16 
REMARK    7  A    between atoms: C15_20  and  C16_21 
REMARK    8  A    between atoms: C17_22  and  C18_23 
REMARK    9  A    between atoms: C18_23  and  C19_24 
REMARK   10  A    between atoms: C19_24  and  N3_25 
REMARK   11  A    between atoms: C22_31  and  C23_33 
REMARK       I    between atoms: C23_33  and  N5_35 
REMARK       I    between atoms: N6_38  and  C26_39 
REMARK   12  A    between atoms: C26_39  and  C27_41 
REMARK       I    between atoms: N7_44  and  C30_45 
ROOT
HETATM    1  C4  UNL     1      -9.400  16.433 -15.348  1.00  0.00     0.164 C 
ENDROOT
BRANCH   1   2
HETATM    2  C3  UNL     1     -10.381  16.056 -14.267  1.00  0.00     0.033 C 
BRANCH   2   3
HETATM    3  C2  UNL     1     -11.325  17.174 -13.912  1.00  0.00    -0.002 C 
HETATM    4  C1  UNL     1     -10.849  17.881 -12.656  1.00  0.00     0.005 C 
ENDBRANCH   2   3
ENDBRANCH   1   2
BRANCH   1   5
HETATM    5  N1  UNL     1     -10.102  16.847 -16.556  1.00  0.00    -0.347 N 
HETATM    6  C5  UNL     1      -9.747  17.987 -17.308  1.00  0.00     0.241 C 
HETATM    7  O1  UNL     1      -8.775  18.657 -16.903  1.00  0.00    -0.271 OA
ATOM      8  H1  UNL     1     -10.891  16.283 -16.874  1.00  0.00     0.163 HD
BRANCH   6   9
HETATM    9  C6  UNL     1     -10.557  18.305 -18.527  1.00  0.00     0.179 C 
HETATM   10  C7  UNL     1      -9.655  18.647 -19.673  1.00  0.00     0.037 C 
HETATM   11  C8  UNL     1     -10.130  19.973 -20.162  1.00  0.00     0.022 C 
HETATM   12  C9  UNL     1     -11.433  20.242 -19.511  1.00  0.00     0.127 C 
HETATM   13  N2  UNL     1     -11.490  19.345 -18.383  1.00  0.00    -0.338 N 
HETATM   14  C10 UNL     1     -12.448  19.570 -17.313  1.00  0.00     0.224 C 
HETATM   15  O2  UNL     1     -12.486  18.713 -16.408  1.00  0.00    -0.273 OA
BRANCH  14  16
HETATM   16  C11 UNL     1     -13.340  20.756 -17.297  1.00  0.00     0.079 C 
HETATM   17  C12 UNL     1     -12.823  21.741 -16.276  1.00  0.00     0.014 C 
HETATM   18  C13 UNL     1     -13.210  21.429 -14.874  1.00  0.00     0.002 C 
HETATM   19  C14 UNL     1     -14.666  21.182 -14.698  1.00  0.00     0.008 C 
HETATM   20  C15 UNL     1     -15.452  21.102 -15.989  1.00  0.00     0.009 C 
HETATM   21  C21 UNL     1     -14.746  20.321 -17.045  1.00  0.00     0.022 C 
BRANCH  20  22
HETATM   22  C16 UNL     1     -16.000  22.407 -16.423  1.00  0.00    -0.026 C 
HETATM   23  C17 UNL     1     -16.400  22.710 -17.647  1.00  0.00    -0.029 C 
BRANCH  23  24
HETATM   24  C18 UNL     1     -16.942  24.040 -18.020  1.00  0.00     0.048 C 
BRANCH  24  25
HETATM   25  C19 UNL     1     -16.762  24.345 -19.479  1.00  0.00     0.145 C 
BRANCH  25  26
HETATM   26  N3  UNL     1     -15.347  24.520 -19.715  1.00  0.00    -0.338 N 
HETATM   27  C20 UNL     1     -14.637  23.828 -20.762  1.00  0.00     0.170 C 
HETATM   28  N4  UNL     1     -14.660  25.290 -19.015  1.00  0.00    -0.348 N 
ATOM     29  H42 UNL     1     -15.161  25.780 -18.274  1.00  0.00     0.176 HD
ATOM     30  H41 UNL     1     -13.662  25.413 -19.181  1.00  0.00     0.176 HD
ENDBRANCH  25  26
ENDBRANCH  24  25
ENDBRANCH  23  24
ENDBRANCH  20  22
ENDBRANCH  14  16
ENDBRANCH   6   9
ENDBRANCH   1   5
BRANCH   1  31
HETATM   31  C22 UNL     1      -8.469  15.303 -15.695  1.00  0.00     0.239 C 
HETATM   32  O3  UNL     1      -8.536  14.296 -14.964  1.00  0.00    -0.285 OA
BRANCH  31  33
HETATM   33  C23 UNL     1      -7.545  15.355 -16.805  1.00  0.00     0.291 C 
HETATM   34  O4  UNL     1      -7.881  14.627 -17.820  1.00  0.00    -0.264 OA
HETATM   35  N5  UNL     1      -6.360  16.068 -16.936  1.00  0.00    -0.342 N 
HETATM   36  C24 UNL     1      -5.625  15.967 -18.205  1.00  0.00     0.146 C 
HETATM   37  C34 UNL     1      -5.769  16.891 -15.924  1.00  0.00     0.146 C 
HETATM   38  C25 UNL     1      -4.708  17.165 -18.437  1.00  0.00     0.145 C 
HETATM   39  N6  UNL     1      -3.888  17.407 -17.278  1.00  0.00    -0.349 N 
HETATM   40  C26 UNL     1      -2.762  18.237 -17.284  1.00  0.00     0.224 C 
HETATM   41  C33 UNL     1      -4.249  16.747 -16.010  1.00  0.00     0.145 C 
HETATM   42  O5  UNL     1      -2.148  18.368 -16.163  1.00  0.00    -0.273 OA
BRANCH  40  43
HETATM   43  C27 UNL     1      -2.177  18.986 -18.404  1.00  0.00     0.081 C 
HETATM   44  C28 UNL     1      -0.696  19.177 -18.338  1.00  0.00     0.034 C 
HETATM   45  C29 UNL     1      -0.268  19.634 -19.742  1.00  0.00     0.126 C 
HETATM   46  N7  UNL     1      -0.890  20.958 -19.887  1.00  0.00    -0.356 N 
HETATM   47  C30 UNL     1      -0.100  22.108 -20.150  1.00  0.00     0.183 C 
HETATM   48  C31 UNL     1      -2.320  21.090 -19.760  1.00  0.00     0.126 C 
HETATM   49  N8  UNL     1       1.071  22.252 -19.646  1.00  0.00    -0.374 N 
HETATM   50  N9  UNL     1      -0.648  23.107 -20.997  1.00  0.00    -0.064 NA
ATOM     51  H82 UNL     1       1.465  21.533 -19.038  1.00  0.00     0.158 HD
ATOM     52  H81 UNL     1       1.639  23.078 -19.835  1.00  0.00     0.158 HD
HETATM   53  C32 UNL     1      -2.898  20.266 -18.627  1.00  0.00     0.034 C 
ENDBRANCH  40  43
ENDBRANCH  31  33
ENDBRANCH   1  31
TORSDOF 12
ENDMDL
MODEL 5
REMARK VINA RESULT: -9.461713659      2.897      8.161
REMARK  12 active torsions:
REMARK  status: ('A' for Active; 'I' for Inactive)
REMARK    1  A    between atoms: C2_2  and  C3_3 
REMARK    2  A    between atoms: C3_3  and  C4_4 
REMARK    3  A    between atoms: C4_4  and  N1_5 
REMARK    4  A    between atoms: C4_4  and  C22_31 
REMARK       I    between atoms: N1_5  and  C5_7 
REMARK    5  A    between atoms: C5_7  and  C6_9 
REMARK       I    between atoms: N2_13  and  C10_14 
REMARK    6  A    between atoms: C10_14  and  C11_16 
REMARK    7  A    between atoms: C15_20  and  C16_21 
REMARK    8  A    between atoms: C17_22  and  C18_23 
REMARK    9  A    between atoms: C18_23  and  C19_24 
REMARK   10  A    between atoms: C19_24  and  N3_25 
REMARK   11  A    between atoms: C22_31  and  C23_33 
REMARK       I    between atoms: C23_33  and  N5_35 
REMARK       I    between atoms: N6_38  and  C26_39 
REMARK   12  A    between atoms: C26_39  and  C27_41 
REMARK       I    between atoms: N7_44  and  C30_45 
ROOT
HETATM    1  C4  UNL     1      -9.302  16.460 -15.365  1.00  0.00     0.164 C 
ENDROOT
BRANCH   1   2
HETATM    2  C3  UNL     1     -10.273  16.125 -14.261  1.00  0.00     0.033 C 
BRANCH   2   3
HETATM    3  C2  UNL     1     -11.226  17.248 -13.955  1.00  0.00    -0.002 C 
HETATM    4  C1  UNL     1     -10.926  17.831 -12.585  1.00  0.00     0.005 C 
ENDBRANCH   2   3
ENDBRANCH   1   2
BRANCH   1   5
HETATM    5  N1  UNL     1     -10.015  16.872 -16.567  1.00  0.00    -0.347 N 
HETATM    6  C5  UNL     1      -9.665  18.011 -17.324  1.00  0.00     0.241 C 
HETATM    7  O1  UNL     1      -8.688  18.680 -16.929  1.00  0.00    -0.271 OA
ATOM      8  H1  UNL     1     -10.808  16.310 -16.876  1.00  0.00     0.163 HD
BRANCH   6   9
HETATM    9  C6  UNL     1     -10.486  18.328 -18.536  1.00  0.00     0.179 C 
HETATM   10  C7  UNL     1      -9.595  18.674 -19.688  1.00  0.00     0.037 C 
HETATM   11  C8  UNL     1     -10.079  20.000 -20.171  1.00  0.00     0.022 C 
HETATM   12  C9  UNL     1     -11.377  20.264 -19.509  1.00  0.00     0.127 C 
HETATM   13  N2  UNL     1     -11.421  19.364 -18.382  1.00  0.00    -0.338 N 
HETATM   14  C10 UNL     1     -12.372  19.585 -17.304  1.00  0.00     0.224 C 
HETATM   15  O2  UNL     1     -12.398  18.726 -16.399  1.00  0.00    -0.273 OA
BRANCH  14  16
HETATM   16  C11 UNL     1     -13.266  20.768 -17.278  1.00  0.00     0.079 C 
HETATM   17  C12 UNL     1     -12.792  21.716 -16.203  1.00  0.00     0.014 C 
HETATM   18  C13 UNL     1     -13.232  21.351 -14.829  1.00  0.00     0.002 C 
HETATM   19  C14 UNL     1     -14.693  21.097 -14.718  1.00  0.00     0.008 C 
HETATM   20  C15 UNL     1     -15.428  21.063 -16.040  1.00  0.00     0.009 C 
HETATM   21  C21 UNL     1     -14.680  20.322 -17.096  1.00  0.00     0.022 C 
BRANCH  20  22
HETATM   22  C16 UNL     1     -15.964  22.381 -16.447  1.00  0.00    -0.026 C 
HETATM   23  C17 UNL     1     -16.386  22.705 -17.657  1.00  0.00    -0.029 C 
BRANCH  23  24
HETATM   24  C18 UNL     1     -16.913  24.049 -18.003  1.00  0.00     0.048 C 
BRANCH  24  25
HETATM   25  C19 UNL     1     -16.787  24.357 -19.467  1.00  0.00     0.145 C 
BRANCH  25  26
HETATM   26  N3  UNL     1     -15.384  24.555 -19.749  1.00  0.00    -0.338 N 
HETATM   27  C20 UNL     1     -14.713  23.925 -20.859  1.00  0.00     0.170 C 
HETATM   28  N4  UNL     1     -14.674  25.293 -19.038  1.00  0.00    -0.348 N 
ATOM     29  H42 UNL     1     -15.149  25.740 -18.253  1.00  0.00     0.176 HD
ATOM     30  H41 UNL     1     -13.684  25.434 -19.238  1.00  0.00     0.176 HD
ENDBRANCH  25  26
ENDBRANCH  24  25
ENDBRANCH  23  24
ENDBRANCH  20  22
ENDBRANCH  14  16
ENDBRANCH   6   9
ENDBRANCH   1   5
BRANCH   1  31
HETATM   31  C22 UNL     1      -8.407  15.300 -15.710  1.00  0.00     0.239 C 
HETATM   32  O3  UNL     1      -8.536  14.282 -15.005  1.00  0.00    -0.285 OA
BRANCH  31  33
HETATM   33  C23 UNL     1      -7.448  15.339 -16.791  1.00  0.00     0.291 C 
HETATM   34  O4  UNL     1      -7.801  14.681 -17.848  1.00  0.00    -0.264 OA
HETATM   35  N5  UNL     1      -6.215  15.975 -16.857  1.00  0.00    -0.342 N 
HETATM   36  C24 UNL     1      -5.450  15.881 -18.109  1.00  0.00     0.146 C 
HETATM   37  C34 UNL     1      -5.601  16.710 -15.792  1.00  0.00     0.146 C 
HETATM   38  C25 UNL     1      -4.449  17.024 -18.260  1.00  0.00     0.145 C 
HETATM   39  N6  UNL     1      -3.650  17.157 -17.069  1.00  0.00    -0.349 N 
HETATM   40  C26 UNL     1      -2.471  17.908 -17.006  1.00  0.00     0.224 C 
HETATM   41  C33 UNL     1      -4.092  16.467 -15.843  1.00  0.00     0.145 C 
HETATM   42  O5  UNL     1      -1.884  17.946 -15.864  1.00  0.00    -0.273 OA
BRANCH  40  43
HETATM   43  C27 UNL     1      -1.804  18.664 -18.073  1.00  0.00     0.081 C 
HETATM   44  C28 UNL     1      -2.680  19.612 -18.826  1.00  0.00     0.034 C 
HETATM   45  C29 UNL     1      -1.730  20.535 -19.606  1.00  0.00     0.126 C 
HETATM   46  N7  UNL     1      -1.090  19.640 -20.581  1.00  0.00    -0.356 N 
HETATM   47  C30 UNL     1      -1.184  19.894 -21.973  1.00  0.00     0.183 C 
HETATM   48  C31 UNL     1      -0.358  18.488 -20.114  1.00  0.00     0.126 C 
HETATM   49  N8  UNL     1      -2.244  20.390 -22.499  1.00  0.00    -0.374 N 
HETATM   50  N9  UNL     1      -0.058  19.581 -22.781  1.00  0.00    -0.064 NA
ATOM     51  H82 UNL     1      -3.053  20.614 -21.919  1.00  0.00     0.158 HD
ATOM     52  H81 UNL     1      -2.312  20.573 -23.500  1.00  0.00     0.158 HD
HETATM   53  C32 UNL     1      -1.049  17.760 -18.979  1.00  0.00     0.034 C 
ENDBRANCH  40  43
ENDBRANCH  31  33
ENDBRANCH   1  31
TORSDOF 12
ENDMDL
