MODEL 1
REMARK VINA RESULT: -9.798815651      0.000      0.000
REMARK  13 active torsions:
REMARK  status: ('A' for Active; 'I' for Inactive)
REMARK    1  A    between atoms: C2_2  and  C4_4 
REMARK    2  A    between atoms: C4_4  and  C5_5 
REMARK    3  A    between atoms: C5_5  and  C6_6 
REMARK       I    between atoms: N1_9  and  C9_10 
REMARK    4  A    between atoms: C9_10  and  C10_12 
REMARK    5  A    between atoms: C12_14  and  C13_15 
REMARK    6  A    between atoms: C15_17  and  N2_18 
REMARK    7  A    between atoms: N4_23  and  C17_24 
REMARK    8  A    between atoms: C19_26  and  C20_27 
REMARK    9  A    between atoms: C20_27  and  C21_28 
REMARK   10  A    between atoms: C21_28  and  N5_29 
REMARK       I    between atoms: N5_29  and  C22_30 
REMARK   11  A    between atoms: N7_39  and  C27_40 
REMARK   12  A    between atoms: C27_40  and  C28_41 
REMARK   13  A    between atoms: C28_41  and  C29_42 
ROOT
HETATM    1  C10 UNL     1     -11.267  19.717 -15.430  1.00  0.00     0.178 C 
HETATM    2  C11 UNL     1      -9.982  18.927 -15.223  1.00  0.00     0.124 C 
HETATM    3  C12 UNL     1      -9.328  18.214 -16.311  1.00  0.00     0.054 C 
HETATM    4  C15 UNL     1      -8.645  17.677 -14.928  1.00  0.00     0.222 C 
HETATM    5  N6  UNL     1      -9.973  17.693 -14.535  1.00  0.00    -0.318 N 
HETATM    6  C25 UNL     1     -11.297  17.395 -13.983  1.00  0.00     0.256 C 
HETATM    7  O4  UNL     1     -11.323  16.825 -12.902  1.00  0.00    -0.267 OA
HETATM    8  C26 UNL     1     -12.489  17.780 -14.710  1.00  0.00     0.135 C 
HETATM    9  N7  UNL     1     -12.373  18.893 -15.640  1.00  0.00    -0.273 NA
ENDROOT
BRANCH   4  10
HETATM   10  N2  UNL     1      -7.757  16.670 -15.197  1.00  0.00    -0.127 N 
HETATM   11  C16 UNL     1      -8.014  15.309 -14.754  1.00  0.00     0.681 C 
HETATM   12  N3  UNL     1      -9.105  14.771 -14.336  1.00  0.00    -0.234 N 
HETATM   13  N4  UNL     1      -6.815  14.602 -14.928  1.00  0.00    -0.205 N 
ATOM     14  H32 UNL     1      -9.976  15.286 -14.209  1.00  0.00     0.174 HD
ATOM     15  H31 UNL     1      -9.284  13.817 -14.025  1.00  0.00     0.174 HD
HETATM   16  C19 UNL     1      -6.135  15.197 -16.061  1.00  0.00     0.197 C 
HETATM   17  C24 UNL     1      -6.425  16.684 -15.630  1.00  0.00     0.263 C 
HETATM   18  O3  UNL     1      -5.517  17.518 -15.743  1.00  0.00    -0.270 OA
BRANCH  13  19
HETATM   19  C17 UNL     1      -6.241  13.453 -14.233  1.00  0.00     0.138 C 
HETATM   20  C18 UNL     1      -4.939  13.169 -15.020  1.00  0.00     0.027 C 
ENDBRANCH  13  19
BRANCH  16  21
HETATM   21  C20 UNL     1      -7.024  15.058 -17.271  1.00  0.00     0.069 C 
BRANCH  21  22
HETATM   22  C21 UNL     1      -6.041  15.305 -18.531  1.00  0.00     0.224 C 
BRANCH  22  23
HETATM   23  N5  UNL     1      -6.708  16.195 -19.304  1.00  0.00    -0.416 NA
HETATM   24  C22 UNL     1      -7.397  17.101 -20.106  1.00  0.00     0.282 C 
HETATM   25  C23 UNL     1      -7.444  18.566 -19.904  1.00  0.00     0.134 C 
HETATM   26  O2  UNL     1      -8.072  16.733 -21.136  1.00  0.00    -0.258 OA
ENDBRANCH  22  23
ENDBRANCH  21  22
ENDBRANCH  16  21
ENDBRANCH   4  10
BRANCH   3  27
HETATM   27  C13 UNL     1      -9.739  17.323 -17.297  1.00  0.00     0.006 C 
HETATM   28  C14 UNL     1     -10.675  17.397 -18.416  1.00  0.00     0.006 C 
ENDBRANCH   3  27
BRANCH   1  29
HETATM   29  C9  UNL     1     -10.808  20.743 -16.336  1.00  0.00     0.243 C 
HETATM   30  N1  UNL     1     -11.609  21.082 -17.516  1.00  0.00    -0.330 N 
HETATM   31  C8  UNL     1     -12.516  20.249 -18.185  1.00  0.00     0.067 C 
HETATM   32  C34 UNL     1     -11.544  22.515 -17.871  1.00  0.00     0.131 C 
HETATM   33  C7  UNL     1     -13.683  20.942 -18.793  1.00  0.00     0.049 C 
HETATM   34  C6  UNL     1     -13.476  22.276 -19.393  1.00  0.00    -0.008 C 
HETATM   35  C35 UNL     1     -12.099  22.882 -19.140  1.00  0.00     0.025 C 
HETATM   36  O1  UNL     1      -9.753  21.450 -16.231  1.00  0.00    -0.271 OA
BRANCH  34  37
HETATM   37  C5  UNL     1     -13.591  22.312 -20.898  1.00  0.00     0.009 C 
BRANCH  37  38
HETATM   38  C4  UNL     1     -13.688  23.636 -21.548  1.00  0.00     0.033 C 
BRANCH  38  39
HETATM   39  C2  UNL     1     -14.944  24.302 -21.014  1.00  0.00    -0.093 C 
HETATM   40  C1  UNL     1     -16.109  24.148 -21.601  1.00  0.00     0.014 C 
HETATM   41  C3  UNL     1     -14.831  25.138 -19.823  1.00  0.00     0.042 C 
ENDBRANCH  38  39
ENDBRANCH  37  38
ENDBRANCH  34  37
ENDBRANCH   1  29
BRANCH   9  42
HETATM   42  C27 UNL     1     -13.622  19.565 -15.636  1.00  0.00     0.098 C 
BRANCH  42  43
HETATM   43  C28 UNL     1     -13.835  20.735 -14.754  1.00  0.00     0.050 C 
BRANCH  43  44
HETATM   44  C29 UNL     1     -14.921  21.640 -15.317  1.00  0.00     0.223 C 
HETATM   45  C30 UNL     1     -16.180  20.822 -15.432  1.00  0.00     0.037 C 
HETATM   46  C31 UNL     1     -17.219  21.501 -14.581  1.00  0.00     0.032 C 
HETATM   47  C32 UNL     1     -16.649  22.859 -14.351  1.00  0.00     0.272 C 
HETATM   48  N8  UNL     1     -15.216  22.758 -14.493  1.00  0.00     0.088 N 
HETATM   49  C33 UNL     1     -14.628  22.803 -13.200  1.00  0.00     0.310 C 
ENDBRANCH  43  44
ENDBRANCH  42  43
ENDBRANCH   9  42
TORSDOF 13
ENDMDL
MODEL 2
REMARK VINA RESULT: -9.334366296      1.259      1.765
REMARK  13 active torsions:
REMARK  status: ('A' for Active; 'I' for Inactive)
REMARK    1  A    between atoms: C2_2  and  C4_4 
REMARK    2  A    between atoms: C4_4  and  C5_5 
REMARK    3  A    between atoms: C5_5  and  C6_6 
REMARK       I    between atoms: N1_9  and  C9_10 
REMARK    4  A    between atoms: C9_10  and  C10_12 
REMARK    5  A    between atoms: C12_14  and  C13_15 
REMARK    6  A    between atoms: C15_17  and  N2_18 
REMARK    7  A    between atoms: N4_23  and  C17_24 
REMARK    8  A    between atoms: C19_26  and  C20_27 
REMARK    9  A    between atoms: C20_27  and  C21_28 
REMARK   10  A    between atoms: C21_28  and  N5_29 
REMARK       I    between atoms: N5_29  and  C22_30 
REMARK   11  A    between atoms: N7_39  and  C27_40 
REMARK   12  A    between atoms: C27_40  and  C28_41 
REMARK   13  A    between atoms: C28_41  and  C29_42 
ROOT
HETATM    1  C10 UNL     1     -11.221  19.434 -15.702  1.00  0.00     0.178 C 
HETATM    2  C11 UNL     1      -9.925  18.694 -15.403  1.00  0.00     0.124 C 
HETATM    3  C12 UNL     1      -9.137  18.059 -16.450  1.00  0.00     0.054 C 
HETATM    4  C15 UNL     1      -8.562  17.493 -15.031  1.00  0.00     0.222 C 
HETATM    5  N6  UNL     1      -9.919  17.433 -14.766  1.00  0.00    -0.318 N 
HETATM    6  C25 UNL     1     -11.273  17.053 -14.354  1.00  0.00     0.256 C 
HETATM    7  O4  UNL     1     -11.372  16.437 -13.303  1.00  0.00    -0.267 OA
HETATM    8  C26 UNL     1     -12.409  17.415 -15.176  1.00  0.00     0.135 C 
HETATM    9  N7  UNL     1     -12.261  18.571 -16.047  1.00  0.00    -0.273 NA
ENDROOT
BRANCH   4  10
HETATM   10  N2  UNL     1      -7.604  16.541 -15.253  1.00  0.00    -0.127 N 
HETATM   11  C16 UNL     1      -7.809  15.163 -14.831  1.00  0.00     0.681 C 
HETATM   12  N3  UNL     1      -8.890  14.563 -14.480  1.00  0.00    -0.234 N 
HETATM   13  N4  UNL     1      -6.565  14.526 -14.939  1.00  0.00    -0.205 N 
ATOM     14  H32 UNL     1      -9.795  15.026 -14.401  1.00  0.00     0.174 HD
ATOM     15  H31 UNL     1      -9.034  13.597 -14.184  1.00  0.00     0.174 HD
HETATM   16  C19 UNL     1      -5.854  15.167 -16.027  1.00  0.00     0.197 C 
HETATM   17  C24 UNL     1      -6.252  16.632 -15.607  1.00  0.00     0.263 C 
HETATM   18  O3  UNL     1      -5.387  17.516 -15.663  1.00  0.00    -0.270 OA
BRANCH  13  19
HETATM   19  C17 UNL     1      -5.968  13.405 -14.217  1.00  0.00     0.138 C 
HETATM   20  C18 UNL     1      -4.844  12.923 -15.165  1.00  0.00     0.027 C 
ENDBRANCH  13  19
BRANCH  16  21
HETATM   21  C20 UNL     1      -6.663  14.988 -17.288  1.00  0.00     0.069 C 
BRANCH  21  22
HETATM   22  C21 UNL     1      -5.859  15.828 -18.411  1.00  0.00     0.224 C 
BRANCH  22  23
HETATM   23  N5  UNL     1      -4.584  15.383 -18.312  1.00  0.00    -0.416 NA
HETATM   24  C22 UNL     1      -3.275  14.919 -18.220  1.00  0.00     0.282 C 
HETATM   25  C23 UNL     1      -2.313  15.265 -17.150  1.00  0.00     0.134 C 
HETATM   26  O2  UNL     1      -2.768  14.111 -19.082  1.00  0.00    -0.258 OA
ENDBRANCH  22  23
ENDBRANCH  21  22
ENDBRANCH  16  21
ENDBRANCH   4  10
BRANCH   3  27
HETATM   27  C13 UNL     1      -9.411  17.193 -17.505  1.00  0.00     0.006 C 
HETATM   28  C14 UNL     1      -9.422  17.324 -18.960  1.00  0.00     0.006 C 
ENDBRANCH   3  27
BRANCH   1  29
HETATM   29  C9  UNL     1     -10.730  20.517 -16.520  1.00  0.00     0.243 C 
HETATM   30  N1  UNL     1     -11.524  20.984 -17.661  1.00  0.00    -0.330 N 
HETATM   31  C8  UNL     1     -12.462  20.243 -18.392  1.00  0.00     0.067 C 
HETATM   32  C34 UNL     1     -11.410  22.439 -17.892  1.00  0.00     0.131 C 
HETATM   33  C7  UNL     1     -13.607  21.026 -18.930  1.00  0.00     0.049 C 
HETATM   34  C6  UNL     1     -13.355  22.399 -19.415  1.00  0.00    -0.008 C 
HETATM   35  C35 UNL     1     -11.957  22.932 -19.121  1.00  0.00     0.025 C 
HETATM   36  O1  UNL     1      -9.650  21.176 -16.362  1.00  0.00    -0.271 OA
BRANCH  34  37
HETATM   37  C5  UNL     1     -13.475  22.568 -20.910  1.00  0.00     0.009 C 
BRANCH  37  38
HETATM   38  C4  UNL     1     -13.615  23.942 -21.437  1.00  0.00     0.033 C 
BRANCH  38  39
HETATM   39  C2  UNL     1     -14.889  24.518 -20.845  1.00  0.00    -0.093 C 
HETATM   40  C1  UNL     1     -14.888  25.162 -19.700  1.00  0.00     0.014 C 
HETATM   41  C3  UNL     1     -16.138  24.331 -21.577  1.00  0.00     0.042 C 
ENDBRANCH  38  39
ENDBRANCH  37  38
ENDBRANCH  34  37
ENDBRANCH   1  29
BRANCH   9  42
HETATM   42  C27 UNL     1     -13.537  19.185 -16.137  1.00  0.00     0.098 C 
BRANCH  42  43
HETATM   43  C28 UNL     1     -14.157  19.791 -14.937  1.00  0.00     0.050 C 
BRANCH  43  44
HETATM   44  C29 UNL     1     -14.370  21.284 -15.140  1.00  0.00     0.223 C 
HETATM   45  C30 UNL     1     -15.854  21.520 -15.247  1.00  0.00     0.037 C 
HETATM   46  C31 UNL     1     -16.224  22.465 -14.136  1.00  0.00     0.032 C 
HETATM   47  C32 UNL     1     -14.914  23.033 -13.707  1.00  0.00     0.272 C 
HETATM   48  N8  UNL     1     -13.891  22.080 -14.067  1.00  0.00     0.088 N 
HETATM   49  C33 UNL     1     -13.457  21.415 -12.888  1.00  0.00     0.310 C 
ENDBRANCH  43  44
ENDBRANCH  42  43
ENDBRANCH   9  42
TORSDOF 13
ENDMDL
MODEL 3
REMARK VINA RESULT: -8.786043277      1.849      3.299
REMARK  13 active torsions:
REMARK  status: ('A' for Active; 'I' for Inactive)
REMARK    1  A    between atoms: C2_2  and  C4_4 
REMARK    2  A    between atoms: C4_4  and  C5_5 
REMARK    3  A    between atoms: C5_5  and  C6_6 
REMARK       I    between atoms: N1_9  and  C9_10 
REMARK    4  A    between atoms: C9_10  and  C10_12 
REMARK    5  A    between atoms: C12_14  and  C13_15 
REMARK    6  A    between atoms: C15_17  and  N2_18 
REMARK    7  A    between atoms: N4_23  and  C17_24 
REMARK    8  A    between atoms: C19_26  and  C20_27 
REMARK    9  A    between atoms: C20_27  and  C21_28 
REMARK   10  A    between atoms: C21_28  and  N5_29 
REMARK       I    between atoms: N5_29  and  C22_30 
REMARK   11  A    between atoms: N7_39  and  C27_40 
REMARK   12  A    between atoms: C27_40  and  C28_41 
REMARK   13  A    between atoms: C28_41  and  C29_42 
ROOT
HETATM    1  C10 UNL     1     -12.361  20.687 -17.596  1.00  0.00     0.178 C 
HETATM    2  C11 UNL     1     -10.907  20.233 -17.600  1.00  0.00     0.124 C 
HETATM    3  C12 UNL     1     -10.455  19.089 -18.379  1.00  0.00     0.054 C 
HETATM    4  C15 UNL     1      -9.248  19.449 -17.341  1.00  0.00     0.222 C 
HETATM    5  N6  UNL     1     -10.330  19.583 -16.487  1.00  0.00    -0.318 N 
HETATM    6  C25 UNL     1     -11.268  19.544 -15.363  1.00  0.00     0.256 C 
HETATM    7  O4  UNL     1     -10.788  19.661 -14.245  1.00  0.00    -0.267 OA
HETATM    8  C26 UNL     1     -12.687  19.381 -15.608  1.00  0.00     0.135 C 
HETATM    9  N7  UNL     1     -13.193  19.806 -16.904  1.00  0.00    -0.273 NA
ENDROOT
BRANCH   4  10
HETATM   10  N2  UNL     1      -8.242  18.526 -17.445  1.00  0.00    -0.127 N 
HETATM   11  C16 UNL     1      -7.614  17.968 -16.257  1.00  0.00     0.681 C 
HETATM   12  N3  UNL     1      -8.005  17.990 -15.032  1.00  0.00    -0.234 N 
HETATM   13  N4  UNL     1      -6.464  17.297 -16.694  1.00  0.00    -0.205 N 
ATOM     14  H32 UNL     1      -8.842  18.479 -14.714  1.00  0.00     0.174 HD
ATOM     15  H31 UNL     1      -7.564  17.599 -14.199  1.00  0.00     0.174 HD
HETATM   16  C19 UNL     1      -6.742  16.806 -18.028  1.00  0.00     0.197 C 
HETATM   17  C24 UNL     1      -7.436  18.131 -18.520  1.00  0.00     0.263 C 
HETATM   18  O3  UNL     1      -7.176  18.545 -19.658  1.00  0.00    -0.270 OA
BRANCH  13  19
HETATM   19  C17 UNL     1      -5.183  17.017 -16.050  1.00  0.00     0.138 C 
HETATM   20  C18 UNL     1      -4.169  17.087 -17.217  1.00  0.00     0.027 C 
ENDBRANCH  13  19
BRANCH  16  21
HETATM   21  C20 UNL     1      -7.919  15.865 -17.948  1.00  0.00     0.069 C 
BRANCH  21  22
HETATM   22  C21 UNL     1      -7.322  14.521 -17.276  1.00  0.00     0.224 C 
BRANCH  22  23
HETATM   23  N5  UNL     1      -7.763  14.563 -15.997  1.00  0.00    -0.416 NA
HETATM   24  C22 UNL     1      -8.226  14.613 -14.685  1.00  0.00     0.282 C 
HETATM   25  C23 UNL     1      -7.547  14.024 -13.509  1.00  0.00     0.134 C 
HETATM   26  O2  UNL     1      -9.322  15.205 -14.363  1.00  0.00    -0.258 OA
ENDBRANCH  22  23
ENDBRANCH  21  22
ENDBRANCH  16  21
ENDBRANCH   4  10
BRANCH   3  27
HETATM   27  C13 UNL     1     -10.885  17.776 -18.548  1.00  0.00     0.006 C 
HETATM   28  C14 UNL     1     -12.124  17.060 -18.255  1.00  0.00     0.006 C 
ENDBRANCH   3  27
BRANCH   1  29
HETATM   29  C9  UNL     1     -12.524  21.076 -18.976  1.00  0.00     0.243 C 
HETATM   30  N1  UNL     1     -13.373  22.224 -19.312  1.00  0.00    -0.330 N 
HETATM   31  C8  UNL     1     -14.446  22.724 -18.563  1.00  0.00     0.067 C 
HETATM   32  C34 UNL     1     -12.878  22.993 -20.472  1.00  0.00     0.131 C 
HETATM   33  C7  UNL     1     -14.647  24.196 -18.650  1.00  0.00     0.049 C 
HETATM   34  C6  UNL     1     -14.402  24.865 -19.944  1.00  0.00    -0.008 C 
HETATM   35  C35 UNL     1     -13.770  23.977 -21.011  1.00  0.00     0.025 C 
HETATM   36  O1  UNL     1     -11.980  20.544 -19.999  1.00  0.00    -0.271 OA
BRANCH  34  37
HETATM   37  C5  UNL     1     -15.644  25.384 -20.626  1.00  0.00     0.009 C 
BRANCH  37  38
HETATM   38  C4  UNL     1     -16.872  24.566 -20.532  1.00  0.00     0.033 C 
BRANCH  38  39
HETATM   39  C2  UNL     1     -17.524  24.894 -19.201  1.00  0.00    -0.093 C 
HETATM   40  C1  UNL     1     -17.810  23.959 -18.324  1.00  0.00     0.014 C 
HETATM   41  C3  UNL     1     -17.842  26.289 -18.911  1.00  0.00     0.042 C 
ENDBRANCH  38  39
ENDBRANCH  37  38
ENDBRANCH  34  37
ENDBRANCH   1  29
BRANCH   9  42
HETATM   42  C27 UNL     1     -14.514  20.279 -16.696  1.00  0.00     0.098 C 
BRANCH  42  43
HETATM   43  C28 UNL     1     -14.980  20.606 -15.329  1.00  0.00     0.050 C 
BRANCH  43  44
HETATM   44  C29 UNL     1     -15.176  22.107 -15.175  1.00  0.00     0.223 C 
HETATM   45  C30 UNL     1     -16.639  22.350 -14.909  1.00  0.00     0.037 C 
HETATM   46  C31 UNL     1     -16.728  23.043 -13.576  1.00  0.00     0.032 C 
HETATM   47  C32 UNL     1     -15.336  23.520 -13.335  1.00  0.00     0.272 C 
HETATM   48  N8  UNL     1     -14.449  22.670 -14.093  1.00  0.00     0.088 N 
HETATM   49  C33 UNL     1     -13.800  21.779 -13.195  1.00  0.00     0.310 C 
ENDBRANCH  43  44
ENDBRANCH  42  43
ENDBRANCH   9  42
TORSDOF 13
ENDMDL
MODEL 4
REMARK VINA RESULT: -8.711238045      2.105      4.904
REMARK  13 active torsions:
REMARK  status: ('A' for Active; 'I' for Inactive)
REMARK    1  A    between atoms: C2_2  and  C4_4 
REMARK    2  A    between atoms: C4_4  and  C5_5 
REMARK    3  A    between atoms: C5_5  and  C6_6 
REMARK       I    between atoms: N1_9  and  C9_10 
REMARK    4  A    between atoms: C9_10  and  C10_12 
REMARK    5  A    between atoms: C12_14  and  C13_15 
REMARK    6  A    between atoms: C15_17  and  N2_18 
REMARK    7  A    between atoms: N4_23  and  C17_24 
REMARK    8  A    between atoms: C19_26  and  C20_27 
REMARK    9  A    between atoms: C20_27  and  C21_28 
REMARK   10  A    between atoms: C21_28  and  N5_29 
REMARK       I    between atoms: N5_29  and  C22_30 
REMARK   11  A    between atoms: N7_39  and  C27_40 
REMARK   12  A    between atoms: C27_40  and  C28_41 
REMARK   13  A    between atoms: C28_41  and  C29_42 
ROOT
HETATM    1  C10 UNL     1     -12.803  20.067 -16.465  1.00  0.00     0.178 C 
HETATM    2  C11 UNL     1     -11.888  18.955 -15.970  1.00  0.00     0.124 C 
HETATM    3  C12 UNL     1     -10.472  19.175 -15.713  1.00  0.00     0.054 C 
HETATM    4  C15 UNL     1     -10.694  17.558 -15.726  1.00  0.00     0.222 C 
HETATM    5  N6  UNL     1     -11.473  17.904 -16.817  1.00  0.00    -0.318 N 
HETATM    6  C25 UNL     1     -12.137  17.992 -18.120  1.00  0.00     0.256 C 
HETATM    7  O4  UNL     1     -12.430  16.935 -18.659  1.00  0.00    -0.267 OA
HETATM    8  C26 UNL     1     -12.418  19.288 -18.704  1.00  0.00     0.135 C 
HETATM    9  N7  UNL     1     -12.551  20.415 -17.792  1.00  0.00    -0.273 NA
ENDROOT
BRANCH   4  10
HETATM   10  N2  UNL     1      -9.494  16.912 -15.594  1.00  0.00    -0.127 N 
HETATM   11  C16 UNL     1      -8.889  16.223 -16.723  1.00  0.00     0.681 C 
HETATM   12  N3  UNL     1      -9.158  16.305 -17.978  1.00  0.00    -0.234 N 
HETATM   13  N4  UNL     1      -7.846  15.446 -16.200  1.00  0.00    -0.205 N 
ATOM     14  H32 UNL     1      -9.917  16.871 -18.358  1.00  0.00     0.174 HD
ATOM     15  H31 UNL     1      -8.733  15.821 -18.769  1.00  0.00     0.174 HD
HETATM   16  C19 UNL     1      -7.337  16.147 -15.039  1.00  0.00     0.197 C 
HETATM   17  C24 UNL     1      -8.757  16.519 -14.470  1.00  0.00     0.263 C 
HETATM   18  O3  UNL     1      -8.950  16.413 -13.252  1.00  0.00    -0.270 OA
BRANCH  13  19
HETATM   19  C17 UNL     1      -7.240  14.190 -16.637  1.00  0.00     0.138 C 
HETATM   20  C18 UNL     1      -6.460  13.712 -15.389  1.00  0.00     0.027 C 
ENDBRANCH  13  19
BRANCH  16  21
HETATM   21  C20 UNL     1      -6.832  17.497 -15.488  1.00  0.00     0.069 C 
BRANCH  21  22
HETATM   22  C21 UNL     1      -5.357  17.204 -16.081  1.00  0.00     0.224 C 
BRANCH  22  23
HETATM   23  N5  UNL     1      -5.524  17.239 -17.424  1.00  0.00    -0.416 NA
HETATM   24  C22 UNL     1      -5.704  17.266 -18.804  1.00  0.00     0.282 C 
HETATM   25  C23 UNL     1      -5.103  18.250 -19.732  1.00  0.00     0.134 C 
HETATM   26  O2  UNL     1      -6.428  16.400 -19.422  1.00  0.00    -0.258 OA
ENDBRANCH  22  23
ENDBRANCH  21  22
ENDBRANCH  16  21
ENDBRANCH   4  10
BRANCH   3  27
HETATM   27  C13 UNL     1      -9.419  19.756 -16.412  1.00  0.00     0.006 C 
HETATM   28  C14 UNL     1      -9.058  19.852 -17.825  1.00  0.00     0.006 C 
ENDBRANCH   3  27
BRANCH   1  29
HETATM   29  C9  UNL     1     -12.756  20.973 -15.343  1.00  0.00     0.243 C 
HETATM   30  N1  UNL     1     -13.951  21.741 -14.977  1.00  0.00    -0.330 N 
HETATM   31  C8  UNL     1     -15.003  22.112 -15.825  1.00  0.00     0.067 C 
HETATM   32  C34 UNL     1     -14.083  21.952 -13.521  1.00  0.00     0.131 C 
HETATM   33  C7  UNL     1     -16.342  22.182 -15.178  1.00  0.00     0.049 C 
HETATM   34  C6  UNL     1     -16.428  22.683 -13.791  1.00  0.00    -0.008 C 
HETATM   35  C35 UNL     1     -15.082  22.890 -13.103  1.00  0.00     0.025 C 
HETATM   36  O1  UNL     1     -11.769  21.190 -14.566  1.00  0.00    -0.271 OA
BRANCH  34  37
HETATM   37  C5  UNL     1     -17.092  24.031 -13.651  1.00  0.00     0.009 C 
BRANCH  37  38
HETATM   38  C4  UNL     1     -17.675  24.376 -12.337  1.00  0.00     0.033 C 
BRANCH  38  39
HETATM   39  C2  UNL     1     -17.062  25.699 -11.912  1.00  0.00    -0.093 C 
HETATM   40  C1  UNL     1     -15.963  26.159 -12.466  1.00  0.00     0.014 C 
HETATM   41  C3  UNL     1     -17.721  26.459 -10.854  1.00  0.00     0.042 C 
ENDBRANCH  38  39
ENDBRANCH  37  38
ENDBRANCH  34  37
ENDBRANCH   1  29
BRANCH   9  42
HETATM   42  C27 UNL     1     -13.503  21.298 -18.365  1.00  0.00     0.098 C 
BRANCH  42  43
HETATM   43  C28 UNL     1     -13.189  22.017 -19.620  1.00  0.00     0.050 C 
BRANCH  43  44
HETATM   44  C29 UNL     1     -14.418  22.750 -20.139  1.00  0.00     0.223 C 
HETATM   45  C30 UNL     1     -14.962  23.583 -19.008  1.00  0.00     0.037 C 
HETATM   46  C31 UNL     1     -14.940  25.014 -19.473  1.00  0.00     0.032 C 
HETATM   47  C32 UNL     1     -14.775  24.899 -20.950  1.00  0.00     0.272 C 
HETATM   48  N8  UNL     1     -14.144  23.630 -21.219  1.00  0.00     0.088 N 
HETATM   49  C33 UNL     1     -12.783  23.864 -21.556  1.00  0.00     0.310 C 
ENDBRANCH  43  44
ENDBRANCH  42  43
ENDBRANCH   9  42
TORSDOF 13
ENDMDL
MODEL 5
REMARK VINA RESULT: -8.557261293      1.665      2.012
REMARK  13 active torsions:
REMARK  status: ('A' for Active; 'I' for Inactive)
REMARK    1  A    between atoms: C2_2  and  C4_4 
REMARK    2  A    between atoms: C4_4  and  C5_5 
REMARK    3  A    between atoms: C5_5  and  C6_6 
REMARK       I    between atoms: N1_9  and  C9_10 
REMARK    4  A    between atoms: C9_10  and  C10_12 
REMARK    5  A    between atoms: C12_14  and  C13_15 
REMARK    6  A    between atoms: C15_17  and  N2_18 
REMARK    7  A    between atoms: N4_23  and  C17_24 
REMARK    8  A    between atoms: C19_26  and  C20_27 
REMARK    9  A    between atoms: C20_27  and  C21_28 
REMARK   10  A    between atoms: C21_28  and  N5_29 
REMARK       I    between atoms: N5_29  and  C22_30 
REMARK   11  A    between atoms: N7_39  and  C27_40 
REMARK   12  A    between atoms: C27_40  and  C28_41 
REMARK   13  A    between atoms: C28_41  and  C29_42 
ROOT
HETATM    1  C10 UNL     1     -10.015  19.080 -16.848  1.00  0.00     0.178 C 
HETATM    2  C11 UNL     1      -8.662  18.511 -16.445  1.00  0.00     0.124 C 
HETATM    3  C12 UNL     1      -7.959  17.533 -17.263  1.00  0.00     0.054 C 
HETATM    4  C15 UNL     1      -7.214  17.542 -15.811  1.00  0.00     0.222 C 
HETATM    5  N6  UNL     1      -8.533  17.580 -15.390  1.00  0.00    -0.318 N 
HETATM    6  C25 UNL     1      -9.817  17.376 -14.716  1.00  0.00     0.256 C 
HETATM    7  O4  UNL     1      -9.779  17.197 -13.507  1.00  0.00    -0.267 OA
HETATM    8  C26 UNL     1     -11.048  17.400 -15.479  1.00  0.00     0.135 C 
HETATM    9  N7  UNL     1     -11.045  18.147 -16.728  1.00  0.00    -0.273 NA
ENDROOT
BRANCH   4  10
HETATM   10  N2  UNL     1      -6.242  16.579 -15.770  1.00  0.00    -0.127 N 
HETATM   11  C16 UNL     1      -6.547  15.228 -15.326  1.00  0.00     0.681 C 
HETATM   12  N3  UNL     1      -7.685  14.647 -15.180  1.00  0.00    -0.234 N 
HETATM   13  N4  UNL     1      -5.315  14.587 -15.130  1.00  0.00    -0.205 N 
ATOM     14  H32 UNL     1      -8.581  15.113 -15.322  1.00  0.00     0.174 HD
ATOM     15  H31 UNL     1      -7.898  13.699 -14.868  1.00  0.00     0.174 HD
HETATM   16  C19 UNL     1      -4.383  15.166 -16.076  1.00  0.00     0.197 C 
HETATM   17  C24 UNL     1      -4.844  16.652 -15.833  1.00  0.00     0.263 C 
HETATM   18  O3  UNL     1      -3.978  17.532 -15.752  1.00  0.00    -0.270 OA
BRANCH  13  19
HETATM   19  C17 UNL     1      -4.898  13.509 -14.236  1.00  0.00     0.138 C 
HETATM   20  C18 UNL     1      -4.905  12.260 -15.150  1.00  0.00     0.027 C 
ENDBRANCH  13  19
BRANCH  16  21
HETATM   21  C20 UNL     1      -4.906  14.915 -17.468  1.00  0.00     0.069 C 
BRANCH  21  22
HETATM   22  C21 UNL     1      -3.688  15.335 -18.445  1.00  0.00     0.224 C 
BRANCH  22  23
HETATM   23  N5  UNL     1      -4.153  16.418 -19.111  1.00  0.00    -0.416 NA
HETATM   24  C22 UNL     1      -4.637  17.524 -19.804  1.00  0.00     0.282 C 
HETATM   25  C23 UNL     1      -4.407  18.938 -19.435  1.00  0.00     0.134 C 
HETATM   26  O2  UNL     1      -5.346  17.412 -20.871  1.00  0.00    -0.258 OA
ENDBRANCH  22  23
ENDBRANCH  21  22
ENDBRANCH  16  21
ENDBRANCH   4  10
BRANCH   3  27
HETATM   27  C13 UNL     1      -8.300  16.334 -17.883  1.00  0.00     0.006 C 
HETATM   28  C14 UNL     1      -7.735  15.553 -18.980  1.00  0.00     0.006 C 
ENDBRANCH   3  27
BRANCH   1  29
HETATM   29  C9  UNL     1      -9.662  19.780 -18.059  1.00  0.00     0.243 C 
HETATM   30  N1  UNL     1     -10.665  20.603 -18.743  1.00  0.00    -0.330 N 
HETATM   31  C8  UNL     1     -12.057  20.448 -18.690  1.00  0.00     0.067 C 
HETATM   32  C34 UNL     1     -10.094  21.805 -19.383  1.00  0.00     0.131 C 
HETATM   33  C7  UNL     1     -12.839  21.710 -18.787  1.00  0.00     0.049 C 
HETATM   34  C6  UNL     1     -12.346  22.776 -19.684  1.00  0.00    -0.008 C 
HETATM   35  C35 UNL     1     -10.959  22.526 -20.269  1.00  0.00     0.025 C 
HETATM   36  O1  UNL     1      -8.525  19.802 -18.635  1.00  0.00    -0.271 OA
BRANCH  34  37
HETATM   37  C5  UNL     1     -13.195  23.006 -20.911  1.00  0.00     0.009 C 
BRANCH  37  38
HETATM   38  C4  UNL     1     -13.577  24.398 -21.230  1.00  0.00     0.033 C 
BRANCH  38  39
HETATM   39  C2  UNL     1     -14.992  24.599 -20.717  1.00  0.00    -0.093 C 
HETATM   40  C1  UNL     1     -16.039  24.390 -21.483  1.00  0.00     0.014 C 
HETATM   41  C3  UNL     1     -15.172  25.046 -19.339  1.00  0.00     0.042 C 
ENDBRANCH  38  39
ENDBRANCH  37  38
ENDBRANCH  34  37
ENDBRANCH   1  29
BRANCH   9  42
HETATM   42  C27 UNL     1     -12.350  18.678 -16.894  1.00  0.00     0.098 C 
BRANCH  42  43
HETATM   43  C28 UNL     1     -13.185  18.983 -15.710  1.00  0.00     0.050 C 
BRANCH  43  44
HETATM   44  C29 UNL     1     -13.178  20.477 -15.422  1.00  0.00     0.223 C 
HETATM   45  C30 UNL     1     -14.567  20.997 -15.685  1.00  0.00     0.037 C 
HETATM   46  C31 UNL     1     -15.059  21.595 -14.394  1.00  0.00     0.032 C 
HETATM   47  C32 UNL     1     -13.816  21.755 -13.587  1.00  0.00     0.272 C 
HETATM   48  N8  UNL     1     -12.854  20.797 -14.077  1.00  0.00     0.088 N 
HETATM   49  C33 UNL     1     -12.764  19.729 -13.143  1.00  0.00     0.310 C 
ENDBRANCH  43  44
ENDBRANCH  42  43
ENDBRANCH   9  42
TORSDOF 13
ENDMDL
