MODEL 1
REMARK VINA RESULT: -10.509451623      0.000      0.000
REMARK  10 active torsions:
REMARK  status: ('A' for Active; 'I' for Inactive)
REMARK    1  A    between atoms: C2_2  and  C4_4 
REMARK    2  A    between atoms: C2_2  and  N3_20 
REMARK    3  A    between atoms: C4_4  and  N1_5 
REMARK    4  A    between atoms: N2_9  and  C9_11 
REMARK    5  A    between atoms: C9_11  and  C10_12 
REMARK       I    between atoms: N3_20  and  C17_22 
REMARK       I    between atoms: C17_22  and  N4_24 
REMARK    6  A    between atoms: N4_24  and  C18_26 
REMARK    7  A    between atoms: C18_26  and  C19_27 
REMARK    8  A    between atoms: C19_27  and  C20_28 
REMARK    9  A    between atoms: C20_28  and  N5_29 
REMARK   10  A    between atoms: N6_32  and  C23_33 
ROOT
HETATM    1  N3  UNL     1      -8.388 -18.874  19.616  1.00  0.00    -0.333 N 
ATOM      2  H3  UNL     1      -8.364 -19.364  18.723  1.00  0.00     0.165 HD
HETATM    3  C17 UNL     1      -9.327 -19.301  20.588  1.00  0.00     0.316 C 
HETATM    4  O2  UNL     1      -9.347 -18.722  21.699  1.00  0.00    -0.247 OA
HETATM    5  N4  UNL     1     -10.235 -20.365  20.312  1.00  0.00    -0.343 N 
ATOM      6  H4  UNL     1     -10.181 -20.821  19.401  1.00  0.00     0.164 HD
ENDROOT
BRANCH   1   7
HETATM    7  C2  UNL     1      -7.444 -17.758  19.824  1.00  0.00     0.053 C 
HETATM    8  C1  UNL     1      -6.286 -18.389  20.583  1.00  0.00     0.040 C 
HETATM    9  C3  UNL     1      -8.184 -16.717  20.586  1.00  0.00     0.040 C 
BRANCH   7  10
HETATM   10  C4  UNL     1      -6.976 -17.344  18.449  1.00  0.00     0.302 C 
BRANCH  10  11
HETATM   11  N1  UNL     1      -7.504 -16.196  17.849  1.00  0.00     0.092 N 
HETATM   12  C5  UNL     1      -6.591 -15.632  16.838  1.00  0.00     0.274 C 
HETATM   13  C6  UNL     1      -6.528 -16.539  15.667  1.00  0.00     0.058 C 
HETATM   14  C7  UNL     1      -7.718 -16.305  14.751  1.00  0.00     0.238 C 
HETATM   15  N2  UNL     1      -8.749 -17.283  14.964  1.00  0.00    -0.069 N 
HETATM   16  C8  UNL     1      -8.181 -18.557  14.479  1.00  0.00     0.272 C 
HETATM   17  C15 UNL     1      -9.053 -17.467  16.381  1.00  0.00     0.267 C 
HETATM   18  C16 UNL     1      -8.822 -16.296  17.246  1.00  0.00     0.300 C 
BRANCH  15  19
HETATM   19  C9  UNL     1      -9.963 -16.938  14.313  1.00  0.00     0.241 C 
BRANCH  19  20
HETATM   20  C10 UNL     1     -11.044 -17.947  14.215  1.00  0.00     0.015 C 
HETATM   21  C11 UNL     1     -12.265 -17.692  15.054  1.00  0.00     0.032 C 
HETATM   22  C12 UNL     1     -13.310 -18.754  14.666  1.00  0.00     0.168 C 
HETATM   23  O1  UNL     1     -12.770 -19.647  13.722  1.00  0.00    -0.391 OA
HETATM   24  C13 UNL     1     -12.524 -18.977  12.525  1.00  0.00     0.168 C 
HETATM   25  C14 UNL     1     -11.507 -17.920  12.745  1.00  0.00     0.032 C 
ENDBRANCH  19  20
ENDBRANCH  15  19
ENDBRANCH  10  11
ENDBRANCH   7  10
ENDBRANCH   1   7
BRANCH   5  26
HETATM   26  C18 UNL     1     -11.213 -20.825  21.240  1.00  0.00     0.126 C 
BRANCH  26  27
HETATM   27  C19 UNL     1     -12.218 -21.789  20.652  1.00  0.00     0.050 C 
BRANCH  27  28
HETATM   28  C20 UNL     1     -13.102 -21.107  19.632  1.00  0.00     0.275 C 
BRANCH  28  29
HETATM   29  N5  UNL     1     -13.059 -21.808  18.400  1.00  0.00     0.101 N 
HETATM   30  C21 UNL     1     -12.441 -23.085  18.386  1.00  0.00     0.303 C 
HETATM   31  C22 UNL     1     -13.360 -24.244  18.705  1.00  0.00     0.303 C 
HETATM   32  N6  UNL     1     -14.594 -23.777  19.246  1.00  0.00     0.097 N 
HETATM   33  C28 UNL     1     -15.241 -22.917  18.253  1.00  0.00     0.314 C 
HETATM   34  C29 UNL     1     -14.326 -21.875  17.701  1.00  0.00     0.189 C 
HETATM   35  C30 UNL     1     -14.044 -22.195  16.249  1.00  0.00     0.071 C 
HETATM   36  C33 UNL     1     -15.080 -20.564  17.702  1.00  0.00     0.071 C 
HETATM   37  C31 UNL     1     -15.346 -22.410  15.482  1.00  0.00     0.235 C 
HETATM   38  N7  UNL     1     -16.369 -21.506  15.910  1.00  0.00    -0.075 N 
HETATM   39  C32 UNL     1     -15.786 -20.296  16.390  1.00  0.00     0.235 C 
ATOM     40  H72 UNL     1     -17.057 -21.333  15.178  1.00  0.00     0.277 HD
ATOM     41  H71 UNL     1     -16.988 -21.931  16.601  1.00  0.00     0.277 HD
BRANCH  32  42
HETATM   42  C23 UNL     1     -15.533 -24.856  19.481  1.00  0.00     0.223 C 
HETATM   43  C24 UNL     1     -15.946 -24.988  20.921  1.00  0.00     0.036 C 
HETATM   44  C25 UNL     1     -17.255 -25.768  20.786  1.00  0.00     0.002 C 
HETATM   45  C26 UNL     1     -17.948 -25.008  19.671  1.00  0.00     0.002 C 
HETATM   46  C27 UNL     1     -16.833 -24.548  18.772  1.00  0.00     0.036 C 
ENDBRANCH  32  42
ENDBRANCH  28  29
ENDBRANCH  27  28
ENDBRANCH  26  27
ENDBRANCH   5  26
TORSDOF 10
ENDMDL
MODEL 2
REMARK VINA RESULT: -10.109453604      2.296      4.819
REMARK  10 active torsions:
REMARK  status: ('A' for Active; 'I' for Inactive)
REMARK    1  A    between atoms: C2_2  and  C4_4 
REMARK    2  A    between atoms: C2_2  and  N3_20 
REMARK    3  A    between atoms: C4_4  and  N1_5 
REMARK    4  A    between atoms: N2_9  and  C9_11 
REMARK    5  A    between atoms: C9_11  and  C10_12 
REMARK       I    between atoms: N3_20  and  C17_22 
REMARK       I    between atoms: C17_22  and  N4_24 
REMARK    6  A    between atoms: N4_24  and  C18_26 
REMARK    7  A    between atoms: C18_26  and  C19_27 
REMARK    8  A    between atoms: C19_27  and  C20_28 
REMARK    9  A    between atoms: C20_28  and  N5_29 
REMARK   10  A    between atoms: N6_32  and  C23_33 
ROOT
HETATM    1  N3  UNL     1     -11.981 -18.457  17.038  1.00  0.00    -0.333 N 
ATOM      2  H3  UNL     1     -12.879 -18.064  17.316  1.00  0.00     0.165 HD
HETATM    3  C17 UNL     1     -11.222 -19.146  18.016  1.00  0.00     0.316 C 
HETATM    4  O2  UNL     1     -10.129 -19.657  17.678  1.00  0.00    -0.247 OA
HETATM    5  N4  UNL     1     -11.685 -19.257  19.360  1.00  0.00    -0.343 N 
ATOM      6  H4  UNL     1     -12.585 -18.839  19.596  1.00  0.00     0.164 HD
ENDROOT
BRANCH   1   7
HETATM    7  C2  UNL     1     -11.545 -18.277  15.640  1.00  0.00     0.053 C 
HETATM    8  C1  UNL     1     -12.739 -17.626  14.960  1.00  0.00     0.040 C 
HETATM    9  C3  UNL     1     -11.207 -19.632  15.126  1.00  0.00     0.040 C 
BRANCH   7  10
HETATM   10  C4  UNL     1     -10.396 -17.296  15.682  1.00  0.00     0.302 C 
BRANCH  10  11
HETATM   11  N1  UNL     1      -9.477 -17.252  14.628  1.00  0.00     0.092 N 
HETATM   12  C5  UNL     1      -9.210 -15.871  14.188  1.00  0.00     0.274 C 
HETATM   13  C6  UNL     1      -8.445 -15.155  15.236  1.00  0.00     0.058 C 
HETATM   14  C7  UNL     1      -6.967 -15.494  15.138  1.00  0.00     0.238 C 
HETATM   15  N2  UNL     1      -6.591 -16.499  16.094  1.00  0.00    -0.069 N 
HETATM   16  C8  UNL     1      -6.711 -15.844  17.413  1.00  0.00     0.272 C 
HETATM   17  C15 UNL     1      -7.511 -17.632  16.099  1.00  0.00     0.267 C 
HETATM   18  C16 UNL     1      -8.196 -17.909  14.823  1.00  0.00     0.300 C 
BRANCH  15  19
HETATM   19  C9  UNL     1      -5.289 -17.013  15.852  1.00  0.00     0.241 C 
BRANCH  19  20
HETATM   20  C10 UNL     1      -4.184 -16.648  16.769  1.00  0.00     0.015 C 
HETATM   21  C11 UNL     1      -3.340 -17.785  17.274  1.00  0.00     0.032 C 
HETATM   22  C12 UNL     1      -2.166 -17.166  18.055  1.00  0.00     0.168 C 
HETATM   23  O1  UNL     1      -2.299 -15.766  18.105  1.00  0.00    -0.391 OA
HETATM   24  C13 UNL     1      -2.159 -15.232  16.825  1.00  0.00     0.168 C 
HETATM   25  C14 UNL     1      -3.248 -15.735  15.953  1.00  0.00     0.032 C 
ENDBRANCH  19  20
ENDBRANCH  15  19
ENDBRANCH  10  11
ENDBRANCH   7  10
ENDBRANCH   1   7
BRANCH   5  26
HETATM   26  C18 UNL     1     -10.958 -19.919  20.391  1.00  0.00     0.126 C 
BRANCH  26  27
HETATM   27  C19 UNL     1     -11.478 -21.297  20.727  1.00  0.00     0.050 C 
BRANCH  27  28
HETATM   28  C20 UNL     1     -12.878 -21.502  20.193  1.00  0.00     0.275 C 
BRANCH  28  29
HETATM   29  N5  UNL     1     -12.829 -22.080  18.899  1.00  0.00     0.101 N 
HETATM   30  C21 UNL     1     -12.313 -23.396  18.781  1.00  0.00     0.303 C 
HETATM   31  C22 UNL     1     -13.335 -24.500  18.942  1.00  0.00     0.303 C 
HETATM   32  N6  UNL     1     -14.554 -23.988  19.476  1.00  0.00     0.097 N 
HETATM   33  C28 UNL     1     -15.081 -22.984  18.550  1.00  0.00     0.314 C 
HETATM   34  C29 UNL     1     -14.061 -21.973  18.145  1.00  0.00     0.189 C 
HETATM   35  C30 UNL     1     -13.732 -22.171  16.681  1.00  0.00     0.071 C 
HETATM   36  C33 UNL     1     -14.709 -20.609  18.247  1.00  0.00     0.071 C 
HETATM   37  C31 UNL     1     -15.008 -22.201  15.842  1.00  0.00     0.235 C 
HETATM   38  N7  UNL     1     -15.977 -21.262  16.317  1.00  0.00    -0.075 N 
HETATM   39  C32 UNL     1     -15.326 -20.157  16.942  1.00  0.00     0.235 C 
ATOM     40  H72 UNL     1     -16.612 -20.962  15.578  1.00  0.00     0.277 HD
ATOM     41  H71 UNL     1     -16.661 -21.699  16.934  1.00  0.00     0.277 HD
BRANCH  32  42
HETATM   42  C23 UNL     1     -15.585 -25.004  19.561  1.00  0.00     0.223 C 
HETATM   43  C24 UNL     1     -16.185 -25.134  20.933  1.00  0.00     0.036 C 
HETATM   44  C25 UNL     1     -17.516 -25.819  20.612  1.00  0.00     0.002 C 
HETATM   45  C26 UNL     1     -18.009 -24.990  19.441  1.00  0.00     0.002 C 
HETATM   46  C27 UNL     1     -16.761 -24.591  18.703  1.00  0.00     0.036 C 
ENDBRANCH  32  42
ENDBRANCH  28  29
ENDBRANCH  27  28
ENDBRANCH  26  27
ENDBRANCH   5  26
TORSDOF 10
ENDMDL
MODEL 3
REMARK VINA RESULT: -10.077445735      2.307      4.826
REMARK  10 active torsions:
REMARK  status: ('A' for Active; 'I' for Inactive)
REMARK    1  A    between atoms: C2_2  and  C4_4 
REMARK    2  A    between atoms: C2_2  and  N3_20 
REMARK    3  A    between atoms: C4_4  and  N1_5 
REMARK    4  A    between atoms: N2_9  and  C9_11 
REMARK    5  A    between atoms: C9_11  and  C10_12 
REMARK       I    between atoms: N3_20  and  C17_22 
REMARK       I    between atoms: C17_22  and  N4_24 
REMARK    6  A    between atoms: N4_24  and  C18_26 
REMARK    7  A    between atoms: C18_26  and  C19_27 
REMARK    8  A    between atoms: C19_27  and  C20_28 
REMARK    9  A    between atoms: C20_28  and  N5_29 
REMARK   10  A    between atoms: N6_32  and  C23_33 
ROOT
HETATM    1  N3  UNL     1     -11.127 -19.155  15.743  1.00  0.00    -0.333 N 
ATOM      2  H3  UNL     1     -10.845 -20.073  15.402  1.00  0.00     0.165 HD
HETATM    3  C17 UNL     1     -11.242 -18.969  17.143  1.00  0.00     0.316 C 
HETATM    4  O2  UNL     1     -11.562 -17.836  17.574  1.00  0.00    -0.247 OA
HETATM    5  N4  UNL     1     -11.002 -20.044  18.047  1.00  0.00    -0.343 N 
ATOM      6  H4  UNL     1     -10.732 -20.948  17.661  1.00  0.00     0.164 HD
ENDROOT
BRANCH   1   7
HETATM    7  C2  UNL     1     -11.394 -18.095  14.751  1.00  0.00     0.053 C 
HETATM    8  C1  UNL     1     -12.804 -17.627  15.078  1.00  0.00     0.040 C 
HETATM    9  C3  UNL     1     -11.251 -18.726  13.411  1.00  0.00     0.040 C 
BRANCH   7  10
HETATM   10  C4  UNL     1     -10.414 -16.984  15.051  1.00  0.00     0.302 C 
BRANCH  10  11
HETATM   11  N1  UNL     1      -9.149 -16.990  14.455  1.00  0.00     0.092 N 
HETATM   12  C5  UNL     1      -8.667 -15.626  14.173  1.00  0.00     0.274 C 
HETATM   13  C6  UNL     1      -8.355 -14.937  15.448  1.00  0.00     0.058 C 
HETATM   14  C7  UNL     1      -6.978 -15.343  15.948  1.00  0.00     0.238 C 
HETATM   15  N2  UNL     1      -7.063 -16.355  16.964  1.00  0.00    -0.069 N 
HETATM   16  C8  UNL     1      -7.672 -15.685  18.130  1.00  0.00     0.272 C 
HETATM   17  C15 UNL     1      -7.957 -17.445  16.586  1.00  0.00     0.267 C 
HETATM   18  C16 UNL     1      -8.084 -17.702  15.140  1.00  0.00     0.300 C 
BRANCH  15  19
HETATM   19  C9  UNL     1      -5.797 -16.930  17.258  1.00  0.00     0.241 C 
BRANCH  19  20
HETATM   20  C10 UNL     1      -4.581 -16.364  16.629  1.00  0.00     0.015 C 
HETATM   21  C11 UNL     1      -3.830 -15.345  17.439  1.00  0.00     0.032 C 
HETATM   22  C12 UNL     1      -2.529 -15.030  16.678  1.00  0.00     0.168 C 
HETATM   23  O1  UNL     1      -2.497 -15.731  15.458  1.00  0.00    -0.391 OA
HETATM   24  C13 UNL     1      -2.412 -17.100  15.701  1.00  0.00     0.168 C 
HETATM   25  C14 UNL     1      -3.624 -17.555  16.425  1.00  0.00     0.032 C 
ENDBRANCH  19  20
ENDBRANCH  15  19
ENDBRANCH  10  11
ENDBRANCH   7  10
ENDBRANCH   1   7
BRANCH   5  26
HETATM   26  C18 UNL     1     -11.121 -19.923  19.462  1.00  0.00     0.126 C 
BRANCH  26  27
HETATM   27  C19 UNL     1     -11.713 -21.138  20.139  1.00  0.00     0.050 C 
BRANCH  27  28
HETATM   28  C20 UNL     1     -13.170 -21.314  19.774  1.00  0.00     0.275 C 
BRANCH  28  29
HETATM   29  N5  UNL     1     -13.289 -22.107  18.604  1.00  0.00     0.101 N 
HETATM   30  C21 UNL     1     -13.099 -23.507  18.730  1.00  0.00     0.303 C 
HETATM   31  C22 UNL     1     -14.346 -24.295  19.066  1.00  0.00     0.303 C 
HETATM   32  N6  UNL     1     -15.398 -23.425  19.479  1.00  0.00     0.097 N 
HETATM   33  C28 UNL     1     -15.698 -22.505  18.381  1.00  0.00     0.314 C 
HETATM   34  C29 UNL     1     -14.480 -21.849  17.821  1.00  0.00     0.189 C 
HETATM   35  C30 UNL     1     -14.243 -22.373  16.421  1.00  0.00     0.071 C 
HETATM   36  C33 UNL     1     -14.789 -20.375  17.669  1.00  0.00     0.071 C 
HETATM   37  C31 UNL     1     -15.511 -22.250  15.579  1.00  0.00     0.235 C 
HETATM   38  N7  UNL     1     -16.221 -21.041  15.863  1.00  0.00    -0.075 N 
HETATM   39  C32 UNL     1     -15.315 -20.028  16.294  1.00  0.00     0.235 C 
ATOM     40  H72 UNL     1     -16.786 -20.736  15.072  1.00  0.00     0.277 HD
ATOM     41  H71 UNL     1     -16.973 -21.190  16.536  1.00  0.00     0.277 HD
BRANCH  32  42
HETATM   42  C23 UNL     1     -16.635 -24.139  19.724  1.00  0.00     0.223 C 
HETATM   43  C24 UNL     1     -16.842 -25.312  18.806  1.00  0.00     0.036 C 
HETATM   44  C25 UNL     1     -17.857 -26.136  19.601  1.00  0.00     0.002 C 
HETATM   45  C26 UNL     1     -17.243 -26.120  20.988  1.00  0.00     0.002 C 
HETATM   46  C27 UNL     1     -16.580 -24.774  21.096  1.00  0.00     0.036 C 
ENDBRANCH  32  42
ENDBRANCH  28  29
ENDBRANCH  27  28
ENDBRANCH  26  27
ENDBRANCH   5  26
TORSDOF 10
ENDMDL
MODEL 4
REMARK VINA RESULT: -10.074551783      2.565      8.793
REMARK  10 active torsions:
REMARK  status: ('A' for Active; 'I' for Inactive)
REMARK    1  A    between atoms: C2_2  and  C4_4 
REMARK    2  A    between atoms: C2_2  and  N3_20 
REMARK    3  A    between atoms: C4_4  and  N1_5 
REMARK    4  A    between atoms: N2_9  and  C9_11 
REMARK    5  A    between atoms: C9_11  and  C10_12 
REMARK       I    between atoms: N3_20  and  C17_22 
REMARK       I    between atoms: C17_22  and  N4_24 
REMARK    6  A    between atoms: N4_24  and  C18_26 
REMARK    7  A    between atoms: C18_26  and  C19_27 
REMARK    8  A    between atoms: C19_27  and  C20_28 
REMARK    9  A    between atoms: C20_28  and  N5_29 
REMARK   10  A    between atoms: N6_32  and  C23_33 
ROOT
HETATM    1  N3  UNL     1     -12.248 -20.657  20.266  1.00  0.00    -0.333 N 
ATOM      2  H3  UNL     1     -12.989 -20.005  20.009  1.00  0.00     0.165 HD
HETATM    3  C17 UNL     1     -11.021 -20.124  20.732  1.00  0.00     0.316 C 
HETATM    4  O2  UNL     1     -10.114 -20.917  21.076  1.00  0.00    -0.247 OA
HETATM    5  N4  UNL     1     -10.815 -18.715  20.807  1.00  0.00    -0.343 N 
ATOM      6  H4  UNL     1     -11.580 -18.100  20.529  1.00  0.00     0.164 HD
ENDROOT
BRANCH   1   7
HETATM    7  C2  UNL     1     -12.515 -22.103  20.131  1.00  0.00     0.053 C 
HETATM    8  C1  UNL     1     -12.545 -22.609  21.566  1.00  0.00     0.040 C 
HETATM    9  C3  UNL     1     -11.411 -22.660  19.305  1.00  0.00     0.040 C 
BRANCH   7  10
HETATM   10  C4  UNL     1     -13.897 -22.219  19.529  1.00  0.00     0.302 C 
BRANCH  10  11
HETATM   11  N1  UNL     1     -14.108 -23.054  18.427  1.00  0.00     0.092 N 
HETATM   12  C5  UNL     1     -13.663 -24.435  18.689  1.00  0.00     0.274 C 
HETATM   13  C6  UNL     1     -14.567 -25.068  19.678  1.00  0.00     0.058 C 
HETATM   14  C7  UNL     1     -15.824 -25.581  18.995  1.00  0.00     0.238 C 
HETATM   15  N2  UNL     1     -16.922 -24.668  19.154  1.00  0.00    -0.069 N 
HETATM   16  C8  UNL     1     -17.262 -24.716  20.591  1.00  0.00     0.272 C 
HETATM   17  C15 UNL     1     -16.544 -23.289  18.855  1.00  0.00     0.267 C 
HETATM   18  C16 UNL     1     -15.451 -23.120  17.879  1.00  0.00     0.300 C 
BRANCH  15  19
HETATM   19  C9  UNL     1     -18.022 -24.995  18.317  1.00  0.00     0.241 C 
BRANCH  19  20
HETATM   20  C10 UNL     1     -18.155 -26.379  17.806  1.00  0.00     0.015 C 
HETATM   21  C11 UNL     1     -19.163 -27.249  18.505  1.00  0.00     0.032 C 
HETATM   22  C12 UNL     1     -19.257 -28.563  17.709  1.00  0.00     0.168 C 
HETATM   23  O1  UNL     1     -18.336 -28.555  16.645  1.00  0.00    -0.391 OA
HETATM   24  C13 UNL     1     -18.696 -27.581  15.715  1.00  0.00     0.168 C 
HETATM   25  C14 UNL     1     -18.632 -26.241  16.347  1.00  0.00     0.032 C 
ENDBRANCH  19  20
ENDBRANCH  15  19
ENDBRANCH  10  11
ENDBRANCH   7  10
ENDBRANCH   1   7
BRANCH   5  26
HETATM   26  C18 UNL     1      -9.598 -18.120  21.247  1.00  0.00     0.126 C 
BRANCH  26  27
HETATM   27  C19 UNL     1      -8.483 -18.165  20.228  1.00  0.00     0.050 C 
BRANCH  27  28
HETATM   28  C20 UNL     1      -8.810 -17.317  19.019  1.00  0.00     0.275 C 
BRANCH  28  29
HETATM   29  N5  UNL     1      -8.525 -18.034  17.828  1.00  0.00     0.101 N 
HETATM   30  C21 UNL     1      -8.906 -19.399  17.769  1.00  0.00     0.303 C 
HETATM   31  C22 UNL     1     -10.310 -19.649  17.265  1.00  0.00     0.303 C 
HETATM   32  N6  UNL     1     -11.062 -18.438  17.236  1.00  0.00     0.097 N 
HETATM   33  C28 UNL     1     -10.393 -17.498  16.334  1.00  0.00     0.314 C 
HETATM   34  C29 UNL     1      -8.933 -17.363  16.611  1.00  0.00     0.189 C 
HETATM   35  C30 UNL     1      -8.160 -17.971  15.459  1.00  0.00     0.071 C 
HETATM   36  C33 UNL     1      -8.605 -15.886  16.601  1.00  0.00     0.071 C 
HETATM   37  C31 UNL     1      -8.640 -17.399  14.127  1.00  0.00     0.235 C 
HETATM   38  N7  UNL     1      -8.946 -16.005  14.229  1.00  0.00    -0.075 N 
HETATM   39  C32 UNL     1      -8.148 -15.399  15.243  1.00  0.00     0.235 C 
ATOM     40  H72 UNL     1      -8.852 -15.528  13.333  1.00  0.00     0.277 HD
ATOM     41  H71 UNL     1      -9.942 -15.844  14.380  1.00  0.00     0.277 HD
BRANCH  32  42
HETATM   42  C23 UNL     1     -12.385 -18.626  16.675  1.00  0.00     0.223 C 
HETATM   43  C24 UNL     1     -12.470 -18.282  15.213  1.00  0.00     0.036 C 
HETATM   44  C25 UNL     1     -13.726 -19.052  14.800  1.00  0.00     0.002 C 
HETATM   45  C26 UNL     1     -13.479 -20.405  15.438  1.00  0.00     0.002 C 
HETATM   46  C27 UNL     1     -12.735 -20.097  16.709  1.00  0.00     0.036 C 
ENDBRANCH  32  42
ENDBRANCH  28  29
ENDBRANCH  27  28
ENDBRANCH  26  27
ENDBRANCH   5  26
TORSDOF 10
ENDMDL
MODEL 5
REMARK VINA RESULT: -9.920702277      2.160      8.561
REMARK  10 active torsions:
REMARK  status: ('A' for Active; 'I' for Inactive)
REMARK    1  A    between atoms: C2_2  and  C4_4 
REMARK    2  A    between atoms: C2_2  and  N3_20 
REMARK    3  A    between atoms: C4_4  and  N1_5 
REMARK    4  A    between atoms: N2_9  and  C9_11 
REMARK    5  A    between atoms: C9_11  and  C10_12 
REMARK       I    between atoms: N3_20  and  C17_22 
REMARK       I    between atoms: C17_22  and  N4_24 
REMARK    6  A    between atoms: N4_24  and  C18_26 
REMARK    7  A    between atoms: C18_26  and  C19_27 
REMARK    8  A    between atoms: C19_27  and  C20_28 
REMARK    9  A    between atoms: C20_28  and  N5_29 
REMARK   10  A    between atoms: N6_32  and  C23_33 
ROOT
HETATM    1  N3  UNL     1     -11.030 -19.306  14.708  1.00  0.00    -0.333 N 
ATOM      2  H3  UNL     1     -10.835 -20.198  15.161  1.00  0.00     0.165 HD
HETATM    3  C17 UNL     1      -9.938 -18.448  14.425  1.00  0.00     0.316 C 
HETATM    4  O2  UNL     1     -10.164 -17.361  13.843  1.00  0.00    -0.247 OA
HETATM    5  N4  UNL     1      -8.610 -18.806  14.796  1.00  0.00    -0.343 N 
ATOM      6  H4  UNL     1      -8.463 -19.704  15.257  1.00  0.00     0.164 HD
ENDROOT
BRANCH   1   7
HETATM    7  C2  UNL     1     -12.433 -18.982  14.382  1.00  0.00     0.053 C 
HETATM    8  C1  UNL     1     -12.532 -19.227  12.884  1.00  0.00     0.040 C 
HETATM    9  C3  UNL     1     -12.643 -17.567  14.789  1.00  0.00     0.040 C 
BRANCH   7  10
HETATM   10  C4  UNL     1     -13.278 -19.999  15.114  1.00  0.00     0.302 C 
BRANCH  10  11
HETATM   11  N1  UNL     1     -12.894 -20.440  16.384  1.00  0.00     0.092 N 
HETATM   12  C5  UNL     1     -13.602 -19.716  17.456  1.00  0.00     0.274 C 
HETATM   13  C6  UNL     1     -15.031 -20.109  17.460  1.00  0.00     0.058 C 
HETATM   14  C7  UNL     1     -15.217 -21.425  18.197  1.00  0.00     0.238 C 
HETATM   15  N2  UNL     1     -15.315 -22.532  17.287  1.00  0.00    -0.069 N 
HETATM   16  C8  UNL     1     -16.600 -22.343  16.582  1.00  0.00     0.272 C 
HETATM   17  C15 UNL     1     -14.268 -22.507  16.270  1.00  0.00     0.267 C 
HETATM   18  C16 UNL     1     -13.003 -21.861  16.666  1.00  0.00     0.300 C 
BRANCH  15  19
HETATM   19  C9  UNL     1     -15.230 -23.785  17.950  1.00  0.00     0.241 C 
BRANCH  19  20
HETATM   20  C10 UNL     1     -16.263 -24.147  18.949  1.00  0.00     0.015 C 
HETATM   21  C11 UNL     1     -17.234 -25.218  18.538  1.00  0.00     0.032 C 
HETATM   22  C12 UNL     1     -18.091 -25.550  19.774  1.00  0.00     0.168 C 
HETATM   23  O1  UNL     1     -17.744 -24.710  20.848  1.00  0.00    -0.391 OA
HETATM   24  C13 UNL     1     -16.444 -24.989  21.265  1.00  0.00     0.168 C 
HETATM   25  C14 UNL     1     -15.492 -24.695  20.166  1.00  0.00     0.032 C 
ENDBRANCH  19  20
ENDBRANCH  15  19
ENDBRANCH  10  11
ENDBRANCH   7  10
ENDBRANCH   1   7
BRANCH   5  26
HETATM   26  C18 UNL     1      -7.475 -17.977  14.557  1.00  0.00     0.126 C 
BRANCH  26  27
HETATM   27  C19 UNL     1      -7.170 -17.009  15.676  1.00  0.00     0.050 C 
BRANCH  27  28
HETATM   28  C20 UNL     1      -6.940 -17.735  16.983  1.00  0.00     0.275 C 
BRANCH  28  29
HETATM   29  N5  UNL     1      -7.655 -17.098  18.029  1.00  0.00     0.101 N 
HETATM   30  C21 UNL     1      -8.997 -16.714  17.775  1.00  0.00     0.303 C 
HETATM   31  C22 UNL     1     -10.033 -17.775  18.074  1.00  0.00     0.303 C 
HETATM   32  N6  UNL     1      -9.416 -19.046  18.269  1.00  0.00     0.097 N 
HETATM   33  C28 UNL     1      -8.496 -18.946  19.403  1.00  0.00     0.314 C 
HETATM   34  C29 UNL     1      -7.578 -17.774  19.308  1.00  0.00     0.189 C 
HETATM   35  C30 UNL     1      -7.946 -16.777  20.387  1.00  0.00     0.071 C 
HETATM   36  C33 UNL     1      -6.186 -18.260  19.646  1.00  0.00     0.071 C 
HETATM   37  C31 UNL     1      -8.013 -17.460  21.751  1.00  0.00     0.235 C 
HETATM   38  N7  UNL     1      -6.988 -18.447  21.899  1.00  0.00    -0.075 N 
HETATM   39  C32 UNL     1      -5.851 -18.098  21.113  1.00  0.00     0.235 C 
ATOM     40  H72 UNL     1      -6.743 -18.598  22.877  1.00  0.00     0.277 HD
ATOM     41  H71 UNL     1      -7.327 -19.385  21.683  1.00  0.00     0.277 HD
BRANCH  32  42
HETATM   42  C23 UNL     1     -10.372 -20.069  18.644  1.00  0.00     0.223 C 
HETATM   43  C24 UNL     1      -9.757 -21.431  18.812  1.00  0.00     0.036 C 
HETATM   44  C25 UNL     1     -10.805 -22.124  19.685  1.00  0.00     0.002 C 
HETATM   45  C26 UNL     1     -11.066 -21.070  20.744  1.00  0.00     0.002 C 
HETATM   46  C27 UNL     1     -10.917 -19.759  20.021  1.00  0.00     0.036 C 
ENDBRANCH  32  42
ENDBRANCH  28  29
ENDBRANCH  27  28
ENDBRANCH  26  27
ENDBRANCH   5  26
TORSDOF 10
ENDMDL
