MODEL 1
REMARK VINA RESULT: -7.928602516      0.000      0.000
REMARK  13 active torsions:
REMARK  status: ('A' for Active; 'I' for Inactive)
REMARK    1  A    between atoms: C2_2  and  C5_5 
REMARK       I    between atoms: C5_5  and  N1_7 
REMARK    2  A    between atoms: N1_7  and  C6_9 
REMARK    3  A    between atoms: C6_9  and  C7_10 
REMARK    4  A    between atoms: C6_9  and  C29_41 
REMARK    5  A    between atoms: C7_10  and  N2_11 
REMARK    6  A    between atoms: C7_10  and  C25_37 
REMARK    7  A    between atoms: C11_15  and  C12_16 
REMARK       I    between atoms: C12_16  and  N3_18 
REMARK    8  A    between atoms: C16_22  and  C17_23 
REMARK       I    between atoms: C17_23  and  N4_25 
REMARK    9  A    between atoms: N4_25  and  C18_27 
REMARK   10  A    between atoms: C18_27  and  C19_28 
REMARK   11  A    between atoms: C18_27  and  C23_32 
REMARK   12  A    between atoms: C19_28  and  C20_29 
REMARK   13  A    between atoms: C23_32  and  C24_34 
ROOT
HETATM    1  N2  UNL     1     -10.882 -19.863  15.884  1.00  0.00    -0.390 N 
HETATM    2  C8  UNL     1     -10.465 -21.108  16.155  1.00  0.00     0.118 C 
HETATM    3  C9  UNL     1      -9.485 -21.102  17.345  1.00  0.00     0.022 C 
HETATM    4  C10 UNL     1      -9.475 -19.666  17.717  1.00  0.00     0.036 C 
HETATM    5  C11 UNL     1      -9.977 -18.936  16.460  1.00  0.00     0.172 C 
ENDROOT
BRANCH   5   6
HETATM    6  C12 UNL     1      -8.789 -18.586  15.637  1.00  0.00     0.243 C 
HETATM    7  O2  UNL     1      -8.080 -19.404  15.046  1.00  0.00    -0.271 OA
HETATM    8  N3  UNL     1      -8.434 -17.195  15.515  1.00  0.00    -0.337 N 
HETATM    9  C13 UNL     1      -9.092 -16.063  16.132  1.00  0.00     0.127 C 
HETATM   10  C16 UNL     1      -7.346 -16.658  14.745  1.00  0.00     0.179 C 
HETATM   11  C14 UNL     1      -9.220 -15.126  14.938  1.00  0.00     0.022 C 
HETATM   12  C15 UNL     1      -7.880 -15.345  14.236  1.00  0.00     0.037 C 
BRANCH  10  13
HETATM   13  C17 UNL     1      -6.153 -16.398  15.611  1.00  0.00     0.241 C 
HETATM   14  O3  UNL     1      -5.546 -15.289  15.604  1.00  0.00    -0.271 OA
HETATM   15  N4  UNL     1      -5.680 -17.404  16.461  1.00  0.00    -0.347 N 
ATOM     16  H4  UNL     1      -6.157 -18.305  16.471  1.00  0.00     0.163 HD
BRANCH  15  17
HETATM   17  C18 UNL     1      -4.513 -17.208  17.346  1.00  0.00     0.164 C 
BRANCH  17  18
HETATM   18  C19 UNL     1      -3.353 -17.978  16.738  1.00  0.00     0.038 C 
BRANCH  18  19
HETATM   19  C20 UNL     1      -2.537 -17.258  15.739  1.00  0.00    -0.012 A 
HETATM   20  C21 UNL     1      -1.037 -17.182  16.145  1.00  0.00     0.005 A 
HETATM   21  C22 UNL     1      -1.850 -15.976  15.988  1.00  0.00     0.005 A 
ENDBRANCH  18  19
ENDBRANCH  17  18
BRANCH  17  22
HETATM   22  C23 UNL     1      -4.902 -17.771  18.636  1.00  0.00     0.236 C 
HETATM   23  O4  UNL     1      -4.003 -18.311  19.367  1.00  0.00    -0.285 OA
BRANCH  22  24
HETATM   24  C24 UNL     1      -6.249 -17.754  19.130  1.00  0.00     0.302 C 
HETATM   25  N5  UNL     1      -7.051 -16.552  19.084  1.00  0.00    -0.054 NA
HETATM   26  O5  UNL     1      -6.823 -18.747  19.625  1.00  0.00    -0.268 OA
ENDBRANCH  22  24
ENDBRANCH  17  22
ENDBRANCH  15  17
ENDBRANCH  10  13
ENDBRANCH   5   6
BRANCH   1  27
HETATM   27  C7  UNL     1     -12.242 -19.389  15.765  1.00  0.00     0.134 C 
BRANCH  27  28
HETATM   28  C6  UNL     1     -13.234 -20.014  16.649  1.00  0.00     0.020 C 
BRANCH  28  29
HETATM   29  N1  UNL     1     -14.474 -20.506  16.184  1.00  0.00    -0.331 N 
HETATM   30  C5  UNL     1     -14.906 -21.817  15.866  1.00  0.00     0.229 C 
HETATM   31  O1  UNL     1     -14.084 -22.751  16.008  1.00  0.00    -0.272 OA
ATOM     32  H1  UNL     1     -15.187 -19.788  16.052  1.00  0.00     0.168 HD
BRANCH  30  33
HETATM   33  C2  UNL     1     -16.223 -22.203  15.388  1.00  0.00     0.030 C 
HETATM   34  C1  UNL     1     -16.231 -23.118  14.201  1.00  0.00     0.025 C 
HETATM   35  C3  UNL     1     -17.051 -20.984  15.071  1.00  0.00     0.025 C 
HETATM   36  C4  UNL     1     -17.020 -22.951  16.472  1.00  0.00     0.025 C 
ENDBRANCH  30  33
ENDBRANCH  28  29
BRANCH  28  37
HETATM   37  C29 UNL     1     -13.304 -19.575  18.093  1.00  0.00    -0.011 C 
HETATM   38  C30 UNL     1     -12.649 -20.454  19.087  1.00  0.00     0.021 C 
HETATM   39  C31 UNL     1     -12.870 -18.158  18.347  1.00  0.00     0.021 C 
HETATM   40  C32 UNL     1     -14.784 -19.599  18.583  1.00  0.00     0.021 C 
ENDBRANCH  28  37
ENDBRANCH  27  28
BRANCH  27  41
HETATM   41  C25 UNL     1     -12.488 -19.270  14.308  1.00  0.00    -0.026 C 
HETATM   42  C26 UNL     1     -12.601 -20.498  13.459  1.00  0.00     0.017 C 
HETATM   43  C27 UNL     1     -11.640 -18.290  13.548  1.00  0.00     0.017 C 
HETATM   44  C28 UNL     1     -13.921 -18.651  14.167  1.00  0.00     0.017 C 
ENDBRANCH  27  41
ENDBRANCH   1  27
TORSDOF 13
ENDMDL
MODEL 2
REMARK VINA RESULT: -7.547706339      2.411      3.582
REMARK  13 active torsions:
REMARK  status: ('A' for Active; 'I' for Inactive)
REMARK    1  A    between atoms: C2_2  and  C5_5 
REMARK       I    between atoms: C5_5  and  N1_7 
REMARK    2  A    between atoms: N1_7  and  C6_9 
REMARK    3  A    between atoms: C6_9  and  C7_10 
REMARK    4  A    between atoms: C6_9  and  C29_41 
REMARK    5  A    between atoms: C7_10  and  N2_11 
REMARK    6  A    between atoms: C7_10  and  C25_37 
REMARK    7  A    between atoms: C11_15  and  C12_16 
REMARK       I    between atoms: C12_16  and  N3_18 
REMARK    8  A    between atoms: C16_22  and  C17_23 
REMARK       I    between atoms: C17_23  and  N4_25 
REMARK    9  A    between atoms: N4_25  and  C18_27 
REMARK   10  A    between atoms: C18_27  and  C19_28 
REMARK   11  A    between atoms: C18_27  and  C23_32 
REMARK   12  A    between atoms: C19_28  and  C20_29 
REMARK   13  A    between atoms: C23_32  and  C24_34 
ROOT
HETATM    1  N2  UNL     1     -12.145 -21.764  17.748  1.00  0.00    -0.390 N 
HETATM    2  C8  UNL     1     -11.286 -22.749  18.043  1.00  0.00     0.118 C 
HETATM    3  C9  UNL     1     -10.072 -22.194  18.815  1.00  0.00     0.022 C 
HETATM    4  C10 UNL     1     -10.430 -20.761  18.944  1.00  0.00     0.036 C 
HETATM    5  C11 UNL     1     -11.472 -20.519  17.839  1.00  0.00     0.172 C 
ENDROOT
BRANCH   5   6
HETATM    6  C12 UNL     1     -10.742 -20.083  16.619  1.00  0.00     0.243 C 
HETATM    7  O2  UNL     1      -9.792 -20.686  16.116  1.00  0.00    -0.271 OA
HETATM    8  N3  UNL     1     -11.170 -18.868  15.971  1.00  0.00    -0.337 N 
HETATM    9  C13 UNL     1     -12.235 -17.980  16.384  1.00  0.00     0.127 C 
HETATM   10  C16 UNL     1     -10.615 -18.302  14.772  1.00  0.00     0.179 C 
HETATM   11  C14 UNL     1     -12.970 -17.788  15.064  1.00  0.00     0.022 C 
HETATM   12  C15 UNL     1     -11.805 -17.690  14.080  1.00  0.00     0.037 C 
BRANCH  10  13
HETATM   13  C17 UNL     1      -9.630 -17.221  15.096  1.00  0.00     0.241 C 
HETATM   14  O3  UNL     1      -9.719 -16.060  14.604  1.00  0.00    -0.271 OA
HETATM   15  N4  UNL     1      -8.568 -17.489  15.969  1.00  0.00    -0.347 N 
ATOM     16  H4  UNL     1      -8.482 -18.424  16.367  1.00  0.00     0.163 HD
BRANCH  15  17
HETATM   17  C18 UNL     1      -7.568 -16.465  16.334  1.00  0.00     0.164 C 
BRANCH  17  18
HETATM   18  C19 UNL     1      -6.213 -16.977  15.876  1.00  0.00     0.038 C 
BRANCH  18  19
HETATM   19  C20 UNL     1      -5.121 -15.983  15.814  1.00  0.00    -0.012 A 
HETATM   20  C21 UNL     1      -3.715 -16.646  15.858  1.00  0.00     0.005 A 
HETATM   21  C22 UNL     1      -4.161 -15.728  16.905  1.00  0.00     0.005 A 
ENDBRANCH  18  19
ENDBRANCH  17  18
BRANCH  17  22
HETATM   22  C23 UNL     1      -7.629 -16.362  17.790  1.00  0.00     0.236 C 
HETATM   23  O4  UNL     1      -8.041 -15.270  18.311  1.00  0.00    -0.285 OA
BRANCH  22  24
HETATM   24  C24 UNL     1      -7.244 -17.426  18.673  1.00  0.00     0.302 C 
HETATM   25  N5  UNL     1      -6.080 -17.312  19.523  1.00  0.00    -0.054 NA
HETATM   26  O5  UNL     1      -7.863 -18.505  18.777  1.00  0.00    -0.268 OA
ENDBRANCH  22  24
ENDBRANCH  17  22
ENDBRANCH  15  17
ENDBRANCH  10  13
ENDBRANCH   5   6
BRANCH   1  27
HETATM   27  C7  UNL     1     -13.562 -21.707  18.029  1.00  0.00     0.134 C 
BRANCH  27  28
HETATM   28  C6  UNL     1     -14.058 -22.607  19.079  1.00  0.00     0.020 C 
BRANCH  28  29
HETATM   29  N1  UNL     1     -15.337 -23.207  19.033  1.00  0.00    -0.331 N 
HETATM   30  C5  UNL     1     -15.740 -24.564  19.059  1.00  0.00     0.229 C 
HETATM   31  O1  UNL     1     -14.845 -25.436  19.140  1.00  0.00    -0.272 OA
ATOM     32  H1  UNL     1     -16.109 -22.543  18.971  1.00  0.00     0.168 HD
BRANCH  30  33
HETATM   33  C2  UNL     1     -17.103 -25.065  19.003  1.00  0.00     0.030 C 
HETATM   34  C1  UNL     1     -17.279 -26.367  18.284  1.00  0.00     0.025 C 
HETATM   35  C3  UNL     1     -18.020 -24.039  18.387  1.00  0.00     0.025 C 
HETATM   36  C4  UNL     1     -17.673 -25.308  20.412  1.00  0.00     0.025 C 
ENDBRANCH  30  33
ENDBRANCH  28  29
BRANCH  28  37
HETATM   37  C29 UNL     1     -13.573 -22.412  20.496  1.00  0.00    -0.011 C 
HETATM   38  C30 UNL     1     -12.401 -23.213  20.913  1.00  0.00     0.021 C 
HETATM   39  C31 UNL     1     -13.343 -20.981  20.897  1.00  0.00     0.021 C 
HETATM   40  C32 UNL     1     -14.660 -22.904  21.501  1.00  0.00     0.021 C 
ENDBRANCH  28  37
ENDBRANCH  27  28
BRANCH  27  41
HETATM   41  C25 UNL     1     -14.221 -21.648  16.703  1.00  0.00    -0.026 C 
HETATM   42  C26 UNL     1     -15.298 -22.627  16.350  1.00  0.00     0.017 C 
HETATM   43  C27 UNL     1     -13.329 -21.526  15.500  1.00  0.00     0.017 C 
HETATM   44  C28 UNL     1     -15.003 -20.290  16.677  1.00  0.00     0.017 C 
ENDBRANCH  27  41
ENDBRANCH   1  27
TORSDOF 13
ENDMDL
MODEL 3
REMARK VINA RESULT: -7.089738896      1.724      2.551
REMARK  13 active torsions:
REMARK  status: ('A' for Active; 'I' for Inactive)
REMARK    1  A    between atoms: C2_2  and  C5_5 
REMARK       I    between atoms: C5_5  and  N1_7 
REMARK    2  A    between atoms: N1_7  and  C6_9 
REMARK    3  A    between atoms: C6_9  and  C7_10 
REMARK    4  A    between atoms: C6_9  and  C29_41 
REMARK    5  A    between atoms: C7_10  and  N2_11 
REMARK    6  A    between atoms: C7_10  and  C25_37 
REMARK    7  A    between atoms: C11_15  and  C12_16 
REMARK       I    between atoms: C12_16  and  N3_18 
REMARK    8  A    between atoms: C16_22  and  C17_23 
REMARK       I    between atoms: C17_23  and  N4_25 
REMARK    9  A    between atoms: N4_25  and  C18_27 
REMARK   10  A    between atoms: C18_27  and  C19_28 
REMARK   11  A    between atoms: C18_27  and  C23_32 
REMARK   12  A    between atoms: C19_28  and  C20_29 
REMARK   13  A    between atoms: C23_32  and  C24_34 
ROOT
HETATM    1  N2  UNL     1     -10.848 -19.821  15.892  1.00  0.00    -0.390 N 
HETATM    2  C8  UNL     1     -10.419 -21.054  16.193  1.00  0.00     0.118 C 
HETATM    3  C9  UNL     1      -9.447 -21.011  17.389  1.00  0.00     0.022 C 
HETATM    4  C10 UNL     1      -9.457 -19.568  17.730  1.00  0.00     0.036 C 
HETATM    5  C11 UNL     1      -9.959 -18.870  16.455  1.00  0.00     0.172 C 
ENDROOT
BRANCH   5   6
HETATM    6  C12 UNL     1      -8.769 -18.525  15.632  1.00  0.00     0.243 C 
HETATM    7  O2  UNL     1      -8.085 -19.340  15.010  1.00  0.00    -0.271 OA
HETATM    8  N3  UNL     1      -8.380 -17.139  15.551  1.00  0.00    -0.337 N 
HETATM    9  C13 UNL     1      -9.005 -16.011  16.208  1.00  0.00     0.127 C 
HETATM   10  C16 UNL     1      -7.286 -16.605  14.788  1.00  0.00     0.179 C 
HETATM   11  C14 UNL     1      -9.120 -15.035  15.045  1.00  0.00     0.022 C 
HETATM   12  C15 UNL     1      -7.791 -15.264  14.325  1.00  0.00     0.037 C 
BRANCH  10  13
HETATM   13  C17 UNL     1      -6.080 -16.401  15.651  1.00  0.00     0.241 C 
HETATM   14  O3  UNL     1      -5.808 -17.168  16.619  1.00  0.00    -0.271 OA
HETATM   15  N4  UNL     1      -5.214 -15.331  15.393  1.00  0.00    -0.347 N 
ATOM     16  H4  UNL     1      -5.426 -14.703  14.619  1.00  0.00     0.163 HD
BRANCH  15  17
HETATM   17  C18 UNL     1      -4.004 -15.081  16.203  1.00  0.00     0.164 C 
BRANCH  17  18
HETATM   18  C19 UNL     1      -3.885 -13.577  16.381  1.00  0.00     0.038 C 
BRANCH  18  19
HETATM   19  C20 UNL     1      -2.885 -13.108  17.363  1.00  0.00    -0.012 A 
HETATM   20  C21 UNL     1      -2.842 -11.556  17.466  1.00  0.00     0.005 A 
HETATM   21  C22 UNL     1      -1.681 -12.327  17.021  1.00  0.00     0.005 A 
ENDBRANCH  18  19
ENDBRANCH  17  18
BRANCH  17  22
HETATM   22  C23 UNL     1      -2.892 -15.610  15.417  1.00  0.00     0.236 C 
HETATM   23  O4  UNL     1      -2.450 -14.919  14.437  1.00  0.00    -0.285 OA
BRANCH  22  24
HETATM   24  C24 UNL     1      -2.267 -16.874  15.686  1.00  0.00     0.302 C 
HETATM   25  N5  UNL     1      -0.829 -17.004  15.744  1.00  0.00    -0.054 NA
HETATM   26  O5  UNL     1      -2.896 -17.934  15.885  1.00  0.00    -0.268 OA
ENDBRANCH  22  24
ENDBRANCH  17  22
ENDBRANCH  15  17
ENDBRANCH  10  13
ENDBRANCH   5   6
BRANCH   1  27
HETATM   27  C7  UNL     1     -12.213 -19.365  15.754  1.00  0.00     0.134 C 
BRANCH  27  28
HETATM   28  C6  UNL     1     -13.208 -19.999  16.629  1.00  0.00     0.020 C 
BRANCH  28  29
HETATM   29  N1  UNL     1     -14.443 -20.494  16.154  1.00  0.00    -0.331 N 
HETATM   30  C5  UNL     1     -14.899 -21.813  15.916  1.00  0.00     0.229 C 
HETATM   31  O1  UNL     1     -14.109 -22.754  16.155  1.00  0.00    -0.272 OA
ATOM     32  H1  UNL     1     -15.130 -19.770  15.944  1.00  0.00     0.168 HD
BRANCH  30  33
HETATM   33  C2  UNL     1     -16.207 -22.201  15.417  1.00  0.00     0.030 C 
HETATM   34  C1  UNL     1     -16.196 -23.105  14.223  1.00  0.00     0.025 C 
HETATM   35  C3  UNL     1     -17.037 -20.983  15.099  1.00  0.00     0.025 C 
HETATM   36  C4  UNL     1     -17.015 -22.962  16.484  1.00  0.00     0.025 C 
ENDBRANCH  30  33
ENDBRANCH  28  29
BRANCH  28  37
HETATM   37  C29 UNL     1     -13.287 -19.568  18.075  1.00  0.00    -0.011 C 
HETATM   38  C30 UNL     1     -12.627 -20.446  19.066  1.00  0.00     0.021 C 
HETATM   39  C31 UNL     1     -12.869 -18.148  18.338  1.00  0.00     0.021 C 
HETATM   40  C32 UNL     1     -14.769 -19.610  18.559  1.00  0.00     0.021 C 
ENDBRANCH  28  37
ENDBRANCH  27  28
BRANCH  27  41
HETATM   41  C25 UNL     1     -12.442 -19.257  14.293  1.00  0.00    -0.026 C 
HETATM   42  C26 UNL     1     -12.569 -20.491  13.456  1.00  0.00     0.017 C 
HETATM   43  C27 UNL     1     -11.570 -18.300  13.532  1.00  0.00     0.017 C 
HETATM   44  C28 UNL     1     -13.863 -18.614  14.132  1.00  0.00     0.017 C 
ENDBRANCH  27  41
ENDBRANCH   1  27
TORSDOF 13
ENDMDL
MODEL 4
REMARK VINA RESULT: -7.062346197      2.693     10.535
REMARK  13 active torsions:
REMARK  status: ('A' for Active; 'I' for Inactive)
REMARK    1  A    between atoms: C2_2  and  C5_5 
REMARK       I    between atoms: C5_5  and  N1_7 
REMARK    2  A    between atoms: N1_7  and  C6_9 
REMARK    3  A    between atoms: C6_9  and  C7_10 
REMARK    4  A    between atoms: C6_9  and  C29_41 
REMARK    5  A    between atoms: C7_10  and  N2_11 
REMARK    6  A    between atoms: C7_10  and  C25_37 
REMARK    7  A    between atoms: C11_15  and  C12_16 
REMARK       I    between atoms: C12_16  and  N3_18 
REMARK    8  A    between atoms: C16_22  and  C17_23 
REMARK       I    between atoms: C17_23  and  N4_25 
REMARK    9  A    between atoms: N4_25  and  C18_27 
REMARK   10  A    between atoms: C18_27  and  C19_28 
REMARK   11  A    between atoms: C18_27  and  C23_32 
REMARK   12  A    between atoms: C19_28  and  C20_29 
REMARK   13  A    between atoms: C23_32  and  C24_34 
ROOT
HETATM    1  N2  UNL     1     -11.511 -20.504  16.561  1.00  0.00    -0.390 N 
HETATM    2  C8  UNL     1     -11.357 -20.992  15.322  1.00  0.00     0.118 C 
HETATM    3  C9  UNL     1     -12.729 -21.273  14.678  1.00  0.00     0.022 C 
HETATM    4  C10 UNL     1     -13.657 -20.809  15.737  1.00  0.00     0.036 C 
HETATM    5  C11 UNL     1     -12.815 -20.818  17.024  1.00  0.00     0.172 C 
ENDROOT
BRANCH   5   6
HETATM    6  C12 UNL     1     -12.977 -22.152  17.660  1.00  0.00     0.243 C 
HETATM    7  O2  UNL     1     -12.762 -23.228  17.099  1.00  0.00    -0.271 OA
HETATM    8  N3  UNL     1     -13.417 -22.199  19.032  1.00  0.00    -0.337 N 
HETATM    9  C13 UNL     1     -13.755 -21.081  19.886  1.00  0.00     0.127 C 
HETATM   10  C16 UNL     1     -13.603 -23.383  19.826  1.00  0.00     0.179 C 
HETATM   11  C14 UNL     1     -12.978 -21.442  21.145  1.00  0.00     0.022 C 
HETATM   12  C15 UNL     1     -13.195 -22.954  21.211  1.00  0.00     0.037 C 
BRANCH  10  13
HETATM   13  C17 UNL     1     -15.043 -23.794  19.846  1.00  0.00     0.241 C 
HETATM   14  O3  UNL     1     -15.675 -23.977  20.926  1.00  0.00    -0.271 OA
HETATM   15  N4  UNL     1     -15.726 -23.988  18.640  1.00  0.00    -0.347 N 
ATOM     16  H4  UNL     1     -15.225 -23.849  17.762  1.00  0.00     0.163 HD
BRANCH  15  17
HETATM   17  C18 UNL     1     -17.148 -24.386  18.592  1.00  0.00     0.164 C 
BRANCH  17  18
HETATM   18  C19 UNL     1     -17.189 -25.871  18.277  1.00  0.00     0.038 C 
BRANCH  18  19
HETATM   19  C20 UNL     1     -18.491 -26.415  17.838  1.00  0.00    -0.012 A 
HETATM   20  C21 UNL     1     -18.900 -27.686  18.636  1.00  0.00     0.005 A 
HETATM   21  C22 UNL     1     -18.674 -27.729  17.192  1.00  0.00     0.005 A 
ENDBRANCH  18  19
ENDBRANCH  17  18
BRANCH  17  22
HETATM   22  C23 UNL     1     -17.738 -23.600  17.511  1.00  0.00     0.236 C 
HETATM   23  O4  UNL     1     -18.868 -23.038  17.706  1.00  0.00    -0.285 OA
BRANCH  22  24
HETATM   24  C24 UNL     1     -17.113 -23.427  16.230  1.00  0.00     0.302 C 
HETATM   25  N5  UNL     1     -17.614 -24.100  15.053  1.00  0.00    -0.054 NA
HETATM   26  O5  UNL     1     -16.115 -22.702  16.033  1.00  0.00    -0.268 OA
ENDBRANCH  22  24
ENDBRANCH  17  22
ENDBRANCH  15  17
ENDBRANCH  10  13
ENDBRANCH   5   6
BRANCH   1  27
HETATM   27  C7  UNL     1     -10.946 -19.295  17.116  1.00  0.00     0.134 C 
BRANCH  27  28
HETATM   28  C6  UNL     1     -10.368 -18.343  16.159  1.00  0.00     0.020 C 
BRANCH  28  29
HETATM   29  N1  UNL     1      -9.286 -17.493  16.481  1.00  0.00    -0.331 N 
HETATM   30  C5  UNL     1      -7.987 -17.375  15.930  1.00  0.00     0.229 C 
HETATM   31  O1  UNL     1      -7.686 -18.133  14.980  1.00  0.00    -0.272 OA
ATOM     32  H1  UNL     1      -9.475 -16.848  17.248  1.00  0.00     0.168 HD
BRANCH  30  33
HETATM   33  C2  UNL     1      -6.947 -16.453  16.353  1.00  0.00     0.030 C 
HETATM   34  C1  UNL     1      -7.162 -15.022  15.966  1.00  0.00     0.025 C 
HETATM   35  C3  UNL     1      -5.601 -16.900  15.843  1.00  0.00     0.025 C 
HETATM   36  C4  UNL     1      -6.801 -16.431  17.885  1.00  0.00     0.025 C 
ENDBRANCH  30  33
ENDBRANCH  28  29
BRANCH  28  37
HETATM   37  C29 UNL     1     -11.259 -17.749  15.093  1.00  0.00    -0.011 C 
HETATM   38  C30 UNL     1     -11.255 -18.421  13.774  1.00  0.00     0.021 C 
HETATM   39  C31 UNL     1     -12.685 -17.522  15.511  1.00  0.00     0.021 C 
HETATM   40  C32 UNL     1     -10.755 -16.321  14.717  1.00  0.00     0.021 C 
ENDBRANCH  28  37
ENDBRANCH  27  28
BRANCH  27  41
HETATM   41  C25 UNL     1     -10.184 -19.732  18.310  1.00  0.00    -0.026 C 
HETATM   42  C26 UNL     1      -8.759 -19.313  18.491  1.00  0.00     0.017 C 
HETATM   43  C27 UNL     1     -10.263 -21.186  18.678  1.00  0.00     0.017 C 
HETATM   44  C28 UNL     1     -10.878 -19.040  19.534  1.00  0.00     0.017 C 
ENDBRANCH  27  41
ENDBRANCH   1  27
TORSDOF 13
ENDMDL
MODEL 5
REMARK VINA RESULT: -7.034805063      2.767      9.995
REMARK  13 active torsions:
REMARK  status: ('A' for Active; 'I' for Inactive)
REMARK    1  A    between atoms: C2_2  and  C5_5 
REMARK       I    between atoms: C5_5  and  N1_7 
REMARK    2  A    between atoms: N1_7  and  C6_9 
REMARK    3  A    between atoms: C6_9  and  C7_10 
REMARK    4  A    between atoms: C6_9  and  C29_41 
REMARK    5  A    between atoms: C7_10  and  N2_11 
REMARK    6  A    between atoms: C7_10  and  C25_37 
REMARK    7  A    between atoms: C11_15  and  C12_16 
REMARK       I    between atoms: C12_16  and  N3_18 
REMARK    8  A    between atoms: C16_22  and  C17_23 
REMARK       I    between atoms: C17_23  and  N4_25 
REMARK    9  A    between atoms: N4_25  and  C18_27 
REMARK   10  A    between atoms: C18_27  and  C19_28 
REMARK   11  A    between atoms: C18_27  and  C23_32 
REMARK   12  A    between atoms: C19_28  and  C20_29 
REMARK   13  A    between atoms: C23_32  and  C24_34 
ROOT
HETATM    1  N2  UNL     1      -9.990 -19.691  16.847  1.00  0.00    -0.390 N 
HETATM    2  C8  UNL     1      -9.742 -20.216  15.639  1.00  0.00     0.118 C 
HETATM    3  C9  UNL     1     -11.055 -20.660  14.963  1.00  0.00     0.022 C 
HETATM    4  C10 UNL     1     -12.063 -20.243  15.968  1.00  0.00     0.036 C 
HETATM    5  C11 UNL     1     -11.273 -20.112  17.281  1.00  0.00     0.172 C 
ENDROOT
BRANCH   5   6
HETATM    6  C12 UNL     1     -11.328 -21.426  17.975  1.00  0.00     0.243 C 
HETATM    7  O2  UNL     1     -10.536 -22.351  17.788  1.00  0.00    -0.271 OA
HETATM    8  N3  UNL     1     -12.381 -21.641  18.935  1.00  0.00    -0.337 N 
HETATM    9  C13 UNL     1     -13.437 -20.722  19.303  1.00  0.00     0.127 C 
HETATM   10  C16 UNL     1     -12.583 -22.824  19.726  1.00  0.00     0.179 C 
HETATM   11  C14 UNL     1     -13.366 -20.804  20.822  1.00  0.00     0.022 C 
HETATM   12  C15 UNL     1     -13.112 -22.296  21.033  1.00  0.00     0.037 C 
BRANCH  10  13
HETATM   13  C17 UNL     1     -13.615 -23.714  19.105  1.00  0.00     0.241 C 
HETATM   14  O3  UNL     1     -13.325 -24.848  18.628  1.00  0.00    -0.271 OA
HETATM   15  N4  UNL     1     -14.948 -23.292  19.041  1.00  0.00    -0.347 N 
ATOM     16  H4  UNL     1     -15.193 -22.376  19.417  1.00  0.00     0.163 HD
BRANCH  15  17
HETATM   17  C18 UNL     1     -16.014 -24.126  18.448  1.00  0.00     0.164 C 
BRANCH  17  18
HETATM   18  C19 UNL     1     -16.688 -23.294  17.370  1.00  0.00     0.038 C 
BRANCH  18  19
HETATM   19  C20 UNL     1     -15.886 -22.200  16.785  1.00  0.00    -0.012 A 
HETATM   20  C21 UNL     1     -16.438 -21.733  15.408  1.00  0.00     0.005 A 
HETATM   21  C22 UNL     1     -15.101 -22.311  15.540  1.00  0.00     0.005 A 
ENDBRANCH  18  19
ENDBRANCH  17  18
BRANCH  17  22
HETATM   22  C23 UNL     1     -16.935 -24.418  19.543  1.00  0.00     0.236 C 
HETATM   23  O4  UNL     1     -18.188 -24.253  19.352  1.00  0.00    -0.285 OA
BRANCH  22  24
HETATM   24  C24 UNL     1     -16.506 -24.881  20.832  1.00  0.00     0.302 C 
HETATM   25  N5  UNL     1     -17.014 -26.111  21.396  1.00  0.00    -0.054 NA
HETATM   26  O5  UNL     1     -15.684 -24.276  21.552  1.00  0.00    -0.268 OA
ENDBRANCH  22  24
ENDBRANCH  17  22
ENDBRANCH  15  17
ENDBRANCH  10  13
ENDBRANCH   5   6
BRANCH   1  27
HETATM   27  C7  UNL     1      -9.567 -18.408  17.362  1.00  0.00     0.134 C 
BRANCH  27  28
HETATM   28  C6  UNL     1      -8.750 -17.580  16.465  1.00  0.00     0.020 C 
BRANCH  28  29
HETATM   29  N1  UNL     1      -7.515 -17.015  16.856  1.00  0.00    -0.331 N 
HETATM   30  C5  UNL     1      -6.236 -17.039  16.248  1.00  0.00     0.229 C 
HETATM   31  O1  UNL     1      -6.119 -17.653  15.163  1.00  0.00    -0.272 OA
ATOM     32  H1  UNL     1      -7.551 -16.497  17.734  1.00  0.00     0.168 HD
BRANCH  30  33
HETATM   33  C2  UNL     1      -5.025 -16.415  16.753  1.00  0.00     0.030 C 
HETATM   34  C1  UNL     1      -4.788 -16.572  18.224  1.00  0.00     0.025 C 
HETATM   35  C3  UNL     1      -5.001 -14.947  16.409  1.00  0.00     0.025 C 
HETATM   36  C4  UNL     1      -3.768 -16.999  16.084  1.00  0.00     0.025 C 
ENDBRANCH  30  33
ENDBRANCH  28  29
BRANCH  28  37
HETATM   37  C29 UNL     1      -9.440 -16.756  15.403  1.00  0.00    -0.011 C 
HETATM   38  C30 UNL     1     -10.920 -16.775  15.405  1.00  0.00     0.021 C 
HETATM   39  C31 UNL     1      -8.978 -15.329  15.306  1.00  0.00     0.021 C 
HETATM   40  C32 UNL     1      -9.123 -17.340  13.991  1.00  0.00     0.021 C 
ENDBRANCH  28  37
ENDBRANCH  27  28
BRANCH  27  41
HETATM   41  C25 UNL     1      -9.141 -18.669  18.757  1.00  0.00    -0.026 C 
HETATM   42  C26 UNL     1      -8.148 -19.749  19.054  1.00  0.00     0.017 C 
HETATM   43  C27 UNL     1     -10.221 -18.771  19.796  1.00  0.00     0.017 C 
HETATM   44  C28 UNL     1      -8.362 -17.386  19.211  1.00  0.00     0.017 C 
ENDBRANCH  27  41
ENDBRANCH   1  27
TORSDOF 13
ENDMDL
