MODEL 1
REMARK VINA RESULT: -9.021422771      0.000      0.000
REMARK  10 active torsions:
REMARK  status: ('A' for Active; 'I' for Inactive)
REMARK    1  A    between atoms: C2_2  and  N1_3 
REMARK    2  A    between atoms: C5_6  and  N2_7 
REMARK       I    between atoms: N2_7  and  C6_9 
REMARK    3  A    between atoms: C6_9  and  C7_11 
REMARK    4  A    between atoms: C7_11  and  N3_12 
REMARK       I    between atoms: N3_12  and  C8_13 
REMARK    5  A    between atoms: N3_12  and  C13_21 
REMARK       I    between atoms: C8_13  and  N4_15 
REMARK    6  A    between atoms: N4_15  and  C9_17 
REMARK    7  A    between atoms: C19_27  and  N5_28 
REMARK       I    between atoms: N5_28  and  C20_30 
REMARK    8  A    between atoms: C20_30  and  C21_32 
REMARK    9  A    between atoms: C21_32  and  O4_34 
REMARK   10  A    between atoms: C21_32  and  C24_36 
ROOT
HETATM    1  C13 UNL     1     -20.220  18.561  -6.792  1.00  0.00     0.127 C 
HETATM    2  C14 UNL     1     -20.660  18.270  -8.234  1.00  0.00     0.060 C 
HETATM    3  C15 UNL     1     -19.823  19.238  -9.015  1.00  0.00     0.124 C 
HETATM    4  C16 UNL     1     -18.773  18.433  -9.758  1.00  0.00     0.038 C 
HETATM    5  C17 UNL     1     -17.720  17.900  -8.852  1.00  0.00     0.009 C 
HETATM    6  C18 UNL     1     -17.778  16.394  -8.826  1.00  0.00     0.012 C 
HETATM    7  C19 UNL     1     -17.714  18.506  -7.462  1.00  0.00     0.119 C 
HETATM    8  C30 UNL     1     -18.926  19.168  -7.008  1.00  0.00     0.168 C 
HETATM    9  O5  UNL     1     -19.268  20.087  -8.091  1.00  0.00    -0.376 OA
ENDROOT
BRANCH   1  10
HETATM   10  N3  UNL     1     -20.595  17.581  -5.930  1.00  0.00    -0.297 N 
HETATM   11  C8  UNL     1     -20.632  18.008  -4.594  1.00  0.00     0.323 C 
HETATM   12  O2  UNL     1     -20.833  19.252  -4.373  1.00  0.00    -0.247 OA
HETATM   13  N4  UNL     1     -20.462  17.159  -3.491  1.00  0.00    -0.335 N 
ATOM     14  H4  UNL     1     -20.306  16.164  -3.655  1.00  0.00     0.165 HD
BRANCH  10  15
HETATM   15  C7  UNL     1     -20.337  16.213  -6.049  1.00  0.00     0.170 C 
BRANCH  15  16
HETATM   16  C6  UNL     1     -21.555  15.414  -6.421  1.00  0.00     0.257 C 
HETATM   17  N2  UNL     1     -22.850  15.863  -6.095  1.00  0.00    -0.352 N 
ATOM     18  H2  UNL     1     -22.958  16.747  -5.598  1.00  0.00     0.163 HD
HETATM   19  O1  UNL     1     -21.412  14.329  -7.031  1.00  0.00    -0.267 OA
BRANCH  17  20
HETATM   20  C5  UNL     1     -24.034  15.104  -6.448  1.00  0.00     0.088 C 
HETATM   21  C4  UNL     1     -25.046  15.304  -5.350  1.00  0.00     0.055 C 
HETATM   22  C3  UNL     1     -26.424  14.832  -5.735  1.00  0.00     0.274 C 
HETATM   23  N1  UNL     1     -26.491  14.411  -7.120  1.00  0.00     0.088 N 
HETATM   24  C32 UNL     1     -26.017  15.496  -7.929  1.00  0.00     0.274 C 
HETATM   25  C31 UNL     1     -24.511  15.557  -7.788  1.00  0.00     0.055 C 
BRANCH  23  26
HETATM   26  C2  UNL     1     -27.883  14.078  -7.410  1.00  0.00     0.268 C 
HETATM   27  C1  UNL     1     -28.399  15.178  -8.317  1.00  0.00     0.037 C 
ENDBRANCH  23  26
ENDBRANCH  17  20
ENDBRANCH  15  16
ENDBRANCH  10  15
BRANCH  13  28
HETATM   28  C9  UNL     1     -20.501  17.649  -2.116  1.00  0.00     0.023 C 
HETATM   29  C10 UNL     1     -20.254  16.470  -1.203  1.00  0.00     0.037 C 
HETATM   30  C11 UNL     1     -21.850  18.194  -1.794  1.00  0.00     0.037 C 
HETATM   31  C12 UNL     1     -19.442  18.674  -1.839  1.00  0.00     0.037 C 
ENDBRANCH  13  28
ENDBRANCH   1  10
BRANCH   7  32
HETATM   32  N5  UNL     1     -16.693  19.614  -7.530  1.00  0.00    -0.351 N 
HETATM   33  C20 UNL     1     -15.818  19.894  -6.499  1.00  0.00     0.253 C 
HETATM   34  O3  UNL     1     -15.917  19.135  -5.458  1.00  0.00    -0.270 OA
ATOM     35  H5  UNL     1     -16.647  20.183  -8.375  1.00  0.00     0.163 HD
BRANCH  33  36
HETATM   36  C21 UNL     1     -14.780  20.926  -6.393  1.00  0.00     0.140 C 
HETATM   37  C22 UNL     1     -14.867  21.934  -7.533  1.00  0.00     0.057 C 
BRANCH  36  38
HETATM   38  O4  UNL     1     -13.525  20.365  -6.376  1.00  0.00    -0.375 OA
HETATM   39  C23 UNL     1     -12.960  20.076  -7.585  1.00  0.00     0.203 C 
ENDBRANCH  36  38
BRANCH  36  40
HETATM   40  C24 UNL     1     -14.960  21.729  -5.092  1.00  0.00     0.029 C 
HETATM   41  C25 UNL     1     -13.677  22.376  -4.682  1.00  0.00     0.008 C 
HETATM   42  C26 UNL     1     -13.879  23.813  -4.249  1.00  0.00     0.000 C 
HETATM   43  C27 UNL     1     -15.071  23.973  -3.348  1.00  0.00     0.000 C 
HETATM   44  C28 UNL     1     -16.349  23.489  -3.989  1.00  0.00     0.000 C 
HETATM   45  C29 UNL     1     -16.102  22.712  -5.250  1.00  0.00     0.008 C 
ENDBRANCH  36  40
ENDBRANCH  33  36
ENDBRANCH   7  32
TORSDOF 10
ENDMDL
MODEL 2
REMARK VINA RESULT: -8.611587078      3.265      9.964
REMARK  10 active torsions:
REMARK  status: ('A' for Active; 'I' for Inactive)
REMARK    1  A    between atoms: C2_2  and  N1_3 
REMARK    2  A    between atoms: C5_6  and  N2_7 
REMARK       I    between atoms: N2_7  and  C6_9 
REMARK    3  A    between atoms: C6_9  and  C7_11 
REMARK    4  A    between atoms: C7_11  and  N3_12 
REMARK       I    between atoms: N3_12  and  C8_13 
REMARK    5  A    between atoms: N3_12  and  C13_21 
REMARK       I    between atoms: C8_13  and  N4_15 
REMARK    6  A    between atoms: N4_15  and  C9_17 
REMARK    7  A    between atoms: C19_27  and  N5_28 
REMARK       I    between atoms: N5_28  and  C20_30 
REMARK    8  A    between atoms: C20_30  and  C21_32 
REMARK    9  A    between atoms: C21_32  and  O4_34 
REMARK   10  A    between atoms: C21_32  and  C24_36 
ROOT
HETATM    1  C13 UNL     1     -16.658  21.763  -4.713  1.00  0.00     0.127 C 
HETATM    2  C14 UNL     1     -17.806  21.813  -3.693  1.00  0.00     0.060 C 
HETATM    3  C15 UNL     1     -18.993  21.483  -4.547  1.00  0.00     0.124 C 
HETATM    4  C16 UNL     1     -19.452  20.087  -4.167  1.00  0.00     0.038 C 
HETATM    5  C17 UNL     1     -18.522  19.033  -4.654  1.00  0.00     0.009 C 
HETATM    6  C18 UNL     1     -17.883  18.330  -3.482  1.00  0.00     0.012 C 
HETATM    7  C19 UNL     1     -17.504  19.507  -5.673  1.00  0.00     0.119 C 
HETATM    8  C30 UNL     1     -17.234  20.933  -5.746  1.00  0.00     0.168 C 
HETATM    9  O5  UNL     1     -18.554  21.550  -5.845  1.00  0.00    -0.376 OA
ENDROOT
BRANCH   1  10
HETATM   10  N3  UNL     1     -15.440  21.702  -4.115  1.00  0.00    -0.297 N 
HETATM   11  C8  UNL     1     -14.948  22.962  -3.740  1.00  0.00     0.323 C 
HETATM   12  O2  UNL     1     -15.801  23.886  -3.503  1.00  0.00    -0.247 OA
HETATM   13  N4  UNL     1     -13.586  23.267  -3.608  1.00  0.00    -0.335 N 
ATOM     14  H4  UNL     1     -12.898  22.536  -3.789  1.00  0.00     0.165 HD
BRANCH  10  15
HETATM   15  C7  UNL     1     -14.420  20.784  -4.378  1.00  0.00     0.170 C 
BRANCH  15  16
HETATM   16  C6  UNL     1     -13.863  20.905  -5.769  1.00  0.00     0.257 C 
HETATM   17  N2  UNL     1     -13.382  22.136  -6.258  1.00  0.00    -0.352 N 
ATOM     18  H2  UNL     1     -13.414  22.956  -5.653  1.00  0.00     0.163 HD
HETATM   19  O1  UNL     1     -13.829  19.892  -6.505  1.00  0.00    -0.267 OA
BRANCH  17  20
HETATM   20  C5  UNL     1     -12.842  22.268  -7.597  1.00  0.00     0.088 C 
HETATM   21  C4  UNL     1     -13.965  22.710  -8.498  1.00  0.00     0.055 C 
HETATM   22  C3  UNL     1     -13.480  23.186  -9.843  1.00  0.00     0.274 C 
HETATM   23  N1  UNL     1     -12.033  23.233  -9.918  1.00  0.00     0.088 N 
HETATM   24  C32 UNL     1     -11.567  24.041  -8.828  1.00  0.00     0.274 C 
HETATM   25  C31 UNL     1     -11.697  23.227  -7.558  1.00  0.00     0.055 C 
BRANCH  23  26
HETATM   26  C2  UNL     1     -11.680  23.805 -11.214  1.00  0.00     0.268 C 
HETATM   27  C1  UNL     1     -11.672  25.309 -11.023  1.00  0.00     0.037 C 
ENDBRANCH  23  26
ENDBRANCH  17  20
ENDBRANCH  15  16
ENDBRANCH  10  15
BRANCH  13  28
HETATM   28  C9  UNL     1     -13.119  24.595  -3.221  1.00  0.00     0.023 C 
HETATM   29  C10 UNL     1     -11.615  24.612  -3.370  1.00  0.00     0.037 C 
HETATM   30  C11 UNL     1     -13.432  24.862  -1.788  1.00  0.00     0.037 C 
HETATM   31  C12 UNL     1     -13.679  25.680  -4.091  1.00  0.00     0.037 C 
ENDBRANCH  13  28
ENDBRANCH   1  10
BRANCH   7  32
HETATM   32  N5  UNL     1     -18.119  19.180  -7.011  1.00  0.00    -0.351 N 
HETATM   33  C20 UNL     1     -17.867  18.001  -7.686  1.00  0.00     0.253 C 
HETATM   34  O3  UNL     1     -17.070  17.176  -7.093  1.00  0.00    -0.270 OA
ATOM     35  H5  UNL     1     -18.749  19.859  -7.436  1.00  0.00     0.163 HD
BRANCH  33  36
HETATM   36  C21 UNL     1     -18.367  17.528  -8.982  1.00  0.00     0.140 C 
HETATM   37  C22 UNL     1     -17.577  16.326  -9.487  1.00  0.00     0.057 C 
BRANCH  36  38
HETATM   38  O4  UNL     1     -18.325  18.529  -9.924  1.00  0.00    -0.375 OA
HETATM   39  C23 UNL     1     -17.426  18.384 -10.940  1.00  0.00     0.203 C 
ENDBRANCH  36  38
BRANCH  36  40
HETATM   40  C24 UNL     1     -19.827  17.060  -8.849  1.00  0.00     0.029 C 
HETATM   41  C25 UNL     1     -19.914  15.568  -8.866  1.00  0.00     0.008 C 
HETATM   42  C26 UNL     1     -20.848  15.042  -7.797  1.00  0.00     0.000 C 
HETATM   43  C27 UNL     1     -22.130  15.823  -7.728  1.00  0.00     0.000 C 
HETATM   44  C28 UNL     1     -21.898  17.292  -7.470  1.00  0.00     0.000 C 
HETATM   45  C29 UNL     1     -20.455  17.682  -7.619  1.00  0.00     0.008 C 
ENDBRANCH  36  40
ENDBRANCH  33  36
ENDBRANCH   7  32
TORSDOF 10
ENDMDL
MODEL 3
REMARK VINA RESULT: -8.548797382      3.233      7.529
REMARK  10 active torsions:
REMARK  status: ('A' for Active; 'I' for Inactive)
REMARK    1  A    between atoms: C2_2  and  N1_3 
REMARK    2  A    between atoms: C5_6  and  N2_7 
REMARK       I    between atoms: N2_7  and  C6_9 
REMARK    3  A    between atoms: C6_9  and  C7_11 
REMARK    4  A    between atoms: C7_11  and  N3_12 
REMARK       I    between atoms: N3_12  and  C8_13 
REMARK    5  A    between atoms: N3_12  and  C13_21 
REMARK       I    between atoms: C8_13  and  N4_15 
REMARK    6  A    between atoms: N4_15  and  C9_17 
REMARK    7  A    between atoms: C19_27  and  N5_28 
REMARK       I    between atoms: N5_28  and  C20_30 
REMARK    8  A    between atoms: C20_30  and  C21_32 
REMARK    9  A    between atoms: C21_32  and  O4_34 
REMARK   10  A    between atoms: C21_32  and  C24_36 
ROOT
HETATM    1  C13 UNL     1     -14.982  21.367  -5.862  1.00  0.00     0.127 C 
HETATM    2  C14 UNL     1     -13.528  21.569  -6.314  1.00  0.00     0.060 C 
HETATM    3  C15 UNL     1     -13.268  20.313  -7.090  1.00  0.00     0.124 C 
HETATM    4  C16 UNL     1     -13.196  20.693  -8.557  1.00  0.00     0.038 C 
HETATM    5  C17 UNL     1     -14.529  21.036  -9.121  1.00  0.00     0.009 C 
HETATM    6  C18 UNL     1     -14.560  22.490  -9.517  1.00  0.00     0.012 C 
HETATM    7  C19 UNL     1     -15.706  20.647  -8.246  1.00  0.00     0.119 C 
HETATM    8  C30 UNL     1     -15.450  20.408  -6.835  1.00  0.00     0.168 C 
HETATM    9  O5  UNL     1     -14.323  19.479  -6.821  1.00  0.00    -0.376 OA
ENDROOT
BRANCH   1  10
HETATM   10  N3  UNL     1     -15.550  22.521  -5.424  1.00  0.00    -0.297 N 
HETATM   11  C8  UNL     1     -15.027  22.960  -4.198  1.00  0.00     0.323 C 
HETATM   12  O2  UNL     1     -13.833  22.609  -3.902  1.00  0.00    -0.247 OA
HETATM   13  N4  UNL     1     -15.729  23.757  -3.283  1.00  0.00    -0.335 N 
ATOM     14  H4  UNL     1     -16.680  24.048  -3.511  1.00  0.00     0.165 HD
BRANCH  10  15
HETATM   15  C7  UNL     1     -16.869  22.938  -5.624  1.00  0.00     0.170 C 
BRANCH  15  16
HETATM   16  C6  UNL     1     -17.835  22.324  -4.651  1.00  0.00     0.257 C 
HETATM   17  N2  UNL     1     -18.000  20.927  -4.569  1.00  0.00    -0.352 N 
ATOM     18  H2  UNL     1     -17.452  20.326  -5.184  1.00  0.00     0.163 HD
HETATM   19  O1  UNL     1     -18.504  23.071  -3.900  1.00  0.00    -0.267 OA
BRANCH  17  20
HETATM   20  C5  UNL     1     -18.928  20.320  -3.635  1.00  0.00     0.088 C 
HETATM   21  C4  UNL     1     -20.088  19.783  -4.431  1.00  0.00     0.055 C 
HETATM   22  C3  UNL     1     -20.967  18.858  -3.629  1.00  0.00     0.274 C 
HETATM   23  N1  UNL     1     -20.423  18.593  -2.311  1.00  0.00     0.088 N 
HETATM   24  C32 UNL     1     -19.088  18.100  -2.482  1.00  0.00     0.274 C 
HETATM   25  C31 UNL     1     -18.204  19.271  -2.855  1.00  0.00     0.055 C 
BRANCH  23  26
HETATM   26  C2  UNL     1     -21.292  17.610  -1.669  1.00  0.00     0.268 C 
HETATM   27  C1  UNL     1     -22.664  18.248  -1.590  1.00  0.00     0.037 C 
ENDBRANCH  23  26
ENDBRANCH  17  20
ENDBRANCH  15  16
ENDBRANCH  10  15
BRANCH  13  28
HETATM   28  C9  UNL     1     -15.146  24.186  -2.015  1.00  0.00     0.023 C 
HETATM   29  C10 UNL     1     -16.226  24.901  -1.234  1.00  0.00     0.037 C 
HETATM   30  C11 UNL     1     -14.041  25.157  -2.249  1.00  0.00     0.037 C 
HETATM   31  C12 UNL     1     -14.665  23.035  -1.183  1.00  0.00     0.037 C 
ENDBRANCH  13  28
ENDBRANCH   1  10
BRANCH   7  32
HETATM   32  N5  UNL     1     -16.147  19.303  -8.772  1.00  0.00    -0.351 N 
HETATM   33  C20 UNL     1     -17.474  18.936  -8.877  1.00  0.00     0.253 C 
HETATM   34  O3  UNL     1     -18.333  19.826  -8.502  1.00  0.00    -0.270 OA
ATOM     35  H5  UNL     1     -15.433  18.636  -9.064  1.00  0.00     0.163 HD
BRANCH  33  36
HETATM   36  C21 UNL     1     -18.075  17.685  -9.353  1.00  0.00     0.140 C 
HETATM   37  C22 UNL     1     -17.094  16.521  -9.274  1.00  0.00     0.057 C 
BRANCH  36  38
HETATM   38  O4  UNL     1     -18.526  17.813 -10.645  1.00  0.00    -0.375 OA
HETATM   39  C23 UNL     1     -17.617  18.212 -11.582  1.00  0.00     0.203 C 
ENDBRANCH  36  38
BRANCH  36  40
HETATM   40  C24 UNL     1     -19.273  17.301  -8.466  1.00  0.00     0.029 C 
HETATM   41  C25 UNL     1     -20.092  16.228  -9.109  1.00  0.00     0.008 C 
HETATM   42  C26 UNL     1     -20.479  15.143  -8.126  1.00  0.00     0.000 C 
HETATM   43  C27 UNL     1     -20.955  15.707  -6.818  1.00  0.00     0.000 C 
HETATM   44  C28 UNL     1     -19.925  16.593  -6.160  1.00  0.00     0.000 C 
HETATM   45  C29 UNL     1     -18.787  16.932  -7.080  1.00  0.00     0.008 C 
ENDBRANCH  36  40
ENDBRANCH  33  36
ENDBRANCH   7  32
TORSDOF 10
ENDMDL
MODEL 4
REMARK VINA RESULT: -8.534693951      3.073      5.426
REMARK  10 active torsions:
REMARK  status: ('A' for Active; 'I' for Inactive)
REMARK    1  A    between atoms: C2_2  and  N1_3 
REMARK    2  A    between atoms: C5_6  and  N2_7 
REMARK       I    between atoms: N2_7  and  C6_9 
REMARK    3  A    between atoms: C6_9  and  C7_11 
REMARK    4  A    between atoms: C7_11  and  N3_12 
REMARK       I    between atoms: N3_12  and  C8_13 
REMARK    5  A    between atoms: N3_12  and  C13_21 
REMARK       I    between atoms: C8_13  and  N4_15 
REMARK    6  A    between atoms: N4_15  and  C9_17 
REMARK    7  A    between atoms: C19_27  and  N5_28 
REMARK       I    between atoms: N5_28  and  C20_30 
REMARK    8  A    between atoms: C20_30  and  C21_32 
REMARK    9  A    between atoms: C21_32  and  O4_34 
REMARK   10  A    between atoms: C21_32  and  C24_36 
ROOT
HETATM    1  C13 UNL     1     -16.950  19.582  -7.635  1.00  0.00     0.127 C 
HETATM    2  C14 UNL     1     -16.162  19.674  -8.951  1.00  0.00     0.060 C 
HETATM    3  C15 UNL     1     -15.704  21.101  -8.939  1.00  0.00     0.124 C 
HETATM    4  C16 UNL     1     -14.208  21.095  -8.686  1.00  0.00     0.038 C 
HETATM    5  C17 UNL     1     -13.872  20.738  -7.282  1.00  0.00     0.009 C 
HETATM    6  C18 UNL     1     -13.125  19.428  -7.250  1.00  0.00     0.012 C 
HETATM    7  C19 UNL     1     -15.047  20.760  -6.323  1.00  0.00     0.119 C 
HETATM    8  C30 UNL     1     -16.384  20.683  -6.890  1.00  0.00     0.168 C 
HETATM    9  O5  UNL     1     -16.400  21.712  -7.927  1.00  0.00    -0.376 OA
ENDROOT
BRANCH   1  10
HETATM   10  N3  UNL     1     -17.182  18.297  -7.261  1.00  0.00    -0.297 N 
HETATM   11  C8  UNL     1     -18.310  17.740  -7.884  1.00  0.00     0.323 C 
HETATM   12  O2  UNL     1     -18.657  18.214  -9.020  1.00  0.00    -0.247 OA
HETATM   13  N4  UNL     1     -19.074  16.698  -7.339  1.00  0.00    -0.335 N 
ATOM     14  H4  UNL     1     -18.803  16.309  -6.436  1.00  0.00     0.165 HD
BRANCH  10  15
HETATM   15  C7  UNL     1     -16.918  17.724  -6.015  1.00  0.00     0.170 C 
BRANCH  15  16
HETATM   16  C6  UNL     1     -17.822  18.235  -4.928  1.00  0.00     0.257 C 
HETATM   17  N2  UNL     1     -19.104  17.687  -4.727  1.00  0.00    -0.352 N 
ATOM     18  H2  UNL     1     -19.420  16.930  -5.333  1.00  0.00     0.163 HD
HETATM   19  O1  UNL     1     -17.424  19.166  -4.190  1.00  0.00    -0.267 OA
BRANCH  17  20
HETATM   20  C5  UNL     1     -19.987  18.170  -3.683  1.00  0.00     0.088 C 
HETATM   21  C4  UNL     1     -21.402  17.972  -4.157  1.00  0.00     0.055 C 
HETATM   22  C3  UNL     1     -22.415  18.138  -3.054  1.00  0.00     0.274 C 
HETATM   23  N1  UNL     1     -21.789  18.322  -1.759  1.00  0.00     0.088 N 
HETATM   24  C32 UNL     1     -20.894  17.221  -1.548  1.00  0.00     0.274 C 
HETATM   25  C31 UNL     1     -19.675  17.440  -2.418  1.00  0.00     0.055 C 
BRANCH  23  26
HETATM   26  C2  UNL     1     -22.853  18.363  -0.760  1.00  0.00     0.268 C 
HETATM   27  C1  UNL     1     -24.157  18.281  -1.528  1.00  0.00     0.037 C 
ENDBRANCH  23  26
ENDBRANCH  17  20
ENDBRANCH  15  16
ENDBRANCH  10  15
BRANCH  13  28
HETATM   28  C9  UNL     1     -20.245  16.153  -8.019  1.00  0.00     0.023 C 
HETATM   29  C10 UNL     1     -20.828  15.075  -7.133  1.00  0.00     0.037 C 
HETATM   30  C11 UNL     1     -19.850  15.513  -9.306  1.00  0.00     0.037 C 
HETATM   31  C12 UNL     1     -21.310  17.183  -8.251  1.00  0.00     0.037 C 
ENDBRANCH  13  28
ENDBRANCH   1  10
BRANCH   7  32
HETATM   32  N5  UNL     1     -14.996  22.126  -5.685  1.00  0.00    -0.351 N 
HETATM   33  C20 UNL     1     -14.791  22.317  -4.333  1.00  0.00     0.253 C 
HETATM   34  O3  UNL     1     -14.633  21.242  -3.633  1.00  0.00    -0.270 OA
ATOM     35  H5  UNL     1     -15.118  22.946  -6.279  1.00  0.00     0.163 HD
BRANCH  33  36
HETATM   36  C21 UNL     1     -14.721  23.558  -3.553  1.00  0.00     0.140 C 
HETATM   37  C22 UNL     1     -14.532  23.280  -2.066  1.00  0.00     0.057 C 
BRANCH  36  38
HETATM   38  O4  UNL     1     -15.850  24.321  -3.733  1.00  0.00    -0.375 OA
HETATM   39  C23 UNL     1     -17.052  23.687  -3.607  1.00  0.00     0.203 C 
ENDBRANCH  36  38
BRANCH  36  40
HETATM   40  C24 UNL     1     -13.506  24.394  -3.993  1.00  0.00     0.029 C 
HETATM   41  C25 UNL     1     -13.013  25.252  -2.873  1.00  0.00     0.008 C 
HETATM   42  C26 UNL     1     -11.504  25.218  -2.753  1.00  0.00     0.000 C 
HETATM   43  C27 UNL     1     -10.826  25.341  -4.088  1.00  0.00     0.000 C 
HETATM   44  C28 UNL     1     -11.246  24.258  -5.052  1.00  0.00     0.000 C 
HETATM   45  C29 UNL     1     -12.437  23.484  -4.563  1.00  0.00     0.008 C 
ENDBRANCH  36  40
ENDBRANCH  33  36
ENDBRANCH   7  32
TORSDOF 10
ENDMDL
MODEL 5
REMARK VINA RESULT: -8.533711457      0.874      2.090
REMARK  10 active torsions:
REMARK  status: ('A' for Active; 'I' for Inactive)
REMARK    1  A    between atoms: C2_2  and  N1_3 
REMARK    2  A    between atoms: C5_6  and  N2_7 
REMARK       I    between atoms: N2_7  and  C6_9 
REMARK    3  A    between atoms: C6_9  and  C7_11 
REMARK    4  A    between atoms: C7_11  and  N3_12 
REMARK       I    between atoms: N3_12  and  C8_13 
REMARK    5  A    between atoms: N3_12  and  C13_21 
REMARK       I    between atoms: C8_13  and  N4_15 
REMARK    6  A    between atoms: N4_15  and  C9_17 
REMARK    7  A    between atoms: C19_27  and  N5_28 
REMARK       I    between atoms: N5_28  and  C20_30 
REMARK    8  A    between atoms: C20_30  and  C21_32 
REMARK    9  A    between atoms: C21_32  and  O4_34 
REMARK   10  A    between atoms: C21_32  and  C24_36 
ROOT
HETATM    1  C13 UNL     1     -20.324  18.648  -6.680  1.00  0.00     0.127 C 
HETATM    2  C14 UNL     1     -20.619  18.311  -8.150  1.00  0.00     0.060 C 
HETATM    3  C15 UNL     1     -19.807  19.343  -8.873  1.00  0.00     0.124 C 
HETATM    4  C16 UNL     1     -18.635  18.627  -9.518  1.00  0.00     0.038 C 
HETATM    5  C17 UNL     1     -17.617  18.193  -8.524  1.00  0.00     0.009 C 
HETATM    6  C18 UNL     1     -17.548  16.687  -8.484  1.00  0.00     0.012 C 
HETATM    7  C19 UNL     1     -17.777  18.805  -7.146  1.00  0.00     0.119 C 
HETATM    8  C30 UNL     1     -19.074  19.363  -6.799  1.00  0.00     0.168 C 
HETATM    9  O5  UNL     1     -19.403  20.242  -7.918  1.00  0.00    -0.376 OA
ENDROOT
BRANCH   1  10
HETATM   10  N3  UNL     1     -20.683  17.643  -5.839  1.00  0.00    -0.297 N 
HETATM   11  C8  UNL     1     -20.712  18.039  -4.493  1.00  0.00     0.323 C 
HETATM   12  O2  UNL     1     -20.924  19.275  -4.241  1.00  0.00    -0.247 OA
HETATM   13  N4  UNL     1     -20.525  17.165  -3.412  1.00  0.00    -0.335 N 
ATOM     14  H4  UNL     1     -20.361  16.176  -3.601  1.00  0.00     0.165 HD
BRANCH  10  15
HETATM   15  C7  UNL     1     -20.413  16.281  -5.992  1.00  0.00     0.170 C 
BRANCH  15  16
HETATM   16  C6  UNL     1     -21.628  15.477  -6.362  1.00  0.00     0.257 C 
HETATM   17  N2  UNL     1     -22.926  15.947  -6.081  1.00  0.00    -0.352 N 
ATOM     18  H2  UNL     1     -23.038  16.849  -5.618  1.00  0.00     0.163 HD
HETATM   19  O1  UNL     1     -21.480  14.370  -6.929  1.00  0.00    -0.267 OA
BRANCH  17  20
HETATM   20  C5  UNL     1     -24.108  15.183  -6.431  1.00  0.00     0.088 C 
HETATM   21  C4  UNL     1     -25.108  15.358  -5.319  1.00  0.00     0.055 C 
HETATM   22  C3  UNL     1     -26.487  14.880  -5.695  1.00  0.00     0.274 C 
HETATM   23  N1  UNL     1     -26.567  14.480  -7.086  1.00  0.00     0.088 N 
HETATM   24  C32 UNL     1     -26.112  15.582  -7.883  1.00  0.00     0.274 C 
HETATM   25  C31 UNL     1     -24.605  15.654  -7.759  1.00  0.00     0.055 C 
BRANCH  23  26
HETATM   26  C2  UNL     1     -27.959  14.141  -7.365  1.00  0.00     0.268 C 
HETATM   27  C1  UNL     1     -28.442  15.149  -8.388  1.00  0.00     0.037 C 
ENDBRANCH  23  26
ENDBRANCH  17  20
ENDBRANCH  15  16
ENDBRANCH  10  15
BRANCH  13  28
HETATM   28  C9  UNL     1     -20.558  17.622  -2.026  1.00  0.00     0.023 C 
HETATM   29  C10 UNL     1     -20.286  16.425  -1.143  1.00  0.00     0.037 C 
HETATM   30  C11 UNL     1     -21.911  18.141  -1.678  1.00  0.00     0.037 C 
HETATM   31  C12 UNL     1     -19.510  18.655  -1.734  1.00  0.00     0.037 C 
ENDBRANCH  13  28
ENDBRANCH   1  10
BRANCH   7  32
HETATM   32  N5  UNL     1     -16.852  19.997  -7.146  1.00  0.00    -0.351 N 
HETATM   33  C20 UNL     1     -16.047  20.323  -6.072  1.00  0.00     0.253 C 
HETATM   34  O3  UNL     1     -16.123  19.532  -5.054  1.00  0.00    -0.270 OA
ATOM     35  H5  UNL     1     -16.820  20.589  -7.975  1.00  0.00     0.163 HD
BRANCH  33  36
HETATM   36  C21 UNL     1     -15.105  21.436  -5.899  1.00  0.00     0.140 C 
HETATM   37  C22 UNL     1     -14.274  21.281  -4.631  1.00  0.00     0.057 C 
BRANCH  36  38
HETATM   38  O4  UNL     1     -15.764  22.642  -5.867  1.00  0.00    -0.375 OA
HETATM   39  C23 UNL     1     -16.297  23.024  -4.670  1.00  0.00     0.203 C 
ENDBRANCH  36  38
BRANCH  36  40
HETATM   40  C24 UNL     1     -14.105  21.471  -7.069  1.00  0.00     0.029 C 
HETATM   41  C25 UNL     1     -13.307  22.735  -7.052  1.00  0.00     0.008 C 
HETATM   42  C26 UNL     1     -11.835  22.480  -7.299  1.00  0.00     0.000 C 
HETATM   43  C27 UNL     1     -11.608  21.516  -8.428  1.00  0.00     0.000 C 
HETATM   44  C28 UNL     1     -12.283  20.186  -8.199  1.00  0.00     0.000 C 
HETATM   45  C29 UNL     1     -13.247  20.223  -7.047  1.00  0.00     0.008 C 
ENDBRANCH  36  40
ENDBRANCH  33  36
ENDBRANCH   7  32
TORSDOF 10
ENDMDL
