MODEL 1
REMARK VINA RESULT: -8.983477083      0.000      0.000
REMARK  12 active torsions:
REMARK  status: ('A' for Active; 'I' for Inactive)
REMARK    1  A    between atoms: C2_2  and  N1_4 
REMARK    2  A    between atoms: N1_4  and  C3_6 
REMARK    3  A    between atoms: C3_6  and  C4_7 
REMARK    4  A    between atoms: C3_6  and  C8_11 
REMARK    5  A    between atoms: C4_7  and  C5_8 
REMARK       I    between atoms: C8_11  and  N2_13 
REMARK       I    between atoms: N3_17  and  C12_18 
REMARK    6  A    between atoms: C12_18  and  C13_20 
REMARK    7  A    between atoms: C13_20  and  N4_21 
REMARK    8  A    between atoms: C13_20  and  C21_32 
REMARK       I    between atoms: N4_21  and  C14_23 
REMARK    9  A    between atoms: C14_23  and  C15_25 
REMARK   10  A    between atoms: C15_25  and  N5_26 
REMARK   11  A    between atoms: C26_37  and  C27_38 
REMARK       I    between atoms: C27_38  and  N6_40 
REMARK   12  A    between atoms: N6_40  and  C28_42 
ROOT
HETATM    1  C8  UNL     1     -13.477  22.684  -5.490  1.00  0.00     0.243 C 
HETATM    2  O1  UNL     1     -12.361  22.229  -5.045  1.00  0.00    -0.271 OA
HETATM    3  N2  UNL     1     -13.883  22.201  -6.748  1.00  0.00    -0.333 N 
HETATM    4  C9  UNL     1     -15.098  22.580  -7.411  1.00  0.00     0.152 C 
HETATM    5  C10 UNL     1     -15.471  21.655  -8.525  1.00  0.00     0.101 C 
HETATM    6  C11 UNL     1     -14.856  22.210  -9.804  1.00  0.00     0.034 C 
HETATM    7  N3  UNL     1     -15.062  20.319  -8.219  1.00  0.00    -0.342 N 
HETATM    8  C12 UNL     1     -15.912  19.203  -8.064  1.00  0.00     0.243 C 
HETATM    9  O2  UNL     1     -15.341  18.088  -7.745  1.00  0.00    -0.271 OA
HETATM   10  C25 UNL     1     -13.618  20.106  -8.062  1.00  0.00     0.161 C 
HETATM   11  C26 UNL     1     -12.979  21.266  -7.394  1.00  0.00     0.197 C 
ENDROOT
BRANCH   8  12
HETATM   12  C13 UNL     1     -17.359  19.128  -8.212  1.00  0.00     0.184 C 
BRANCH  12  13
HETATM   13  N4  UNL     1     -17.922  18.453  -7.044  1.00  0.00    -0.343 N 
HETATM   14  C14 UNL     1     -18.958  18.964  -6.245  1.00  0.00     0.257 C 
HETATM   15  O3  UNL     1     -19.459  20.076  -6.513  1.00  0.00    -0.267 OA
ATOM     16  H4  UNL     1     -17.534  17.545  -6.790  1.00  0.00     0.163 HD
BRANCH  14  17
HETATM   17  C15 UNL     1     -19.488  18.219  -5.083  1.00  0.00     0.160 C 
BRANCH  17  18
HETATM   18  N5  UNL     1     -20.063  19.017  -4.081  1.00  0.00    -0.385 N 
HETATM   19  C16 UNL     1     -19.287  19.445  -2.989  1.00  0.00     0.122 C 
HETATM   20  C17 UNL     1     -19.242  18.316  -1.948  1.00  0.00     0.020 C 
HETATM   21  C18 UNL     1     -20.628  17.883  -1.588  1.00  0.00     0.003 C 
HETATM   22  C19 UNL     1     -21.523  17.673  -2.792  1.00  0.00     0.020 C 
HETATM   23  C20 UNL     1     -21.425  18.843  -3.752  1.00  0.00     0.122 C 
ENDBRANCH  17  18
ENDBRANCH  14  17
ENDBRANCH  12  13
BRANCH  12  24
HETATM   24  C21 UNL     1     -17.639  18.236  -9.439  1.00  0.00    -0.022 C 
HETATM   25  C22 UNL     1     -19.090  18.430  -9.856  1.00  0.00     0.017 C 
HETATM   26  C23 UNL     1     -16.811  18.664 -10.618  1.00  0.00     0.017 C 
HETATM   27  C24 UNL     1     -17.326  16.794  -9.169  1.00  0.00     0.017 C 
ENDBRANCH  12  24
ENDBRANCH   8  12
BRANCH  11  28
HETATM   28  C27 UNL     1     -11.976  22.001  -8.176  1.00  0.00     0.242 C 
HETATM   29  O4  UNL     1     -10.859  21.458  -8.379  1.00  0.00    -0.271 OA
HETATM   30  N6  UNL     1     -12.214  23.283  -8.702  1.00  0.00    -0.355 N 
ATOM     31  H6  UNL     1     -13.114  23.736  -8.539  1.00  0.00     0.162 HD
BRANCH  30  32
HETATM   32  C28 UNL     1     -11.199  23.969  -9.471  1.00  0.00     0.084 A 
HETATM   33  C29 UNL     1     -11.608  25.182 -10.247  1.00  0.00     0.027 A 
HETATM   34  C30 UNL     1     -11.298  23.871 -10.947  1.00  0.00     0.027 A 
ENDBRANCH  30  32
ENDBRANCH  11  28
BRANCH   1  35
HETATM   35  C3  UNL     1     -14.151  23.644  -4.601  1.00  0.00     0.175 C 
BRANCH  35  36
HETATM   36  N1  UNL     1     -14.710  22.951  -3.444  1.00  0.00    -0.371 N 
ATOM     37  H1  UNL     1     -14.154  22.213  -3.012  1.00  0.00     0.161 HD
BRANCH  36  38
HETATM   38  C2  UNL     1     -15.949  23.238  -2.900  1.00  0.00     0.070 C 
HETATM   39  C1  UNL     1     -16.037  24.072  -1.650  1.00  0.00     0.081 C 
HETATM   40  S1  UNL     1     -17.339  22.682  -3.537  1.00  0.00    -0.066 SA
ENDBRANCH  36  38
ENDBRANCH  35  36
BRANCH  35  41
HETATM   41  C4  UNL     1     -13.396  24.857  -4.235  1.00  0.00     0.038 C 
BRANCH  41  42
HETATM   42  C5  UNL     1     -12.333  24.747  -3.203  1.00  0.00    -0.020 C 
HETATM   43  C6  UNL     1     -11.012  25.276  -3.789  1.00  0.00     0.009 C 
HETATM   44  C7  UNL     1     -12.532  25.456  -1.921  1.00  0.00     0.009 C 
ENDBRANCH  41  42
ENDBRANCH  35  41
ENDBRANCH   1  35
TORSDOF 12
ENDMDL
MODEL 2
REMARK VINA RESULT: -8.831519974      1.240      1.881
REMARK  12 active torsions:
REMARK  status: ('A' for Active; 'I' for Inactive)
REMARK    1  A    between atoms: C2_2  and  N1_4 
REMARK    2  A    between atoms: N1_4  and  C3_6 
REMARK    3  A    between atoms: C3_6  and  C4_7 
REMARK    4  A    between atoms: C3_6  and  C8_11 
REMARK    5  A    between atoms: C4_7  and  C5_8 
REMARK       I    between atoms: C8_11  and  N2_13 
REMARK       I    between atoms: N3_17  and  C12_18 
REMARK    6  A    between atoms: C12_18  and  C13_20 
REMARK    7  A    between atoms: C13_20  and  N4_21 
REMARK    8  A    between atoms: C13_20  and  C21_32 
REMARK       I    between atoms: N4_21  and  C14_23 
REMARK    9  A    between atoms: C14_23  and  C15_25 
REMARK   10  A    between atoms: C15_25  and  N5_26 
REMARK   11  A    between atoms: C26_37  and  C27_38 
REMARK       I    between atoms: C27_38  and  N6_40 
REMARK   12  A    between atoms: N6_40  and  C28_42 
ROOT
HETATM    1  C8  UNL     1     -13.530  22.661  -5.458  1.00  0.00     0.243 C 
HETATM    2  O1  UNL     1     -12.396  22.242  -5.021  1.00  0.00    -0.271 OA
HETATM    3  N2  UNL     1     -13.934  22.154  -6.708  1.00  0.00    -0.333 N 
HETATM    4  C9  UNL     1     -15.166  22.491  -7.361  1.00  0.00     0.152 C 
HETATM    5  C10 UNL     1     -15.523  21.545  -8.464  1.00  0.00     0.101 C 
HETATM    6  C11 UNL     1     -14.937  22.107  -9.754  1.00  0.00     0.034 C 
HETATM    7  N3  UNL     1     -15.072  20.225  -8.150  1.00  0.00    -0.342 N 
HETATM    8  C12 UNL     1     -15.888  19.086  -7.976  1.00  0.00     0.243 C 
HETATM    9  O2  UNL     1     -15.281  17.991  -7.653  1.00  0.00    -0.271 OA
HETATM   10  C25 UNL     1     -13.621  20.056  -8.006  1.00  0.00     0.161 C 
HETATM   11  C26 UNL     1     -13.009  21.240  -7.355  1.00  0.00     0.197 C 
ENDROOT
BRANCH   8  12
HETATM   12  C13 UNL     1     -17.332  18.967  -8.109  1.00  0.00     0.184 C 
BRANCH  12  13
HETATM   13  N4  UNL     1     -17.833  18.070  -7.069  1.00  0.00    -0.343 N 
HETATM   14  C14 UNL     1     -18.917  18.352  -6.220  1.00  0.00     0.257 C 
HETATM   15  O3  UNL     1     -19.520  19.440  -6.323  1.00  0.00    -0.267 OA
ATOM     16  H4  UNL     1     -17.361  17.174  -6.950  1.00  0.00     0.163 HD
BRANCH  14  17
HETATM   17  C15 UNL     1     -19.377  17.390  -5.196  1.00  0.00     0.160 C 
BRANCH  17  18
HETATM   18  N5  UNL     1     -20.084  16.285  -5.698  1.00  0.00    -0.385 N 
HETATM   19  C16 UNL     1     -20.326  16.170  -7.078  1.00  0.00     0.122 C 
HETATM   20  C17 UNL     1     -21.560  17.013  -7.430  1.00  0.00     0.020 C 
HETATM   21  C18 UNL     1     -22.719  16.629  -6.567  1.00  0.00     0.003 C 
HETATM   22  C19 UNL     1     -22.363  16.512  -5.100  1.00  0.00     0.020 C 
HETATM   23  C20 UNL     1     -21.098  15.695  -4.912  1.00  0.00     0.122 C 
ENDBRANCH  17  18
ENDBRANCH  14  17
ENDBRANCH  12  13
BRANCH  12  24
HETATM   24  C21 UNL     1     -17.605  18.293  -9.469  1.00  0.00    -0.022 C 
HETATM   25  C22 UNL     1     -17.419  16.791  -9.310  1.00  0.00     0.017 C 
HETATM   26  C23 UNL     1     -19.033  18.489  -9.891  1.00  0.00     0.017 C 
HETATM   27  C24 UNL     1     -16.734  18.849 -10.556  1.00  0.00     0.017 C 
ENDBRANCH  12  24
ENDBRANCH   8  12
BRANCH  11  28
HETATM   28  C27 UNL     1     -12.036  21.997  -8.154  1.00  0.00     0.242 C 
HETATM   29  O4  UNL     1     -10.921  21.468  -8.399  1.00  0.00    -0.271 OA
HETATM   30  N6  UNL     1     -12.301  23.285  -8.651  1.00  0.00    -0.355 N 
ATOM     31  H6  UNL     1     -13.199  23.727  -8.454  1.00  0.00     0.162 HD
BRANCH  30  32
HETATM   32  C28 UNL     1     -11.315  23.993  -9.438  1.00  0.00     0.084 A 
HETATM   33  C29 UNL     1     -11.762  25.200 -10.202  1.00  0.00     0.027 A 
HETATM   34  C30 UNL     1     -11.442  23.897 -10.912  1.00  0.00     0.027 A 
ENDBRANCH  30  32
ENDBRANCH  11  28
BRANCH   1  35
HETATM   35  C3  UNL     1     -14.223  23.609  -4.571  1.00  0.00     0.175 C 
BRANCH  35  36
HETATM   36  N1  UNL     1     -14.765  22.907  -3.412  1.00  0.00    -0.371 N 
ATOM     37  H1  UNL     1     -14.209  22.157  -3.001  1.00  0.00     0.161 HD
BRANCH  36  38
HETATM   38  C2  UNL     1     -15.990  23.201  -2.838  1.00  0.00     0.070 C 
HETATM   39  C1  UNL     1     -16.046  24.077  -1.616  1.00  0.00     0.081 C 
HETATM   40  S1  UNL     1     -17.393  22.609  -3.410  1.00  0.00    -0.066 SA
ENDBRANCH  36  38
ENDBRANCH  35  36
BRANCH  35  41
HETATM   41  C4  UNL     1     -13.492  24.838  -4.209  1.00  0.00     0.038 C 
BRANCH  41  42
HETATM   42  C5  UNL     1     -12.381  24.741  -3.228  1.00  0.00    -0.020 C 
HETATM   43  C6  UNL     1     -11.100  25.307  -3.868  1.00  0.00     0.009 C 
HETATM   44  C7  UNL     1     -12.536  25.432  -1.931  1.00  0.00     0.009 C 
ENDBRANCH  41  42
ENDBRANCH  35  41
ENDBRANCH   1  35
TORSDOF 12
ENDMDL
MODEL 3
REMARK VINA RESULT: -8.766123353      1.245      2.035
REMARK  12 active torsions:
REMARK  status: ('A' for Active; 'I' for Inactive)
REMARK    1  A    between atoms: C2_2  and  N1_4 
REMARK    2  A    between atoms: N1_4  and  C3_6 
REMARK    3  A    between atoms: C3_6  and  C4_7 
REMARK    4  A    between atoms: C3_6  and  C8_11 
REMARK    5  A    between atoms: C4_7  and  C5_8 
REMARK       I    between atoms: C8_11  and  N2_13 
REMARK       I    between atoms: N3_17  and  C12_18 
REMARK    6  A    between atoms: C12_18  and  C13_20 
REMARK    7  A    between atoms: C13_20  and  N4_21 
REMARK    8  A    between atoms: C13_20  and  C21_32 
REMARK       I    between atoms: N4_21  and  C14_23 
REMARK    9  A    between atoms: C14_23  and  C15_25 
REMARK   10  A    between atoms: C15_25  and  N5_26 
REMARK   11  A    between atoms: C26_37  and  C27_38 
REMARK       I    between atoms: C27_38  and  N6_40 
REMARK   12  A    between atoms: N6_40  and  C28_42 
ROOT
HETATM    1  C8  UNL     1     -13.508  22.656  -5.449  1.00  0.00     0.243 C 
HETATM    2  O1  UNL     1     -12.395  22.194  -5.001  1.00  0.00    -0.271 OA
HETATM    3  N2  UNL     1     -13.907  22.183  -6.714  1.00  0.00    -0.333 N 
HETATM    4  C9  UNL     1     -15.116  22.570  -7.380  1.00  0.00     0.152 C 
HETATM    5  C10 UNL     1     -15.484  21.655  -8.505  1.00  0.00     0.101 C 
HETATM    6  C11 UNL     1     -14.860  22.220  -9.775  1.00  0.00     0.034 C 
HETATM    7  N3  UNL     1     -15.079  20.316  -8.208  1.00  0.00    -0.342 N 
HETATM    8  C12 UNL     1     -15.933  19.200  -8.067  1.00  0.00     0.243 C 
HETATM    9  O2  UNL     1     -15.365  18.082  -7.755  1.00  0.00    -0.271 OA
HETATM   10  C25 UNL     1     -13.637  20.099  -8.044  1.00  0.00     0.161 C 
HETATM   11  C26 UNL     1     -13.000  21.253  -7.362  1.00  0.00     0.197 C 
ENDROOT
BRANCH   8  12
HETATM   12  C13 UNL     1     -17.378  19.129  -8.225  1.00  0.00     0.184 C 
BRANCH  12  13
HETATM   13  N4  UNL     1     -17.951  18.460  -7.059  1.00  0.00    -0.343 N 
HETATM   14  C14 UNL     1     -18.977  18.987  -6.256  1.00  0.00     0.257 C 
HETATM   15  O3  UNL     1     -19.459  20.108  -6.520  1.00  0.00    -0.267 OA
ATOM     16  H4  UNL     1     -17.579  17.544  -6.809  1.00  0.00     0.163 HD
BRANCH  14  17
HETATM   17  C15 UNL     1     -19.518  18.247  -5.096  1.00  0.00     0.160 C 
BRANCH  17  18
HETATM   18  N5  UNL     1     -20.093  19.050  -4.098  1.00  0.00    -0.385 N 
HETATM   19  C16 UNL     1     -19.313  19.498  -3.017  1.00  0.00     0.122 C 
HETATM   20  C17 UNL     1     -19.248  18.382  -1.964  1.00  0.00     0.020 C 
HETATM   21  C18 UNL     1     -20.626  17.939  -1.588  1.00  0.00     0.003 C 
HETATM   22  C19 UNL     1     -21.529  17.707  -2.782  1.00  0.00     0.020 C 
HETATM   23  C20 UNL     1     -21.451  18.867  -3.756  1.00  0.00     0.122 C 
ENDBRANCH  17  18
ENDBRANCH  14  17
ENDBRANCH  12  13
BRANCH  12  24
HETATM   24  C21 UNL     1     -17.653  18.233  -9.451  1.00  0.00    -0.022 C 
HETATM   25  C22 UNL     1     -19.100  18.431  -9.879  1.00  0.00     0.017 C 
HETATM   26  C23 UNL     1     -16.815  18.654 -10.625  1.00  0.00     0.017 C 
HETATM   27  C24 UNL     1     -17.346  16.792  -9.173  1.00  0.00     0.017 C 
ENDBRANCH  12  24
ENDBRANCH   8  12
BRANCH  11  28
HETATM   28  C27 UNL     1     -11.991  21.992  -8.132  1.00  0.00     0.242 C 
HETATM   29  O4  UNL     1     -10.869  21.454  -8.322  1.00  0.00    -0.271 OA
HETATM   30  N6  UNL     1     -12.228  23.274  -8.659  1.00  0.00    -0.355 N 
ATOM     31  H6  UNL     1     -13.131  23.723  -8.506  1.00  0.00     0.162 HD
BRANCH  30  32
HETATM   32  C28 UNL     1     -11.207  23.965  -9.415  1.00  0.00     0.084 A 
HETATM   33  C29 UNL     1     -11.575  25.260 -10.070  1.00  0.00     0.027 A 
HETATM   34  C30 UNL     1     -11.373  23.997 -10.888  1.00  0.00     0.027 A 
ENDBRANCH  30  32
ENDBRANCH  11  28
BRANCH   1  35
HETATM   35  C3  UNL     1     -14.186  23.609  -4.556  1.00  0.00     0.175 C 
BRANCH  35  36
HETATM   36  N1  UNL     1     -13.540  24.916  -4.634  1.00  0.00    -0.371 N 
ATOM     37  H1  UNL     1     -13.859  25.567  -5.351  1.00  0.00     0.161 HD
BRANCH  36  38
HETATM   38  C2  UNL     1     -12.520  25.322  -3.790  1.00  0.00     0.070 C 
HETATM   39  C1  UNL     1     -12.711  25.238  -2.300  1.00  0.00     0.081 C 
HETATM   40  S1  UNL     1     -11.113  25.926  -4.340  1.00  0.00    -0.066 SA
ENDBRANCH  36  38
ENDBRANCH  35  36
BRANCH  35  41
HETATM   41  C4  UNL     1     -15.655  23.687  -4.657  1.00  0.00     0.038 C 
BRANCH  41  42
HETATM   42  C5  UNL     1     -16.470  23.273  -3.486  1.00  0.00    -0.020 C 
HETATM   43  C6  UNL     1     -16.409  21.741  -3.353  1.00  0.00     0.009 C 
HETATM   44  C7  UNL     1     -16.110  23.819  -2.160  1.00  0.00     0.009 C 
ENDBRANCH  41  42
ENDBRANCH  35  41
ENDBRANCH   1  35
TORSDOF 12
ENDMDL
MODEL 4
REMARK VINA RESULT: -8.640492100      1.759      2.835
REMARK  12 active torsions:
REMARK  status: ('A' for Active; 'I' for Inactive)
REMARK    1  A    between atoms: C2_2  and  N1_4 
REMARK    2  A    between atoms: N1_4  and  C3_6 
REMARK    3  A    between atoms: C3_6  and  C4_7 
REMARK    4  A    between atoms: C3_6  and  C8_11 
REMARK    5  A    between atoms: C4_7  and  C5_8 
REMARK       I    between atoms: C8_11  and  N2_13 
REMARK       I    between atoms: N3_17  and  C12_18 
REMARK    6  A    between atoms: C12_18  and  C13_20 
REMARK    7  A    between atoms: C13_20  and  N4_21 
REMARK    8  A    between atoms: C13_20  and  C21_32 
REMARK       I    between atoms: N4_21  and  C14_23 
REMARK    9  A    between atoms: C14_23  and  C15_25 
REMARK   10  A    between atoms: C15_25  and  N5_26 
REMARK   11  A    between atoms: C26_37  and  C27_38 
REMARK       I    between atoms: C27_38  and  N6_40 
REMARK   12  A    between atoms: N6_40  and  C28_42 
ROOT
HETATM    1  C8  UNL     1     -13.606  22.534  -5.348  1.00  0.00     0.243 C 
HETATM    2  O1  UNL     1     -12.475  22.105  -4.914  1.00  0.00    -0.271 OA
HETATM    3  N2  UNL     1     -13.998  22.064  -6.616  1.00  0.00    -0.333 N 
HETATM    4  C9  UNL     1     -15.224  22.419  -7.270  1.00  0.00     0.152 C 
HETATM    5  C10 UNL     1     -15.569  21.506  -8.404  1.00  0.00     0.101 C 
HETATM    6  C11 UNL     1     -14.973  22.107  -9.671  1.00  0.00     0.034 C 
HETATM    7  N3  UNL     1     -15.117  20.178  -8.126  1.00  0.00    -0.342 N 
HETATM    8  C12 UNL     1     -15.931  19.032  -7.995  1.00  0.00     0.243 C 
HETATM    9  O2  UNL     1     -15.324  17.929  -7.700  1.00  0.00    -0.271 OA
HETATM   10  C25 UNL     1     -13.667  20.008  -7.975  1.00  0.00     0.161 C 
HETATM   11  C26 UNL     1     -13.064  21.173  -7.282  1.00  0.00     0.197 C 
ENDROOT
BRANCH   8  12
HETATM   12  C13 UNL     1     -17.374  18.914  -8.144  1.00  0.00     0.184 C 
BRANCH  12  13
HETATM   13  N4  UNL     1     -17.889  18.027  -7.102  1.00  0.00    -0.343 N 
HETATM   14  C14 UNL     1     -18.964  18.331  -6.250  1.00  0.00     0.257 C 
HETATM   15  O3  UNL     1     -19.547  19.430  -6.352  1.00  0.00    -0.267 OA
ATOM     16  H4  UNL     1     -17.434  17.122  -6.984  1.00  0.00     0.163 HD
BRANCH  14  17
HETATM   17  C15 UNL     1     -19.440  17.378  -5.224  1.00  0.00     0.160 C 
BRANCH  17  18
HETATM   18  N5  UNL     1     -20.142  16.270  -5.725  1.00  0.00    -0.385 N 
HETATM   19  C16 UNL     1     -20.362  16.141  -7.107  1.00  0.00     0.122 C 
HETATM   20  C17 UNL     1     -21.589  16.983  -7.488  1.00  0.00     0.020 C 
HETATM   21  C18 UNL     1     -22.762  16.610  -6.640  1.00  0.00     0.003 C 
HETATM   22  C19 UNL     1     -22.429  16.508  -5.165  1.00  0.00     0.020 C 
HETATM   23  C20 UNL     1     -21.169  15.691  -4.949  1.00  0.00     0.122 C 
ENDBRANCH  17  18
ENDBRANCH  14  17
ENDBRANCH  12  13
BRANCH  12  24
HETATM   24  C21 UNL     1     -17.631  18.227  -9.501  1.00  0.00    -0.022 C 
HETATM   25  C22 UNL     1     -17.462  16.724  -9.322  1.00  0.00     0.017 C 
HETATM   26  C23 UNL     1     -19.050  18.431  -9.949  1.00  0.00     0.017 C 
HETATM   27  C24 UNL     1     -16.737  18.762 -10.580  1.00  0.00     0.017 C 
ENDBRANCH  12  24
ENDBRANCH   8  12
BRANCH  11  28
HETATM   28  C27 UNL     1     -12.086  21.956  -8.049  1.00  0.00     0.242 C 
HETATM   29  O4  UNL     1     -10.981  21.424  -8.331  1.00  0.00    -0.271 OA
HETATM   30  N6  UNL     1     -12.334  23.273  -8.475  1.00  0.00    -0.355 N 
ATOM     31  H6  UNL     1     -13.224  23.717  -8.247  1.00  0.00     0.162 HD
BRANCH  30  32
HETATM   32  C28 UNL     1     -11.344  24.006  -9.233  1.00  0.00     0.084 A 
HETATM   33  C29 UNL     1     -11.797  25.210  -9.998  1.00  0.00     0.027 A 
HETATM   34  C30 UNL     1     -11.434  23.919 -10.710  1.00  0.00     0.027 A 
ENDBRANCH  30  32
ENDBRANCH  11  28
BRANCH   1  35
HETATM   35  C3  UNL     1     -14.309  23.453  -4.439  1.00  0.00     0.175 C 
BRANCH  35  36
HETATM   36  N1  UNL     1     -13.813  24.814  -4.618  1.00  0.00    -0.371 N 
ATOM     37  H1  UNL     1     -14.301  25.421  -5.277  1.00  0.00     0.161 HD
BRANCH  36  38
HETATM   38  C2  UNL     1     -12.718  25.329  -3.945  1.00  0.00     0.070 C 
HETATM   39  C1  UNL     1     -12.706  25.332  -2.440  1.00  0.00     0.081 C 
HETATM   40  S1  UNL     1     -11.436  25.971  -4.713  1.00  0.00    -0.066 SA
ENDBRANCH  36  38
ENDBRANCH  35  36
BRANCH  35  41
HETATM   41  C4  UNL     1     -15.782  23.376  -4.422  1.00  0.00     0.038 C 
BRANCH  41  42
HETATM   42  C5  UNL     1     -16.451  22.840  -3.209  1.00  0.00    -0.020 C 
HETATM   43  C6  UNL     1     -16.173  23.785  -2.027  1.00  0.00     0.009 C 
HETATM   44  C7  UNL     1     -17.916  22.648  -3.250  1.00  0.00     0.009 C 
ENDBRANCH  41  42
ENDBRANCH  35  41
ENDBRANCH   1  35
TORSDOF 12
ENDMDL
MODEL 5
REMARK VINA RESULT: -8.308873668      2.292      9.520
REMARK  12 active torsions:
REMARK  status: ('A' for Active; 'I' for Inactive)
REMARK    1  A    between atoms: C2_2  and  N1_4 
REMARK    2  A    between atoms: N1_4  and  C3_6 
REMARK    3  A    between atoms: C3_6  and  C4_7 
REMARK    4  A    between atoms: C3_6  and  C8_11 
REMARK    5  A    between atoms: C4_7  and  C5_8 
REMARK       I    between atoms: C8_11  and  N2_13 
REMARK       I    between atoms: N3_17  and  C12_18 
REMARK    6  A    between atoms: C12_18  and  C13_20 
REMARK    7  A    between atoms: C13_20  and  N4_21 
REMARK    8  A    between atoms: C13_20  and  C21_32 
REMARK       I    between atoms: N4_21  and  C14_23 
REMARK    9  A    between atoms: C14_23  and  C15_25 
REMARK   10  A    between atoms: C15_25  and  N5_26 
REMARK   11  A    between atoms: C26_37  and  C27_38 
REMARK       I    between atoms: C27_38  and  N6_40 
REMARK   12  A    between atoms: N6_40  and  C28_42 
ROOT
HETATM    1  C8  UNL     1     -18.059  18.486  -6.829  1.00  0.00     0.243 C 
HETATM    2  O1  UNL     1     -17.663  17.295  -6.551  1.00  0.00    -0.271 OA
HETATM    3  N2  UNL     1     -17.977  19.423  -5.781  1.00  0.00    -0.333 N 
HETATM    4  C9  UNL     1     -18.362  20.800  -5.892  1.00  0.00     0.152 C 
HETATM    5  C10 UNL     1     -17.826  21.649  -4.782  1.00  0.00     0.101 C 
HETATM    6  C11 UNL     1     -18.876  21.671  -3.678  1.00  0.00     0.034 C 
HETATM    7  N3  UNL     1     -16.549  21.164  -4.359  1.00  0.00    -0.342 N 
HETATM    8  C12 UNL     1     -15.328  21.868  -4.426  1.00  0.00     0.243 C 
HETATM    9  O2  UNL     1     -14.277  21.230  -4.027  1.00  0.00    -0.271 OA
HETATM   10  C25 UNL     1     -16.528  19.809  -3.797  1.00  0.00     0.161 C 
HETATM   11  C26 UNL     1     -17.476  18.921  -4.514  1.00  0.00     0.197 C 
ENDROOT
BRANCH   8  12
HETATM   12  C13 UNL     1     -15.079  23.227  -4.887  1.00  0.00     0.184 C 
BRANCH  12  13
HETATM   13  N4  UNL     1     -13.836  23.247  -5.658  1.00  0.00    -0.343 N 
HETATM   14  C14 UNL     1     -13.692  22.739  -6.960  1.00  0.00     0.257 C 
HETATM   15  O3  UNL     1     -14.669  22.217  -7.535  1.00  0.00    -0.267 OA
ATOM     16  H4  UNL     1     -13.014  23.660  -5.218  1.00  0.00     0.163 HD
BRANCH  14  17
HETATM   17  C15 UNL     1     -12.405  22.805  -7.685  1.00  0.00     0.160 C 
BRANCH  17  18
HETATM   18  N5  UNL     1     -12.497  22.610  -9.072  1.00  0.00    -0.385 N 
HETATM   19  C16 UNL     1     -11.329  22.484  -9.845  1.00  0.00     0.122 C 
HETATM   20  C17 UNL     1     -10.799  23.891 -10.163  1.00  0.00     0.020 C 
HETATM   21  C18 UNL     1     -11.870  24.722 -10.794  1.00  0.00     0.003 C 
HETATM   22  C19 UNL     1     -13.200  24.635 -10.074  1.00  0.00     0.020 C 
HETATM   23  C20 UNL     1     -13.567  23.192  -9.786  1.00  0.00     0.122 C 
ENDBRANCH  17  18
ENDBRANCH  14  17
ENDBRANCH  12  13
BRANCH  12  24
HETATM   24  C21 UNL     1     -14.857  24.094  -3.632  1.00  0.00    -0.022 C 
HETATM   25  C22 UNL     1     -15.035  25.556  -4.017  1.00  0.00     0.017 C 
HETATM   26  C23 UNL     1     -15.902  23.813  -2.590  1.00  0.00     0.017 C 
HETATM   27  C24 UNL     1     -13.518  23.843  -3.005  1.00  0.00     0.017 C 
ENDBRANCH  12  24
ENDBRANCH   8  12
BRANCH  11  28
HETATM   28  C27 UNL     1     -18.582  18.369  -3.722  1.00  0.00     0.242 C 
HETATM   29  O4  UNL     1     -18.419  18.223  -2.483  1.00  0.00    -0.271 OA
HETATM   30  N6  UNL     1     -19.812  17.996  -4.293  1.00  0.00    -0.355 N 
ATOM     31  H6  UNL     1     -19.955  18.105  -5.297  1.00  0.00     0.162 HD
BRANCH  30  32
HETATM   32  C28 UNL     1     -20.878  17.461  -3.474  1.00  0.00     0.084 A 
HETATM   33  C29 UNL     1     -22.288  17.796  -3.851  1.00  0.00     0.027 A 
HETATM   34  C30 UNL     1     -21.629  18.428  -2.639  1.00  0.00     0.027 A 
ENDBRANCH  30  32
ENDBRANCH  11  28
BRANCH   1  35
HETATM   35  C3  UNL     1     -18.538  18.672  -8.208  1.00  0.00     0.175 C 
BRANCH  35  36
HETATM   36  N1  UNL     1     -17.636  18.011  -9.146  1.00  0.00    -0.371 N 
ATOM     37  H1  UNL     1     -17.470  17.011  -9.029  1.00  0.00     0.161 HD
BRANCH  36  38
HETATM   38  C2  UNL     1     -16.994  18.661 -10.185  1.00  0.00     0.070 C 
HETATM   39  C1  UNL     1     -17.257  18.235 -11.604  1.00  0.00     0.081 C 
HETATM   40  S1  UNL     1     -15.925  19.864  -9.942  1.00  0.00    -0.066 SA
ENDBRANCH  36  38
ENDBRANCH  35  36
BRANCH  35  41
HETATM   41  C4  UNL     1     -19.958  18.371  -8.466  1.00  0.00     0.038 C 
BRANCH  41  42
HETATM   42  C5  UNL     1     -20.516  17.091  -7.961  1.00  0.00    -0.020 C 
HETATM   43  C6  UNL     1     -21.974  17.320  -7.522  1.00  0.00     0.009 C 
HETATM   44  C7  UNL     1     -20.537  15.931  -8.878  1.00  0.00     0.009 C 
ENDBRANCH  41  42
ENDBRANCH  35  41
ENDBRANCH   1  35
TORSDOF 12
ENDMDL
