MODEL 1
REMARK VINA RESULT: -3.895934255      0.000      0.000
REMARK  6 active torsions:
REMARK  status: ('A' for Active; 'I' for Inactive)
REMARK    1  A    between atoms: C2_2  and  C3_3 
REMARK    2  A    between atoms: C3_3  and  N1_4 
REMARK    3  A    between atoms: N1_4  and  S1_6 
REMARK    4  A    between atoms: S1_6  and  N2_9 
REMARK    5  A    between atoms: N2_9  and  C4_11 
REMARK    6  A    between atoms: N3_12  and  N4_14 
ROOT
HETATM    1  S1  UNL     1     -24.557 -18.875 -17.863  1.00  0.00     0.320 S 
HETATM    2  O1  UNL     1     -23.380 -19.614 -17.258  1.00  0.00    -0.182 OA
HETATM    3  O2  UNL     1     -25.400 -18.247 -16.794  1.00  0.00    -0.182 OA
ENDROOT
BRANCH   1   4
HETATM    4  N1  UNL     1     -23.876 -17.671 -18.902  1.00  0.00    -0.299 N 
ATOM      5  H1  UNL     1     -23.536 -16.762 -18.589  1.00  0.00     0.174 HD
BRANCH   4   6
HETATM    6  C3  UNL     1     -23.852 -18.135 -20.297  1.00  0.00     0.160 C 
BRANCH   6   7
HETATM    7  C2  UNL     1     -22.863 -17.276 -20.999  1.00  0.00    -0.017 C 
HETATM    8  C1  UNL     1     -23.115 -16.904 -22.234  1.00  0.00     0.008 C 
ENDBRANCH   6   7
ENDBRANCH   4   6
ENDBRANCH   1   4
BRANCH   1   9
HETATM    9  N2  UNL     1     -25.468 -20.011 -18.767  1.00  0.00    -0.263 N 
ATOM     10  H2  UNL     1     -25.587 -19.884 -19.773  1.00  0.00     0.181 HD
BRANCH   9  11
HETATM   11  C4  UNL     1     -26.062 -21.137 -18.111  1.00  0.00     0.208 C 
HETATM   12  N3  UNL     1     -27.225 -21.008 -17.597  1.00  0.00    -0.302 N 
ATOM     13  H3  UNL     1     -27.657 -21.805 -17.128  1.00  0.00     0.187 HD
BRANCH  12  14
HETATM   14  N4  UNL     1     -27.904 -19.816 -17.665  1.00  0.00    -0.344 N 
ATOM     15  H42 UNL     1     -28.140 -19.443 -18.584  1.00  0.00     0.176 HD
ATOM     16  H41 UNL     1     -28.167 -19.310 -16.819  1.00  0.00     0.176 HD
ENDBRANCH  12  14
ENDBRANCH   9  11
ENDBRANCH   1   9
TORSDOF 6
ENDMDL
MODEL 2
REMARK VINA RESULT: -3.825201541      2.557      2.839
REMARK  6 active torsions:
REMARK  status: ('A' for Active; 'I' for Inactive)
REMARK    1  A    between atoms: C2_2  and  C3_3 
REMARK    2  A    between atoms: C3_3  and  N1_4 
REMARK    3  A    between atoms: N1_4  and  S1_6 
REMARK    4  A    between atoms: S1_6  and  N2_9 
REMARK    5  A    between atoms: N2_9  and  C4_11 
REMARK    6  A    between atoms: N3_12  and  N4_14 
ROOT
HETATM    1  S1  UNL     1     -24.564 -19.008 -17.921  1.00  0.00     0.320 S 
HETATM    2  O1  UNL     1     -25.390 -18.240 -16.907  1.00  0.00    -0.182 OA
HETATM    3  O2  UNL     1     -25.435 -19.894 -18.758  1.00  0.00    -0.182 OA
ENDROOT
BRANCH   1   4
HETATM    4  N1  UNL     1     -23.778 -17.812 -18.894  1.00  0.00    -0.299 N 
ATOM      5  H1  UNL     1     -23.326 -16.974 -18.528  1.00  0.00     0.174 HD
BRANCH   4   6
HETATM    6  C3  UNL     1     -23.850 -18.165 -20.319  1.00  0.00     0.160 C 
BRANCH   6   7
HETATM    7  C2  UNL     1     -22.863 -17.294 -21.009  1.00  0.00    -0.017 C 
HETATM    8  C1  UNL     1     -23.120 -16.898 -22.236  1.00  0.00     0.008 C 
ENDBRANCH   6   7
ENDBRANCH   4   6
ENDBRANCH   1   4
BRANCH   1   9
HETATM    9  N2  UNL     1     -23.413 -19.933 -17.052  1.00  0.00    -0.263 N 
ATOM     10  H2  UNL     1     -23.262 -20.913 -17.290  1.00  0.00     0.181 HD
BRANCH   9  11
HETATM   11  C4  UNL     1     -22.663 -19.330 -15.991  1.00  0.00     0.208 C 
HETATM   12  N3  UNL     1     -23.143 -19.349 -14.807  1.00  0.00    -0.302 N 
ATOM     13  H3  UNL     1     -22.616 -18.922 -14.045  1.00  0.00     0.187 HD
BRANCH  12  14
HETATM   14  N4  UNL     1     -24.358 -19.935 -14.544  1.00  0.00    -0.344 N 
ATOM     15  H42 UNL     1     -24.769 -20.540 -15.254  1.00  0.00     0.176 HD
ATOM     16  H41 UNL     1     -24.841 -19.772 -13.660  1.00  0.00     0.176 HD
ENDBRANCH  12  14
ENDBRANCH   9  11
ENDBRANCH   1   9
TORSDOF 6
ENDMDL
MODEL 3
REMARK VINA RESULT: -3.810241971      2.204      2.407
REMARK  6 active torsions:
REMARK  status: ('A' for Active; 'I' for Inactive)
REMARK    1  A    between atoms: C2_2  and  C3_3 
REMARK    2  A    between atoms: C3_3  and  N1_4 
REMARK    3  A    between atoms: N1_4  and  S1_6 
REMARK    4  A    between atoms: S1_6  and  N2_9 
REMARK    5  A    between atoms: N2_9  and  C4_11 
REMARK    6  A    between atoms: N3_12  and  N4_14 
ROOT
HETATM    1  S1  UNL     1     -24.364 -18.950 -17.593  1.00  0.00     0.320 S 
HETATM    2  O1  UNL     1     -25.085 -20.149 -18.177  1.00  0.00    -0.182 OA
HETATM    3  O2  UNL     1     -22.965 -19.310 -17.195  1.00  0.00    -0.182 OA
ENDROOT
BRANCH   1   4
HETATM    4  N1  UNL     1     -24.366 -17.746 -18.835  1.00  0.00    -0.299 N 
ATOM      5  H1  UNL     1     -25.096 -17.046 -18.961  1.00  0.00     0.174 HD
BRANCH   4   6
HETATM    6  C3  UNL     1     -23.173 -17.868 -19.686  1.00  0.00     0.160 C 
BRANCH   6   7
HETATM    7  C2  UNL     1     -23.659 -17.814 -21.088  1.00  0.00    -0.017 C 
HETATM    8  C1  UNL     1     -23.064 -17.000 -21.932  1.00  0.00     0.008 C 
ENDBRANCH   6   7
ENDBRANCH   4   6
ENDBRANCH   1   4
BRANCH   1   9
HETATM    9  N2  UNL     1     -25.265 -18.420 -16.235  1.00  0.00    -0.263 N 
ATOM     10  H2  UNL     1     -24.944 -17.619 -15.691  1.00  0.00     0.181 HD
BRANCH   9  11
HETATM   11  C4  UNL     1     -26.469 -19.101 -15.864  1.00  0.00     0.208 C 
HETATM   12  N3  UNL     1     -27.130 -18.680 -14.855  1.00  0.00    -0.302 N 
ATOM     13  H3  UNL     1     -27.990 -19.159 -14.583  1.00  0.00     0.187 HD
BRANCH  12  14
HETATM   14  N4  UNL     1     -26.703 -17.595 -14.129  1.00  0.00    -0.344 N 
ATOM     15  H42 UNL     1     -26.404 -16.761 -14.633  1.00  0.00     0.176 HD
ATOM     16  H41 UNL     1     -26.684 -17.617 -13.109  1.00  0.00     0.176 HD
ENDBRANCH  12  14
ENDBRANCH   9  11
ENDBRANCH   1   9
TORSDOF 6
ENDMDL
MODEL 4
REMARK VINA RESULT: -3.805043181      1.817      2.006
REMARK  6 active torsions:
REMARK  status: ('A' for Active; 'I' for Inactive)
REMARK    1  A    between atoms: C2_2  and  C3_3 
REMARK    2  A    between atoms: C3_3  and  N1_4 
REMARK    3  A    between atoms: N1_4  and  S1_6 
REMARK    4  A    between atoms: S1_6  and  N2_9 
REMARK    5  A    between atoms: N2_9  and  C4_11 
REMARK    6  A    between atoms: N3_12  and  N4_14 
ROOT
HETATM    1  S1  UNL     1     -24.439 -19.076 -17.533  1.00  0.00     0.320 S 
HETATM    2  O1  UNL     1     -25.088 -20.419 -17.808  1.00  0.00    -0.182 OA
HETATM    3  O2  UNL     1     -22.986 -19.244 -17.204  1.00  0.00    -0.182 OA
ENDROOT
BRANCH   1   4
HETATM    4  N1  UNL     1     -24.645 -18.147 -18.977  1.00  0.00    -0.299 N 
ATOM      5  H1  UNL     1     -25.532 -17.751 -19.289  1.00  0.00     0.174 HD
BRANCH   4   6
HETATM    6  C3  UNL     1     -23.370 -18.005 -19.696  1.00  0.00     0.160 C 
BRANCH   6   7
HETATM    7  C2  UNL     1     -23.720 -17.890 -21.136  1.00  0.00    -0.017 C 
HETATM    8  C1  UNL     1     -23.056 -17.034 -21.880  1.00  0.00     0.008 C 
ENDBRANCH   6   7
ENDBRANCH   4   6
ENDBRANCH   1   4
BRANCH   1   9
HETATM    9  N2  UNL     1     -25.280 -18.357 -16.225  1.00  0.00    -0.263 N 
ATOM     10  H2  UNL     1     -25.378 -17.343 -16.178  1.00  0.00     0.181 HD
BRANCH   9  11
HETATM   11  C4  UNL     1     -25.844 -19.180 -15.197  1.00  0.00     0.208 C 
HETATM   12  N3  UNL     1     -27.042 -19.602 -15.334  1.00  0.00    -0.302 N 
ATOM     13  H3  UNL     1     -27.453 -20.190 -14.607  1.00  0.00     0.187 HD
BRANCH  12  14
HETATM   14  N4  UNL     1     -27.787 -19.279 -16.442  1.00  0.00    -0.344 N 
ATOM     15  H42 UNL     1     -28.132 -18.324 -16.533  1.00  0.00     0.176 HD
ATOM     16  H41 UNL     1     -27.992 -19.974 -17.160  1.00  0.00     0.176 HD
ENDBRANCH  12  14
ENDBRANCH   9  11
ENDBRANCH   1   9
TORSDOF 6
ENDMDL
MODEL 5
REMARK VINA RESULT: -3.793522452      1.337      1.674
REMARK  6 active torsions:
REMARK  status: ('A' for Active; 'I' for Inactive)
REMARK    1  A    between atoms: C2_2  and  C3_3 
REMARK    2  A    between atoms: C3_3  and  N1_4 
REMARK    3  A    between atoms: N1_4  and  S1_6 
REMARK    4  A    between atoms: S1_6  and  N2_9 
REMARK    5  A    between atoms: N2_9  and  C4_11 
REMARK    6  A    between atoms: N3_12  and  N4_14 
ROOT
HETATM    1  S1  UNL     1     -25.197 -19.404 -17.472  1.00  0.00     0.320 S 
HETATM    2  O1  UNL     1     -23.972 -20.187 -17.040  1.00  0.00    -0.182 OA
HETATM    3  O2  UNL     1     -25.278 -18.097 -16.744  1.00  0.00    -0.182 OA
ENDROOT
BRANCH   1   4
HETATM    4  N1  UNL     1     -25.024 -19.157 -19.175  1.00  0.00    -0.299 N 
ATOM      5  H1  UNL     1     -25.638 -19.558 -19.884  1.00  0.00     0.174 HD
BRANCH   4   6
HETATM    6  C3  UNL     1     -23.872 -18.291 -19.465  1.00  0.00     0.160 C 
BRANCH   6   7
HETATM    7  C2  UNL     1     -23.877 -18.077 -20.935  1.00  0.00    -0.017 C 
HETATM    8  C1  UNL     1     -23.034 -17.209 -21.450  1.00  0.00     0.008 C 
ENDBRANCH   6   7
ENDBRANCH   4   6
ENDBRANCH   1   4
BRANCH   1   9
HETATM    9  N2  UNL     1     -26.571 -20.373 -17.137  1.00  0.00    -0.263 N 
ATOM     10  H2  UNL     1     -26.451 -21.323 -16.786  1.00  0.00     0.181 HD
BRANCH   9  11
HETATM   11  C4  UNL     1     -27.886 -19.848 -17.350  1.00  0.00     0.208 C 
HETATM   12  N3  UNL     1     -28.440 -19.175 -16.415  1.00  0.00    -0.302 N 
ATOM     13  H3  UNL     1     -29.377 -18.796 -16.558  1.00  0.00     0.187 HD
BRANCH  12  14
HETATM   14  N4  UNL     1     -27.796 -18.953 -15.222  1.00  0.00    -0.344 N 
ATOM     15  H42 UNL     1     -26.983 -19.526 -14.996  1.00  0.00     0.176 HD
ATOM     16  H41 UNL     1     -28.118 -18.233 -14.575  1.00  0.00     0.176 HD
ENDBRANCH  12  14
ENDBRANCH   9  11
ENDBRANCH   1   9
TORSDOF 6
ENDMDL
