MODEL 1
REMARK VINA RESULT: -3.855937329      0.000      0.000
REMARK  5 active torsions:
REMARK  status: ('A' for Active; 'I' for Inactive)
REMARK    1  A    between atoms: N2_4  and  C1_6 
REMARK    2  A    between atoms: C1_6  and  C2_7 
REMARK    3  A    between atoms: C4_12  and  C5_13 
REMARK    4  A    between atoms: C5_13  and  N4_14 
REMARK    5  A    between atoms: N4_14  and  C6_16 
ROOT
HETATM    1  C2  UNL     1     -22.324 -17.037 -19.473  1.00  0.00     0.121 C 
HETATM    2  C3  UNL     1     -22.481 -17.050 -20.931  1.00  0.00     0.226 C 
HETATM    3  O1  UNL     1     -21.808 -16.805 -21.933  1.00  0.00    -0.273 OA
HETATM    4  N3  UNL     1     -23.808 -17.488 -20.731  1.00  0.00    -0.354 N 
ATOM      5  H3  UNL     1     -24.705 -17.373 -21.202  1.00  0.00     0.163 HD
HETATM    6  C4  UNL     1     -23.316 -18.176 -19.556  1.00  0.00     0.116 C 
ENDROOT
BRANCH   1   7
HETATM    7  C1  UNL     1     -21.014 -17.521 -18.930  1.00  0.00     0.155 C 
BRANCH   7   8
HETATM    8  N2  UNL     1     -21.098 -17.968 -17.579  1.00  0.00    -0.342 N 
HETATM    9  N1  UNL     1     -20.374 -18.813 -17.059  1.00  0.00    -0.349 N 
ATOM     10  H12 UNL     1     -19.657 -19.220 -17.659  1.00  0.00     0.176 HD
ATOM     11  H11 UNL     1     -20.434 -19.134 -16.092  1.00  0.00     0.176 HD
ATOM     12  H2  UNL     1     -21.821 -17.550 -16.994  1.00  0.00     0.179 HD
ENDBRANCH   7   8
ENDBRANCH   1   7
BRANCH   6  13
HETATM   13  C5  UNL     1     -24.266 -18.297 -18.413  1.00  0.00     0.148 C 
BRANCH  13  14
HETATM   14  N4  UNL     1     -24.445 -19.624 -17.949  1.00  0.00    -0.366 N 
ATOM     15  H4  UNL     1     -24.896 -20.313 -18.551  1.00  0.00     0.161 HD
BRANCH  14  16
HETATM   16  C6  UNL     1     -24.004 -20.003 -16.660  1.00  0.00     0.348 C 
HETATM   17  O2  UNL     1     -23.222 -19.253 -16.036  1.00  0.00    -0.284 OA
ENDBRANCH  14  16
ENDBRANCH  13  14
ENDBRANCH   6  13
TORSDOF 5
ENDMDL
MODEL 2
REMARK VINA RESULT: -3.731582281      2.194      4.709
REMARK  5 active torsions:
REMARK  status: ('A' for Active; 'I' for Inactive)
REMARK    1  A    between atoms: N2_4  and  C1_6 
REMARK    2  A    between atoms: C1_6  and  C2_7 
REMARK    3  A    between atoms: C4_12  and  C5_13 
REMARK    4  A    between atoms: C5_13  and  N4_14 
REMARK    5  A    between atoms: N4_14  and  C6_16 
ROOT
HETATM    1  C2  UNL     1     -24.364 -19.472 -17.586  1.00  0.00     0.121 C 
HETATM    2  C3  UNL     1     -25.602 -19.626 -18.357  1.00  0.00     0.226 C 
HETATM    3  O1  UNL     1     -26.744 -20.053 -18.189  1.00  0.00    -0.273 OA
HETATM    4  N3  UNL     1     -24.927 -19.052 -19.456  1.00  0.00    -0.354 N 
ATOM      5  H3  UNL     1     -24.950 -19.146 -20.471  1.00  0.00     0.163 HD
HETATM    6  C4  UNL     1     -24.188 -18.270 -18.488  1.00  0.00     0.116 C 
ENDROOT
BRANCH   1   7
HETATM    7  C1  UNL     1     -24.505 -19.041 -16.158  1.00  0.00     0.155 C 
BRANCH   7   8
HETATM    8  N2  UNL     1     -25.699 -18.301 -15.911  1.00  0.00    -0.342 N 
HETATM    9  N1  UNL     1     -26.646 -18.680 -15.228  1.00  0.00    -0.349 N 
ATOM     10  H12 UNL     1     -26.556 -19.606 -14.809  1.00  0.00     0.176 HD
ATOM     11  H11 UNL     1     -27.501 -18.151 -15.051  1.00  0.00     0.176 HD
ATOM     12  H2  UNL     1     -25.772 -17.378 -16.338  1.00  0.00     0.179 HD
ENDBRANCH   7   8
ENDBRANCH   1   7
BRANCH   6  13
HETATM   13  C5  UNL     1     -22.783 -17.924 -18.848  1.00  0.00     0.148 C 
BRANCH  13  14
HETATM   14  N4  UNL     1     -22.665 -16.792 -19.691  1.00  0.00    -0.366 N 
ATOM     15  H4  UNL     1     -22.713 -15.855 -19.290  1.00  0.00     0.161 HD
BRANCH  14  16
HETATM   16  C6  UNL     1     -22.482 -16.946 -21.085  1.00  0.00     0.348 C 
HETATM   17  O2  UNL     1     -23.409 -17.426 -21.774  1.00  0.00    -0.284 OA
ENDBRANCH  14  16
ENDBRANCH  13  14
ENDBRANCH   6  13
TORSDOF 5
ENDMDL
MODEL 3
REMARK VINA RESULT: -3.671376854     10.773     12.279
REMARK  5 active torsions:
REMARK  status: ('A' for Active; 'I' for Inactive)
REMARK    1  A    between atoms: N2_4  and  C1_6 
REMARK    2  A    between atoms: C1_6  and  C2_7 
REMARK    3  A    between atoms: C4_12  and  C5_13 
REMARK    4  A    between atoms: C5_13  and  N4_14 
REMARK    5  A    between atoms: N4_14  and  C6_16 
ROOT
HETATM    1  C2  UNL     1     -29.798 -11.486 -25.783  1.00  0.00     0.121 C 
HETATM    2  C3  UNL     1     -28.853 -12.332 -25.047  1.00  0.00     0.226 C 
HETATM    3  O1  UNL     1     -28.110 -12.247 -24.069  1.00  0.00    -0.273 OA
HETATM    4  N3  UNL     1     -29.146 -13.365 -25.962  1.00  0.00    -0.354 N 
ATOM      5  H3  UNL     1     -28.643 -14.146 -26.383  1.00  0.00     0.163 HD
HETATM    6  C4  UNL     1     -30.482 -12.812 -26.032  1.00  0.00     0.116 C 
ENDROOT
BRANCH   1   7
HETATM    7  C1  UNL     1     -30.678 -10.587 -24.968  1.00  0.00     0.155 C 
BRANCH   7   8
HETATM    8  N2  UNL     1     -31.096 -11.175 -23.738  1.00  0.00    -0.342 N 
HETATM    9  N1  UNL     1     -31.624 -10.579 -22.803  1.00  0.00    -0.349 N 
ATOM     10  H12 UNL     1     -31.769  -9.578 -22.934  1.00  0.00     0.176 HD
ATOM     11  H11 UNL     1     -31.923 -11.000 -21.923  1.00  0.00     0.176 HD
ATOM     12  H2  UNL     1     -30.943 -12.177 -23.626  1.00  0.00     0.179 HD
ENDBRANCH   7   8
ENDBRANCH   1   7
BRANCH   6  13
HETATM   13  C5  UNL     1     -31.187 -12.946 -27.339  1.00  0.00     0.148 C 
BRANCH  13  14
HETATM   14  N4  UNL     1     -32.471 -13.540 -27.244  1.00  0.00    -0.366 N 
ATOM     15  H4  UNL     1     -33.189 -13.303 -27.929  1.00  0.00     0.161 HD
BRANCH  14  16
HETATM   16  C6  UNL     1     -32.766 -14.457 -26.210  1.00  0.00     0.348 C 
HETATM   17  O2  UNL     1     -32.697 -15.684 -26.442  1.00  0.00    -0.284 OA
ENDBRANCH  14  16
ENDBRANCH  13  14
ENDBRANCH   6  13
TORSDOF 5
ENDMDL
MODEL 4
REMARK VINA RESULT: -3.604619587      2.430      4.132
REMARK  5 active torsions:
REMARK  status: ('A' for Active; 'I' for Inactive)
REMARK    1  A    between atoms: N2_4  and  C1_6 
REMARK    2  A    between atoms: C1_6  and  C2_7 
REMARK    3  A    between atoms: C4_12  and  C5_13 
REMARK    4  A    between atoms: C5_13  and  N4_14 
REMARK    5  A    between atoms: N4_14  and  C6_16 
ROOT
HETATM    1  C2  UNL     1     -22.679 -17.358 -18.834  1.00  0.00     0.121 C 
HETATM    2  C3  UNL     1     -23.829 -18.256 -18.693  1.00  0.00     0.226 C 
HETATM    3  O1  UNL     1     -24.891 -18.492 -19.271  1.00  0.00    -0.273 OA
HETATM    4  N3  UNL     1     -23.204 -18.793 -17.547  1.00  0.00    -0.354 N 
ATOM      5  H3  UNL     1     -23.503 -19.189 -16.657  1.00  0.00     0.163 HD
HETATM    6  C4  UNL     1     -21.945 -18.525 -18.211  1.00  0.00     0.116 C 
ENDROOT
BRANCH   1   7
HETATM    7  C1  UNL     1     -22.182 -17.108 -20.225  1.00  0.00     0.155 C 
BRANCH   7   8
HETATM    8  N2  UNL     1     -23.206 -17.204 -21.212  1.00  0.00    -0.342 N 
HETATM    9  N1  UNL     1     -23.298 -16.505 -22.218  1.00  0.00    -0.349 N 
ATOM     10  H12 UNL     1     -22.571 -15.800 -22.343  1.00  0.00     0.176 HD
ATOM     11  H11 UNL     1     -24.031 -16.573 -22.924  1.00  0.00     0.176 HD
ATOM     12  H2  UNL     1     -23.925 -17.913 -21.071  1.00  0.00     0.179 HD
ENDBRANCH   7   8
ENDBRANCH   1   7
BRANCH   6  13
HETATM   13  C5  UNL     1     -20.793 -18.176 -17.331  1.00  0.00     0.148 C 
BRANCH  13  14
HETATM   14  N4  UNL     1     -19.875 -19.238 -17.133  1.00  0.00    -0.366 N 
ATOM     15  H4  UNL     1     -20.066 -19.945 -16.423  1.00  0.00     0.161 HD
BRANCH  14  16
HETATM   16  C6  UNL     1     -18.697 -19.327 -17.910  1.00  0.00     0.348 C 
HETATM   17  O2  UNL     1     -17.585 -19.325 -17.338  1.00  0.00    -0.284 OA
ENDBRANCH  14  16
ENDBRANCH  13  14
ENDBRANCH   6  13
TORSDOF 5
ENDMDL
MODEL 5
REMARK VINA RESULT: -3.573736044      4.813      5.990
REMARK  5 active torsions:
REMARK  status: ('A' for Active; 'I' for Inactive)
REMARK    1  A    between atoms: N2_4  and  C1_6 
REMARK    2  A    between atoms: C1_6  and  C2_7 
REMARK    3  A    between atoms: C4_12  and  C5_13 
REMARK    4  A    between atoms: C5_13  and  N4_14 
REMARK    5  A    between atoms: N4_14  and  C6_16 
ROOT
HETATM    1  C2  UNL     1     -18.914 -20.303 -16.701  1.00  0.00     0.121 C 
HETATM    2  C3  UNL     1     -20.027 -19.639 -16.015  1.00  0.00     0.226 C 
HETATM    3  O1  UNL     1     -20.498 -18.507 -15.904  1.00  0.00    -0.273 OA
HETATM    4  N3  UNL     1     -20.384 -20.899 -15.487  1.00  0.00    -0.354 N 
ATOM      5  H3  UNL     1     -20.804 -21.250 -14.627  1.00  0.00     0.163 HD
HETATM    6  C4  UNL     1     -19.881 -21.466 -16.721  1.00  0.00     0.116 C 
ENDROOT
BRANCH   1   7
HETATM    7  C1  UNL     1     -18.611 -19.847 -18.096  1.00  0.00     0.155 C 
BRANCH   7   8
HETATM    8  N2  UNL     1     -17.707 -20.708 -18.784  1.00  0.00    -0.342 N 
HETATM    9  N1  UNL     1     -16.608 -21.068 -18.371  1.00  0.00    -0.349 N 
ATOM     10  H12 UNL     1     -16.333 -20.710 -17.456  1.00  0.00     0.176 HD
ATOM     11  H11 UNL     1     -15.960 -21.684 -18.863  1.00  0.00     0.176 HD
ATOM     12  H2  UNL     1     -17.998 -21.056 -19.697  1.00  0.00     0.179 HD
ENDBRANCH   7   8
ENDBRANCH   1   7
BRANCH   6  13
HETATM   13  C5  UNL     1     -19.270 -22.823 -16.627  1.00  0.00     0.148 C 
BRANCH  13  14
HETATM   14  N4  UNL     1     -19.822 -23.768 -17.527  1.00  0.00    -0.366 N 
ATOM     15  H4  UNL     1     -20.714 -24.213 -17.308  1.00  0.00     0.161 HD
BRANCH  14  16
HETATM   16  C6  UNL     1     -19.150 -24.101 -18.725  1.00  0.00     0.348 C 
HETATM   17  O2  UNL     1     -17.963 -23.739 -18.881  1.00  0.00    -0.284 OA
ENDBRANCH  14  16
ENDBRANCH  13  14
ENDBRANCH   6  13
TORSDOF 5
ENDMDL
