MODEL 1
REMARK VINA RESULT: -4.566578174      0.000      0.000
REMARK  5 active torsions:
REMARK  status: ('A' for Active; 'I' for Inactive)
REMARK    1  A    between atoms: C1_4  and  C2_5 
REMARK    2  A    between atoms: N3_10  and  C5_11 
REMARK    3  A    between atoms: C5_11  and  C6_12 
REMARK    4  A    between atoms: C6_12  and  N4_13 
REMARK    5  A    between atoms: N4_13  and  C7_15 
ROOT
HETATM    1  C2  UNL     1     -23.049 -17.571 -20.234  1.00  0.00     0.122 A 
HETATM    2  N2  UNL     1     -24.275 -18.132 -20.240  1.00  0.00    -0.350 N 
ATOM      3  H2  UNL     1     -24.946 -18.131 -21.009  1.00  0.00     0.166 HD
HETATM    4  C3  UNL     1     -24.431 -18.687 -19.039  1.00  0.00     0.107 A 
HETATM    5  C4  UNL     1     -23.299 -18.461 -18.303  1.00  0.00     0.109 A 
HETATM    6  N3  UNL     1     -22.445 -17.764 -19.062  1.00  0.00    -0.339 N 
ENDROOT
BRANCH   6   7
HETATM    7  C5  UNL     1     -21.144 -17.343 -18.609  1.00  0.00     0.149 C 
BRANCH   7   8
HETATM    8  C6  UNL     1     -20.507 -18.275 -17.649  1.00  0.00     0.142 C 
BRANCH   8   9
HETATM    9  N4  UNL     1     -19.288 -18.811 -18.205  1.00  0.00    -0.367 N 
ATOM     10  H4  UNL     1     -18.990 -18.464 -19.117  1.00  0.00     0.161 HD
BRANCH   9  11
HETATM   11  C7  UNL     1     -18.478 -19.780 -17.578  1.00  0.00     0.348 C 
HETATM   12  O1  UNL     1     -17.383 -19.453 -17.083  1.00  0.00    -0.284 OA
ENDBRANCH   9  11
ENDBRANCH   8   9
ENDBRANCH   7   8
ENDBRANCH   6   7
BRANCH   1  13
HETATM   13  C1  UNL     1     -22.499 -16.859 -21.377  1.00  0.00     0.129 C 
HETATM   14  N1  UNL     1     -23.207 -16.289 -22.282  1.00  0.00    -0.405 N 
ATOM     15  H12 UNL     1     -24.219 -16.348 -22.178  1.00  0.00     0.155 HD
ATOM     16  H11 UNL     1     -22.821 -15.790 -23.084  1.00  0.00     0.155 HD
ENDBRANCH   1  13
TORSDOF 5
ENDMDL
MODEL 2
REMARK VINA RESULT: -4.169501786      0.979      2.346
REMARK  5 active torsions:
REMARK  status: ('A' for Active; 'I' for Inactive)
REMARK    1  A    between atoms: C1_4  and  C2_5 
REMARK    2  A    between atoms: N3_10  and  C5_11 
REMARK    3  A    between atoms: C5_11  and  C6_12 
REMARK    4  A    between atoms: C6_12  and  N4_13 
REMARK    5  A    between atoms: N4_13  and  C7_15 
ROOT
HETATM    1  C2  UNL     1     -23.560 -18.091 -19.610  1.00  0.00     0.122 A 
HETATM    2  N2  UNL     1     -24.110 -17.993 -20.837  1.00  0.00    -0.350 N 
ATOM      3  H2  UNL     1     -25.004 -18.380 -21.142  1.00  0.00     0.166 HD
HETATM    4  C3  UNL     1     -23.249 -17.288 -21.571  1.00  0.00     0.107 A 
HETATM    5  C4  UNL     1     -22.176 -16.959 -20.788  1.00  0.00     0.109 A 
HETATM    6  N3  UNL     1     -22.383 -17.467 -19.567  1.00  0.00    -0.339 N 
ENDROOT
BRANCH   6   7
HETATM    7  C5  UNL     1     -21.452 -17.318 -18.478  1.00  0.00     0.149 C 
BRANCH   7   8
HETATM    8  C6  UNL     1     -20.095 -17.839 -18.766  1.00  0.00     0.142 C 
BRANCH   8   9
HETATM    9  N4  UNL     1     -19.685 -18.763 -17.736  1.00  0.00    -0.367 N 
ATOM     10  H4  UNL     1     -20.251 -18.810 -16.888  1.00  0.00     0.161 HD
BRANCH   9  11
HETATM   11  C7  UNL     1     -18.557 -19.605 -17.817  1.00  0.00     0.348 C 
HETATM   12  O1  UNL     1     -17.506 -19.300 -17.224  1.00  0.00    -0.284 OA
ENDBRANCH   9  11
ENDBRANCH   8   9
ENDBRANCH   7   8
ENDBRANCH   6   7
BRANCH   1  13
HETATM   13  C1  UNL     1     -24.201 -18.795 -18.511  1.00  0.00     0.129 C 
HETATM   14  N1  UNL     1     -25.308 -19.433 -18.608  1.00  0.00    -0.405 N 
ATOM     15  H12 UNL     1     -25.755 -19.439 -19.525  1.00  0.00     0.155 HD
ATOM     16  H11 UNL     1     -25.758 -19.927 -17.837  1.00  0.00     0.155 HD
ENDBRANCH   1  13
TORSDOF 5
ENDMDL
MODEL 3
REMARK VINA RESULT: -3.967635796      2.761      5.186
REMARK  5 active torsions:
REMARK  status: ('A' for Active; 'I' for Inactive)
REMARK    1  A    between atoms: C1_4  and  C2_5 
REMARK    2  A    between atoms: N3_10  and  C5_11 
REMARK    3  A    between atoms: C5_11  and  C6_12 
REMARK    4  A    between atoms: C6_12  and  N4_13 
REMARK    5  A    between atoms: N4_13  and  C7_15 
ROOT
HETATM    1  C2  UNL     1     -19.474 -19.290 -17.498  1.00  0.00     0.122 A 
HETATM    2  N2  UNL     1     -19.479 -20.036 -16.375  1.00  0.00    -0.350 N 
ATOM      3  H2  UNL     1     -18.780 -20.723 -16.092  1.00  0.00     0.166 HD
HETATM    4  C3  UNL     1     -20.582 -19.692 -15.710  1.00  0.00     0.107 A 
HETATM    5  C4  UNL     1     -21.247 -18.738 -16.432  1.00  0.00     0.109 A 
HETATM    6  N3  UNL     1     -20.545 -18.497 -17.545  1.00  0.00    -0.339 N 
ENDROOT
BRANCH   6   7
HETATM    7  C5  UNL     1     -20.950 -17.545 -18.547  1.00  0.00     0.149 C 
BRANCH   7   8
HETATM    8  C6  UNL     1     -22.352 -17.703 -19.001  1.00  0.00     0.142 C 
BRANCH   8   9
HETATM    9  N4  UNL     1     -22.678 -16.693 -19.980  1.00  0.00    -0.367 N 
ATOM     10  H4  UNL     1     -23.184 -15.867 -19.659  1.00  0.00     0.161 HD
BRANCH   9  11
HETATM   11  C7  UNL     1     -22.348 -16.767 -21.349  1.00  0.00     0.348 C 
HETATM   12  O1  UNL     1     -23.193 -17.161 -22.174  1.00  0.00    -0.284 OA
ENDBRANCH   9  11
ENDBRANCH   8   9
ENDBRANCH   7   8
ENDBRANCH   6   7
BRANCH   1  13
HETATM   13  C1  UNL     1     -18.422 -19.373 -18.498  1.00  0.00     0.129 C 
HETATM   14  N1  UNL     1     -17.862 -20.465 -18.868  1.00  0.00    -0.405 N 
ATOM     15  H12 UNL     1     -18.188 -21.322 -18.423  1.00  0.00     0.155 HD
ATOM     16  H11 UNL     1     -17.123 -20.524 -19.569  1.00  0.00     0.155 HD
ENDBRANCH   1  13
TORSDOF 5
ENDMDL
MODEL 4
REMARK VINA RESULT: -3.863120660      3.598      5.299
REMARK  5 active torsions:
REMARK  status: ('A' for Active; 'I' for Inactive)
REMARK    1  A    between atoms: C1_4  and  C2_5 
REMARK    2  A    between atoms: N3_10  and  C5_11 
REMARK    3  A    between atoms: C5_11  and  C6_12 
REMARK    4  A    between atoms: C6_12  and  N4_13 
REMARK    5  A    between atoms: N4_13  and  C7_15 
ROOT
HETATM    1  C2  UNL     1     -22.305 -17.432 -19.617  1.00  0.00     0.122 A 
HETATM    2  N2  UNL     1     -22.190 -16.993 -20.887  1.00  0.00    -0.350 N 
ATOM      3  H2  UNL     1     -21.421 -16.451 -21.282  1.00  0.00     0.166 HD
HETATM    4  C3  UNL     1     -23.286 -17.410 -21.521  1.00  0.00     0.107 A 
HETATM    5  C4  UNL     1     -24.066 -18.103 -20.634  1.00  0.00     0.109 A 
HETATM    6  N3  UNL     1     -23.442 -18.108 -19.451  1.00  0.00    -0.339 N 
ENDROOT
BRANCH   6   7
HETATM    7  C5  UNL     1     -23.977 -18.747 -18.276  1.00  0.00     0.149 C 
BRANCH   7   8
HETATM    8  C6  UNL     1     -25.237 -19.490 -18.512  1.00  0.00     0.142 C 
BRANCH   8   9
HETATM    9  N4  UNL     1     -25.996 -19.589 -17.288  1.00  0.00    -0.367 N 
ATOM     10  H4  UNL     1     -25.481 -19.562 -16.407  1.00  0.00     0.161 HD
BRANCH   9  11
HETATM   11  C7  UNL     1     -27.398 -19.720 -17.222  1.00  0.00     0.348 C 
HETATM   12  O1  UNL     1     -28.111 -19.271 -18.138  1.00  0.00    -0.284 OA
ENDBRANCH   9  11
ENDBRANCH   8   9
ENDBRANCH   7   8
ENDBRANCH   6   7
BRANCH   1  13
HETATM   13  C1  UNL     1     -21.299 -17.178 -18.599  1.00  0.00     0.129 C 
HETATM   14  N1  UNL     1     -20.379 -18.006 -18.269  1.00  0.00    -0.405 N 
ATOM     15  H12 UNL     1     -20.365 -18.898 -18.764  1.00  0.00     0.155 HD
ATOM     16  H11 UNL     1     -19.673 -17.828 -17.554  1.00  0.00     0.155 HD
ENDBRANCH   1  13
TORSDOF 5
ENDMDL
MODEL 5
REMARK VINA RESULT: -3.802632224      3.521      5.064
REMARK  5 active torsions:
REMARK  status: ('A' for Active; 'I' for Inactive)
REMARK    1  A    between atoms: C1_4  and  C2_5 
REMARK    2  A    between atoms: N3_10  and  C5_11 
REMARK    3  A    between atoms: C5_11  and  C6_12 
REMARK    4  A    between atoms: C6_12  and  N4_13 
REMARK    5  A    between atoms: N4_13  and  C7_15 
ROOT
HETATM    1  C2  UNL     1     -22.672 -17.484 -20.402  1.00  0.00     0.122 A 
HETATM    2  N2  UNL     1     -21.470 -17.110 -19.920  1.00  0.00    -0.350 N 
ATOM      3  H2  UNL     1     -20.736 -16.610 -20.422  1.00  0.00     0.166 HD
HETATM    4  C3  UNL     1     -21.435 -17.526 -18.654  1.00  0.00     0.107 A 
HETATM    5  C4  UNL     1     -22.618 -18.154 -18.369  1.00  0.00     0.109 A 
HETATM    6  N3  UNL     1     -23.380 -18.120 -19.468  1.00  0.00    -0.339 N 
ENDROOT
BRANCH   6   7
HETATM    7  C5  UNL     1     -24.700 -18.693 -19.536  1.00  0.00     0.149 C 
BRANCH   7   8
HETATM    8  C6  UNL     1     -25.160 -19.303 -18.267  1.00  0.00     0.142 C 
BRANCH   8   9
HETATM    9  N4  UNL     1     -26.120 -20.348 -18.532  1.00  0.00    -0.367 N 
ATOM     10  H4  UNL     1     -25.786 -21.190 -19.003  1.00  0.00     0.161 HD
BRANCH   9  11
HETATM   11  C7  UNL     1     -27.486 -20.290 -18.188  1.00  0.00     0.348 C 
HETATM   12  O1  UNL     1     -28.101 -19.209 -18.257  1.00  0.00    -0.284 OA
ENDBRANCH   9  11
ENDBRANCH   8   9
ENDBRANCH   7   8
ENDBRANCH   6   7
BRANCH   1  13
HETATM   13  C1  UNL     1     -23.098 -17.209 -21.765  1.00  0.00     0.129 C 
HETATM   14  N1  UNL     1     -23.329 -16.037 -22.227  1.00  0.00    -0.405 N 
ATOM     15  H12 UNL     1     -23.202 -15.256 -21.584  1.00  0.00     0.155 HD
ATOM     16  H11 UNL     1     -23.628 -15.844 -23.184  1.00  0.00     0.155 HD
ENDBRANCH   1  13
TORSDOF 5
ENDMDL
