MODEL 1
REMARK VINA RESULT: -4.341172786      0.000      0.000
REMARK  6 active torsions:
REMARK  status: ('A' for Active; 'I' for Inactive)
REMARK    1  A    between atoms: C2_2  and  C3_3 
REMARK    2  A    between atoms: C3_3  and  N1_4 
REMARK    3  A    between atoms: C6_7  and  C7_8 
REMARK    4  A    between atoms: C7_8  and  N2_9 
REMARK    5  A    between atoms: C8_11  and  N3_12 
REMARK    6  A    between atoms: N3_12  and  N4_14 
ROOT
HETATM    1  N2  UNL     1     -20.125 -19.096 -17.224  1.00  0.00    -0.383 N 
ATOM      2  H2  UNL     1     -19.826 -19.686 -16.448  1.00  0.00     0.160 HD
HETATM    3  C8  UNL     1     -19.285 -18.824 -18.163  1.00  0.00     0.194 C 
ENDROOT
BRANCH   1   4
HETATM    4  C7  UNL     1     -21.483 -18.588 -17.238  1.00  0.00     0.155 C 
BRANCH   4   5
HETATM    5  C6  UNL     1     -21.824 -17.952 -18.568  1.00  0.00     0.234 A 
HETATM    6  N1  UNL     1     -23.188 -17.887 -18.992  1.00  0.00    -0.058 N 
HETATM    7  C4  UNL     1     -24.211 -18.391 -18.094  1.00  0.00     0.273 C 
HETATM    8  C5  UNL     1     -22.505 -16.667 -18.670  1.00  0.00     0.272 A 
BRANCH   6   9
HETATM    9  C3  UNL     1     -23.498 -18.073 -20.404  1.00  0.00     0.264 C 
BRANCH   9  10
HETATM   10  C2  UNL     1     -22.732 -17.138 -21.260  1.00  0.00    -0.009 C 
HETATM   11  C1  UNL     1     -23.132 -16.755 -22.463  1.00  0.00     0.008 C 
ENDBRANCH   9  10
ENDBRANCH   6   9
ENDBRANCH   4   5
ENDBRANCH   1   4
BRANCH   3  12
HETATM   12  N3  UNL     1     -17.975 -19.337 -18.113  1.00  0.00    -0.283 N 
ATOM     13  H3  UNL     1     -17.259 -18.832 -17.591  1.00  0.00     0.189 HD
BRANCH  12  14
HETATM   14  N4  UNL     1     -17.640 -20.524 -18.765  1.00  0.00    -0.248 N 
HETATM   15  N5  UNL     1     -16.617 -21.184 -18.432  1.00  0.00    -0.331 N 
ATOM     16  H52 UNL     1     -16.036 -20.829 -17.672  1.00  0.00     0.178 HD
ATOM     17  H51 UNL     1     -16.372 -22.051 -18.909  1.00  0.00     0.178 HD
ATOM     18  H4  UNL     1     -18.232 -20.863 -19.523  1.00  0.00     0.207 HD
ENDBRANCH  12  14
ENDBRANCH   3  12
TORSDOF 6
ENDMDL
MODEL 2
REMARK VINA RESULT: -4.081479648      3.793      5.509
REMARK  6 active torsions:
REMARK  status: ('A' for Active; 'I' for Inactive)
REMARK    1  A    between atoms: C2_2  and  C3_3 
REMARK    2  A    between atoms: C3_3  and  N1_4 
REMARK    3  A    between atoms: C6_7  and  C7_8 
REMARK    4  A    between atoms: C7_8  and  N2_9 
REMARK    5  A    between atoms: C8_11  and  N3_12 
REMARK    6  A    between atoms: N3_12  and  N4_14 
ROOT
HETATM    1  N2  UNL     1     -24.724 -18.505 -19.363  1.00  0.00    -0.383 N 
ATOM      2  H2  UNL     1     -25.249 -18.217 -20.188  1.00  0.00     0.160 HD
HETATM    3  C8  UNL     1     -23.500 -18.120 -19.236  1.00  0.00     0.194 C 
ENDROOT
BRANCH   1   4
HETATM    4  C7  UNL     1     -25.374 -19.333 -18.367  1.00  0.00     0.155 C 
BRANCH   4   5
HETATM    5  C6  UNL     1     -24.378 -19.909 -17.386  1.00  0.00     0.234 A 
HETATM    6  N1  UNL     1     -24.384 -19.462 -16.028  1.00  0.00    -0.058 N 
HETATM    7  C4  UNL     1     -25.394 -18.501 -15.625  1.00  0.00     0.273 C 
HETATM    8  C5  UNL     1     -24.770 -20.815 -16.313  1.00  0.00     0.272 A 
BRANCH   6   9
HETATM    9  C3  UNL     1     -23.113 -19.313 -15.329  1.00  0.00     0.264 C 
BRANCH   9  10
HETATM   10  C2  UNL     1     -21.965 -19.651 -16.201  1.00  0.00    -0.009 C 
HETATM   11  C1  UNL     1     -20.956 -18.825 -16.434  1.00  0.00     0.008 C 
ENDBRANCH   9  10
ENDBRANCH   6   9
ENDBRANCH   4   5
ENDBRANCH   1   4
BRANCH   3  12
HETATM   12  N3  UNL     1     -22.903 -17.315 -20.225  1.00  0.00    -0.283 N 
ATOM     13  H3  UNL     1     -22.053 -16.797 -20.003  1.00  0.00     0.189 HD
BRANCH  12  14
HETATM   14  N4  UNL     1     -23.455 -17.215 -21.502  1.00  0.00    -0.248 N 
HETATM   15  N5  UNL     1     -23.162 -16.253 -22.265  1.00  0.00    -0.331 N 
ATOM     16  H52 UNL     1     -22.509 -15.545 -21.927  1.00  0.00     0.178 HD
ATOM     17  H51 UNL     1     -23.565 -16.179 -23.199  1.00  0.00     0.178 HD
ATOM     18  H4  UNL     1     -24.107 -17.930 -21.824  1.00  0.00     0.207 HD
ENDBRANCH  12  14
ENDBRANCH   3  12
TORSDOF 6
ENDMDL
MODEL 3
REMARK VINA RESULT: -3.992315017      3.854      5.642
REMARK  6 active torsions:
REMARK  status: ('A' for Active; 'I' for Inactive)
REMARK    1  A    between atoms: C2_2  and  C3_3 
REMARK    2  A    between atoms: C3_3  and  N1_4 
REMARK    3  A    between atoms: C6_7  and  C7_8 
REMARK    4  A    between atoms: C7_8  and  N2_9 
REMARK    5  A    between atoms: C8_11  and  N3_12 
REMARK    6  A    between atoms: N3_12  and  N4_14 
ROOT
HETATM    1  N2  UNL     1     -24.267 -17.991 -18.735  1.00  0.00    -0.383 N 
ATOM      2  H2  UNL     1     -23.984 -17.011 -18.706  1.00  0.00     0.160 HD
HETATM    3  C8  UNL     1     -24.292 -18.600 -19.870  1.00  0.00     0.194 C 
ENDROOT
BRANCH   1   4
HETATM    4  C7  UNL     1     -24.628 -18.655 -17.499  1.00  0.00     0.155 C 
BRANCH   4   5
HETATM    5  C6  UNL     1     -23.457 -19.411 -16.911  1.00  0.00     0.234 A 
HETATM    6  N1  UNL     1     -23.292 -19.468 -15.492  1.00  0.00    -0.058 N 
HETATM    7  C4  UNL     1     -24.297 -18.836 -14.658  1.00  0.00     0.273 C 
HETATM    8  C5  UNL     1     -23.617 -20.674 -16.199  1.00  0.00     0.272 A 
BRANCH   6   9
HETATM    9  C3  UNL     1     -21.945 -19.417 -14.936  1.00  0.00     0.264 C 
BRANCH   9  10
HETATM   10  C2  UNL     1     -20.926 -19.196 -15.987  1.00  0.00    -0.009 C 
HETATM   11  C1  UNL     1     -19.901 -20.009 -16.192  1.00  0.00     0.008 C 
ENDBRANCH   9  10
ENDBRANCH   6   9
ENDBRANCH   4   5
ENDBRANCH   1   4
BRANCH   3  12
HETATM   12  N3  UNL     1     -23.933 -17.920 -21.049  1.00  0.00    -0.283 N 
ATOM     13  H3  UNL     1     -24.464 -18.084 -21.904  1.00  0.00     0.189 HD
BRANCH  12  14
HETATM   14  N4  UNL     1     -22.863 -17.024 -21.067  1.00  0.00    -0.248 N 
HETATM   15  N5  UNL     1     -22.827 -16.069 -21.892  1.00  0.00    -0.331 N 
ATOM     16  H52 UNL     1     -23.600 -15.965 -22.550  1.00  0.00     0.178 HD
ATOM     17  H51 UNL     1     -22.045 -15.415 -21.906  1.00  0.00     0.178 HD
ATOM     18  H4  UNL     1     -22.098 -17.143 -20.403  1.00  0.00     0.207 HD
ENDBRANCH  12  14
ENDBRANCH   3  12
TORSDOF 6
ENDMDL
MODEL 4
REMARK VINA RESULT: -3.981106873      4.006      5.674
REMARK  6 active torsions:
REMARK  status: ('A' for Active; 'I' for Inactive)
REMARK    1  A    between atoms: C2_2  and  C3_3 
REMARK    2  A    between atoms: C3_3  and  N1_4 
REMARK    3  A    between atoms: C6_7  and  C7_8 
REMARK    4  A    between atoms: C7_8  and  N2_9 
REMARK    5  A    between atoms: C8_11  and  N3_12 
REMARK    6  A    between atoms: N3_12  and  N4_14 
ROOT
HETATM    1  N2  UNL     1     -23.577 -18.442 -18.639  1.00  0.00    -0.383 N 
ATOM      2  H2  UNL     1     -22.705 -17.926 -18.761  1.00  0.00     0.160 HD
HETATM    3  C8  UNL     1     -24.364 -18.585 -19.650  1.00  0.00     0.194 C 
ENDROOT
BRANCH   1   4
HETATM    4  C7  UNL     1     -23.893 -18.991 -17.336  1.00  0.00     0.155 C 
BRANCH   4   5
HETATM    5  C6  UNL     1     -25.381 -19.206 -17.169  1.00  0.00     0.234 A 
HETATM    6  N1  UNL     1     -25.859 -20.405 -16.557  1.00  0.00    -0.058 N 
HETATM    7  C4  UNL     1     -24.884 -21.360 -16.062  1.00  0.00     0.273 C 
HETATM    8  C5  UNL     1     -26.038 -19.158 -15.869  1.00  0.00     0.272 A 
BRANCH   6   9
HETATM    9  C3  UNL     1     -27.082 -21.018 -17.063  1.00  0.00     0.264 C 
BRANCH   9  10
HETATM   10  C2  UNL     1     -27.123 -21.016 -18.543  1.00  0.00    -0.009 C 
HETATM   11  C1  UNL     1     -26.746 -22.046 -19.285  1.00  0.00     0.008 C 
ENDBRANCH   9  10
ENDBRANCH   6   9
ENDBRANCH   4   5
ENDBRANCH   1   4
BRANCH   3  12
HETATM   12  N3  UNL     1     -24.021 -18.037 -20.900  1.00  0.00    -0.283 N 
ATOM     13  H3  UNL     1     -24.507 -18.356 -21.738  1.00  0.00     0.189 HD
BRANCH  12  14
HETATM   14  N4  UNL     1     -23.028 -17.063 -21.012  1.00  0.00    -0.248 N 
HETATM   15  N5  UNL     1     -22.967 -16.307 -22.022  1.00  0.00    -0.331 N 
ATOM     16  H52 UNL     1     -23.662 -16.425 -22.759  1.00  0.00     0.178 HD
ATOM     17  H51 UNL     1     -22.241 -15.596 -22.104  1.00  0.00     0.178 HD
ATOM     18  H4  UNL     1     -22.341 -16.960 -20.265  1.00  0.00     0.207 HD
ENDBRANCH  12  14
ENDBRANCH   3  12
TORSDOF 6
ENDMDL
MODEL 5
REMARK VINA RESULT: -3.979692007      3.981      5.678
REMARK  6 active torsions:
REMARK  status: ('A' for Active; 'I' for Inactive)
REMARK    1  A    between atoms: C2_2  and  C3_3 
REMARK    2  A    between atoms: C3_3  and  N1_4 
REMARK    3  A    between atoms: C6_7  and  C7_8 
REMARK    4  A    between atoms: C7_8  and  N2_9 
REMARK    5  A    between atoms: C8_11  and  N3_12 
REMARK    6  A    between atoms: N3_12  and  N4_14 
ROOT
HETATM    1  N2  UNL     1     -23.532 -18.477 -18.570  1.00  0.00    -0.383 N 
ATOM      2  H2  UNL     1     -22.667 -17.955 -18.712  1.00  0.00     0.160 HD
HETATM    3  C8  UNL     1     -24.355 -18.602 -19.554  1.00  0.00     0.194 C 
ENDROOT
BRANCH   1   4
HETATM    4  C7  UNL     1     -23.800 -19.055 -17.268  1.00  0.00     0.155 C 
BRANCH   4   5
HETATM    5  C6  UNL     1     -25.185 -18.700 -16.776  1.00  0.00     0.234 A 
HETATM    6  N1  UNL     1     -26.081 -19.739 -16.374  1.00  0.00    -0.058 N 
HETATM    7  C4  UNL     1     -25.601 -21.109 -16.402  1.00  0.00     0.273 C 
HETATM    8  C5  UNL     1     -25.579 -18.835 -15.379  1.00  0.00     0.272 A 
BRANCH   6   9
HETATM    9  C3  UNL     1     -27.501 -19.604 -16.678  1.00  0.00     0.264 C 
BRANCH   9  10
HETATM   10  C2  UNL     1     -27.790 -19.917 -18.096  1.00  0.00    -0.009 C 
HETATM   11  C1  UNL     1     -29.000 -19.841 -18.628  1.00  0.00     0.008 C 
ENDBRANCH   9  10
ENDBRANCH   6   9
ENDBRANCH   4   5
ENDBRANCH   1   4
BRANCH   3  12
HETATM   12  N3  UNL     1     -24.059 -18.025 -20.804  1.00  0.00    -0.283 N 
ATOM     13  H3  UNL     1     -24.619 -18.278 -21.618  1.00  0.00     0.189 HD
BRANCH  12  14
HETATM   14  N4  UNL     1     -23.013 -17.114 -20.947  1.00  0.00    -0.248 N 
HETATM   15  N5  UNL     1     -22.939 -16.360 -21.957  1.00  0.00    -0.331 N 
ATOM     16  H52 UNL     1     -23.665 -16.431 -22.671  1.00  0.00     0.178 HD
ATOM     17  H51 UNL     1     -22.174 -15.694 -22.063  1.00  0.00     0.178 HD
ATOM     18  H4  UNL     1     -22.295 -17.056 -20.225  1.00  0.00     0.207 HD
ENDBRANCH  12  14
ENDBRANCH   3  12
TORSDOF 6
ENDMDL
