MODEL 1
REMARK VINA RESULT: -5.228193159      0.000      0.000
REMARK  6 active torsions:
REMARK  status: ('A' for Active; 'I' for Inactive)
REMARK    1  A    between atoms: C4_4  and  C5_5 
REMARK    2  A    between atoms: C6_6  and  C7_7 
REMARK    3  A    between atoms: C7_7  and  N1_8 
REMARK    4  A    between atoms: N1_8  and  C8_11 
REMARK    5  A    between atoms: C8_11  and  C9_12 
REMARK    6  A    between atoms: C9_12  and  N2_13 
ROOT
HETATM    1  C1  UNL     1     -22.811 -16.792 -22.156  1.00  0.00     0.027 C 
HETATM    2  C2  UNL     1     -23.388 -17.467 -21.337  1.00  0.00    -0.026 C 
HETATM    3  C3  UNL     1     -24.064 -18.244 -20.355  1.00  0.00    -0.011 C 
HETATM    4  C4  UNL     1     -24.645 -18.887 -19.515  1.00  0.00    -0.065 C 
ENDROOT
BRANCH   4   5
HETATM    5  C5  UNL     1     -25.346 -19.634 -18.507  1.00  0.00     0.063 C 
HETATM    6  C6  UNL     1     -24.774 -19.810 -17.341  1.00  0.00     0.009 C 
BRANCH   6   7
HETATM    7  C7  UNL     1     -23.439 -19.253 -17.071  1.00  0.00     0.260 C 
BRANCH   7   8
HETATM    8  N1  UNL     1     -22.665 -20.138 -16.266  1.00  0.00    -0.070 N 
ATOM      9  H12 UNL     1     -22.913 -20.058 -15.280  1.00  0.00     0.277 HD
ATOM     10  H11 UNL     1     -22.932 -21.110 -16.419  1.00  0.00     0.277 HD
BRANCH   8  11
HETATM   11  C8  UNL     1     -21.264 -19.945 -16.468  1.00  0.00     0.253 C 
BRANCH  11  12
HETATM   12  C9  UNL     1     -20.884 -18.480 -16.586  1.00  0.00     0.166 C 
BRANCH  12  13
HETATM   13  N2  UNL     1     -20.120 -18.353 -17.789  1.00  0.00    -0.341 N 
HETATM   14  N3  UNL     1     -20.584 -17.641 -18.694  1.00  0.00    -0.349 N 
ATOM     15  H32 UNL     1     -21.481 -17.170 -18.568  1.00  0.00     0.176 HD
ATOM     16  H31 UNL     1     -20.040 -17.551 -19.552  1.00  0.00     0.176 HD
ATOM     17  H2  UNL     1     -19.225 -18.830 -17.899  1.00  0.00     0.179 HD
ENDBRANCH  12  13
ENDBRANCH  11  12
ENDBRANCH   8  11
ENDBRANCH   7   8
ENDBRANCH   6   7
ENDBRANCH   4   5
TORSDOF 6
ENDMDL
MODEL 2
REMARK VINA RESULT: -5.199568860      1.787      3.670
REMARK  6 active torsions:
REMARK  status: ('A' for Active; 'I' for Inactive)
REMARK    1  A    between atoms: C4_4  and  C5_5 
REMARK    2  A    between atoms: C6_6  and  C7_7 
REMARK    3  A    between atoms: C7_7  and  N1_8 
REMARK    4  A    between atoms: N1_8  and  C8_11 
REMARK    5  A    between atoms: C8_11  and  C9_12 
REMARK    6  A    between atoms: C9_12  and  N2_13 
ROOT
HETATM    1  C1  UNL     1     -26.368 -20.496 -17.704  1.00  0.00     0.027 C 
HETATM    2  C2  UNL     1     -25.677 -19.835 -18.443  1.00  0.00    -0.026 C 
HETATM    3  C3  UNL     1     -24.863 -19.075 -19.328  1.00  0.00    -0.011 C 
HETATM    4  C4  UNL     1     -24.183 -18.438 -20.095  1.00  0.00    -0.065 C 
ENDROOT
BRANCH   4   5
HETATM    5  C5  UNL     1     -23.383 -17.686 -21.024  1.00  0.00     0.063 C 
HETATM    6  C6  UNL     1     -22.322 -17.061 -20.580  1.00  0.00     0.009 C 
BRANCH   6   7
HETATM    7  C7  UNL     1     -21.955 -17.125 -19.156  1.00  0.00     0.260 C 
BRANCH   7   8
HETATM    8  N1  UNL     1     -20.644 -17.657 -18.985  1.00  0.00    -0.070 N 
ATOM      9  H12 UNL     1     -20.460 -18.413 -19.645  1.00  0.00     0.277 HD
ATOM     10  H11 UNL     1     -19.931 -16.998 -19.295  1.00  0.00     0.277 HD
BRANCH   8  11
HETATM   11  C8  UNL     1     -20.417 -18.075 -17.638  1.00  0.00     0.253 C 
BRANCH  11  12
HETATM   12  C9  UNL     1     -19.479 -19.265 -17.542  1.00  0.00     0.166 C 
BRANCH  12  13
HETATM   13  N2  UNL     1     -18.591 -19.174 -18.661  1.00  0.00    -0.341 N 
HETATM   14  N3  UNL     1     -17.968 -20.197 -18.985  1.00  0.00    -0.349 N 
ATOM     15  H32 UNL     1     -18.095 -21.064 -18.463  1.00  0.00     0.176 HD
ATOM     16  H31 UNL     1     -17.334 -20.132 -19.783  1.00  0.00     0.176 HD
ATOM     17  H2  UNL     1     -18.476 -18.300 -19.174  1.00  0.00     0.179 HD
ENDBRANCH  12  13
ENDBRANCH  11  12
ENDBRANCH   8  11
ENDBRANCH   7   8
ENDBRANCH   6   7
ENDBRANCH   4   5
TORSDOF 6
ENDMDL
MODEL 3
REMARK VINA RESULT: -5.180437527      1.477      1.680
REMARK  6 active torsions:
REMARK  status: ('A' for Active; 'I' for Inactive)
REMARK    1  A    between atoms: C4_4  and  C5_5 
REMARK    2  A    between atoms: C6_6  and  C7_7 
REMARK    3  A    between atoms: C7_7  and  N1_8 
REMARK    4  A    between atoms: N1_8  and  C8_11 
REMARK    5  A    between atoms: C8_11  and  C9_12 
REMARK    6  A    between atoms: C9_12  and  N2_13 
ROOT
HETATM    1  C1  UNL     1     -23.051 -16.823 -22.341  1.00  0.00     0.027 C 
HETATM    2  C2  UNL     1     -23.435 -17.439 -21.375  1.00  0.00    -0.026 C 
HETATM    3  C3  UNL     1     -23.870 -18.153 -20.224  1.00  0.00    -0.011 C 
HETATM    4  C4  UNL     1     -24.236 -18.743 -19.236  1.00  0.00    -0.065 C 
ENDROOT
BRANCH   4   5
HETATM    5  C5  UNL     1     -24.669 -19.428 -18.049  1.00  0.00     0.063 C 
HETATM    6  C6  UNL     1     -23.863 -19.471 -17.017  1.00  0.00     0.009 C 
BRANCH   6   7
HETATM    7  C7  UNL     1     -22.539 -18.831 -17.074  1.00  0.00     0.260 C 
BRANCH   7   8
HETATM    8  N1  UNL     1     -21.513 -19.733 -16.669  1.00  0.00    -0.070 N 
ATOM      9  H12 UNL     1     -21.656 -20.054 -15.712  1.00  0.00     0.277 HD
ATOM     10  H11 UNL     1     -21.592 -20.628 -17.151  1.00  0.00     0.277 HD
BRANCH   8  11
HETATM   11  C8  UNL     1     -20.214 -19.163 -16.839  1.00  0.00     0.253 C 
BRANCH  11  12
HETATM   12  C9  UNL     1     -19.138 -20.210 -17.063  1.00  0.00     0.166 C 
BRANCH  12  13
HETATM   13  N2  UNL     1     -18.270 -19.691 -18.075  1.00  0.00    -0.341 N 
HETATM   14  N3  UNL     1     -17.849 -20.482 -18.934  1.00  0.00    -0.349 N 
ATOM     15  H32 UNL     1     -18.122 -21.465 -18.905  1.00  0.00     0.176 HD
ATOM     16  H31 UNL     1     -17.230 -20.112 -19.655  1.00  0.00     0.176 HD
ATOM     17  H2  UNL     1     -18.007 -18.705 -18.091  1.00  0.00     0.179 HD
ENDBRANCH  12  13
ENDBRANCH  11  12
ENDBRANCH   8  11
ENDBRANCH   7   8
ENDBRANCH   6   7
ENDBRANCH   4   5
TORSDOF 6
ENDMDL
MODEL 4
REMARK VINA RESULT: -4.963685846      2.291      3.408
REMARK  6 active torsions:
REMARK  status: ('A' for Active; 'I' for Inactive)
REMARK    1  A    between atoms: C4_4  and  C5_5 
REMARK    2  A    between atoms: C6_6  and  C7_7 
REMARK    3  A    between atoms: C7_7  and  N1_8 
REMARK    4  A    between atoms: N1_8  and  C8_11 
REMARK    5  A    between atoms: C8_11  and  C9_12 
REMARK    6  A    between atoms: C9_12  and  N2_13 
ROOT
HETATM    1  C1  UNL     1     -22.685 -16.645 -22.167  1.00  0.00     0.027 C 
HETATM    2  C2  UNL     1     -23.261 -17.326 -21.352  1.00  0.00    -0.026 C 
HETATM    3  C3  UNL     1     -23.960 -18.118 -20.399  1.00  0.00    -0.011 C 
HETATM    4  C4  UNL     1     -24.568 -18.791 -19.602  1.00  0.00    -0.065 C 
ENDROOT
BRANCH   4   5
HETATM    5  C5  UNL     1     -25.308 -19.594 -18.668  1.00  0.00     0.063 C 
HETATM    6  C6  UNL     1     -24.802 -19.803 -17.478  1.00  0.00     0.009 C 
BRANCH   6   7
HETATM    7  C7  UNL     1     -23.500 -19.227 -17.105  1.00  0.00     0.260 C 
BRANCH   7   8
HETATM    8  N1  UNL     1     -23.291 -19.292 -15.698  1.00  0.00    -0.070 N 
ATOM      9  H12 UNL     1     -22.653 -20.047 -15.450  1.00  0.00     0.277 HD
ATOM     10  H11 UNL     1     -22.739 -18.501 -15.367  1.00  0.00     0.277 HD
BRANCH   8  11
HETATM   11  C8  UNL     1     -24.526 -19.398 -14.987  1.00  0.00     0.253 C 
BRANCH  11  12
HETATM   12  C9  UNL     1     -24.800 -18.196 -14.102  1.00  0.00     0.166 C 
BRANCH  12  13
HETATM   13  N2  UNL     1     -26.067 -17.670 -14.512  1.00  0.00    -0.341 N 
HETATM   14  N3  UNL     1     -26.959 -18.483 -14.804  1.00  0.00    -0.349 N 
ATOM     15  H32 UNL     1     -26.780 -19.485 -14.749  1.00  0.00     0.176 HD
ATOM     16  H31 UNL     1     -27.862 -18.108 -15.096  1.00  0.00     0.176 HD
ATOM     17  H2  UNL     1     -26.231 -16.665 -14.561  1.00  0.00     0.179 HD
ENDBRANCH  12  13
ENDBRANCH  11  12
ENDBRANCH   8  11
ENDBRANCH   7   8
ENDBRANCH   6   7
ENDBRANCH   4   5
TORSDOF 6
ENDMDL
MODEL 5
REMARK VINA RESULT: -4.891090116      2.808      3.785
REMARK  6 active torsions:
REMARK  status: ('A' for Active; 'I' for Inactive)
REMARK    1  A    between atoms: C4_4  and  C5_5 
REMARK    2  A    between atoms: C6_6  and  C7_7 
REMARK    3  A    between atoms: C7_7  and  N1_8 
REMARK    4  A    between atoms: N1_8  and  C8_11 
REMARK    5  A    between atoms: C8_11  and  C9_12 
REMARK    6  A    between atoms: C9_12  and  N2_13 
ROOT
HETATM    1  C1  UNL     1     -22.373 -16.609 -21.893  1.00  0.00     0.027 C 
HETATM    2  C2  UNL     1     -23.056 -17.301 -21.175  1.00  0.00    -0.026 C 
HETATM    3  C3  UNL     1     -23.880 -18.109 -20.344  1.00  0.00    -0.011 C 
HETATM    4  C4  UNL     1     -24.589 -18.800 -19.654  1.00  0.00    -0.065 C 
ENDROOT
BRANCH   4   5
HETATM    5  C5  UNL     1     -25.445 -19.629 -18.849  1.00  0.00     0.063 C 
HETATM    6  C6  UNL     1     -25.103 -19.871 -17.608  1.00  0.00     0.009 C 
BRANCH   6   7
HETATM    7  C7  UNL     1     -23.865 -19.304 -17.048  1.00  0.00     0.260 C 
BRANCH   7   8
HETATM    8  N1  UNL     1     -23.990 -19.076 -15.648  1.00  0.00    -0.070 N 
ATOM      9  H12 UNL     1     -23.756 -19.911 -15.112  1.00  0.00     0.277 HD
ATOM     10  H11 UNL     1     -23.257 -18.456 -15.305  1.00  0.00     0.277 HD
BRANCH   8  11
HETATM   11  C8  UNL     1     -25.288 -18.585 -15.308  1.00  0.00     0.253 C 
BRANCH  11  12
HETATM   12  C9  UNL     1     -25.297 -17.802 -14.008  1.00  0.00     0.166 C 
BRANCH  12  13
HETATM   13  N2  UNL     1     -26.536 -17.085 -13.974  1.00  0.00    -0.341 N 
HETATM   14  N3  UNL     1     -26.509 -15.909 -13.577  1.00  0.00    -0.349 N 
ATOM     15  H32 UNL     1     -25.627 -15.484 -13.289  1.00  0.00     0.176 HD
ATOM     16  H31 UNL     1     -27.391 -15.398 -13.553  1.00  0.00     0.176 HD
ATOM     17  H2  UNL     1     -27.408 -17.524 -14.266  1.00  0.00     0.179 HD
ENDBRANCH  12  13
ENDBRANCH  11  12
ENDBRANCH   8  11
ENDBRANCH   7   8
ENDBRANCH   6   7
ENDBRANCH   4   5
TORSDOF 6
ENDMDL
