MODEL 1
REMARK VINA RESULT: -3.771360482      0.000      0.000
REMARK  5 active torsions:
REMARK  status: ('A' for Active; 'I' for Inactive)
REMARK    1  A    between atoms: N2_4  and  N3_6 
REMARK    2  A    between atoms: C1_8  and  C2_9 
REMARK    3  A    between atoms: C3_13  and  C4_14 
REMARK    4  A    between atoms: C4_14  and  N5_15 
REMARK    5  A    between atoms: N5_15  and  C5_17 
ROOT
HETATM    1  C2  UNL     1     -24.431 -19.242 -18.050  1.00  0.00     0.258 A 
HETATM    2  N4  UNL     1     -23.672 -19.352 -16.791  1.00  0.00    -0.056 N 
ATOM      3  H41 UNL     1     -22.769 -19.009 -16.465  1.00  0.00     0.278 HD
ATOM      4  H42 UNL     1     -23.181 -20.108 -16.312  1.00  0.00     0.278 HD
HETATM    5  C3  UNL     1     -25.052 -18.831 -16.765  1.00  0.00     0.240 A 
ENDROOT
BRANCH   1   6
HETATM    6  C1  UNL     1     -23.897 -18.273 -19.006  1.00  0.00     0.116 C 
HETATM    7  N3  UNL     1     -24.058 -18.368 -20.289  1.00  0.00    -0.300 N 
ATOM      8  H3  UNL     1     -24.586 -19.159 -20.657  1.00  0.00     0.187 HD
BRANCH   7   9
HETATM    9  N2  UNL     1     -23.544 -17.440 -21.184  1.00  0.00    -0.250 N 
HETATM   10  N1  UNL     1     -22.551 -16.731 -20.847  1.00  0.00    -0.331 N 
ATOM     11  H12 UNL     1     -22.144 -16.853 -19.921  1.00  0.00     0.178 HD
ATOM     12  H11 UNL     1     -22.173 -16.049 -21.505  1.00  0.00     0.178 HD
ATOM     13  H2  UNL     1     -23.963 -17.331 -22.108  1.00  0.00     0.207 HD
ENDBRANCH   7   9
ENDBRANCH   1   6
BRANCH   5  14
HETATM   14  C4  UNL     1     -26.041 -19.717 -16.089  1.00  0.00     0.157 C 
BRANCH  14  15
HETATM   15  N5  UNL     1     -27.351 -19.112 -16.154  1.00  0.00    -0.366 N 
ATOM     16  H5  UNL     1     -27.588 -18.367 -15.499  1.00  0.00     0.161 HD
BRANCH  15  17
HETATM   17  C5  UNL     1     -28.304 -19.525 -17.098  1.00  0.00     0.348 C 
HETATM   18  O1  UNL     1     -28.264 -19.098 -18.263  1.00  0.00    -0.284 OA
ENDBRANCH  15  17
ENDBRANCH  14  15
ENDBRANCH   5  14
TORSDOF 5
ENDMDL
MODEL 2
REMARK VINA RESULT: -3.710061017      1.886      2.119
REMARK  5 active torsions:
REMARK  status: ('A' for Active; 'I' for Inactive)
REMARK    1  A    between atoms: N2_4  and  N3_6 
REMARK    2  A    between atoms: C1_8  and  C2_9 
REMARK    3  A    between atoms: C3_13  and  C4_14 
REMARK    4  A    between atoms: C4_14  and  N5_15 
REMARK    5  A    between atoms: N5_15  and  C5_17 
ROOT
HETATM    1  C2  UNL     1     -24.894 -19.126 -18.487  1.00  0.00     0.258 A 
HETATM    2  N4  UNL     1     -24.418 -20.190 -17.585  1.00  0.00    -0.056 N 
ATOM      3  H41 UNL     1     -23.510 -20.615 -17.391  1.00  0.00     0.278 HD
ATOM      4  H42 UNL     1     -24.524 -21.205 -17.551  1.00  0.00     0.278 HD
HETATM    5  C3  UNL     1     -25.170 -19.049 -17.030  1.00  0.00     0.240 A 
ENDROOT
BRANCH   1   6
HETATM    6  C1  UNL     1     -23.836 -18.344 -19.126  1.00  0.00     0.116 C 
HETATM    7  N3  UNL     1     -23.880 -17.951 -20.361  1.00  0.00    -0.300 N 
ATOM      8  H3  UNL     1     -24.695 -18.199 -20.923  1.00  0.00     0.187 HD
BRANCH   7   9
HETATM    9  N2  UNL     1     -22.867 -17.210 -20.953  1.00  0.00    -0.250 N 
HETATM   10  N1  UNL     1     -23.115 -16.533 -21.993  1.00  0.00    -0.331 N 
ATOM     11  H12 UNL     1     -24.058 -16.543 -22.380  1.00  0.00     0.178 HD
ATOM     12  H11 UNL     1     -22.370 -15.988 -22.428  1.00  0.00     0.178 HD
ATOM     13  H2  UNL     1     -21.929 -17.211 -20.552  1.00  0.00     0.207 HD
ENDBRANCH   7   9
ENDBRANCH   1   6
BRANCH   5  14
HETATM   14  C4  UNL     1     -26.520 -19.390 -16.500  1.00  0.00     0.157 C 
BRANCH  14  15
HETATM   15  N5  UNL     1     -26.774 -18.621 -15.304  1.00  0.00    -0.366 N 
ATOM     16  H5  UNL     1     -27.737 -18.481 -14.996  1.00  0.00     0.161 HD
BRANCH  15  17
HETATM   17  C5  UNL     1     -25.727 -18.060 -14.556  1.00  0.00     0.348 C 
HETATM   18  O1  UNL     1     -25.743 -16.857 -14.253  1.00  0.00    -0.284 OA
ENDBRANCH  15  17
ENDBRANCH  14  15
ENDBRANCH   5  14
TORSDOF 5
ENDMDL
MODEL 3
REMARK VINA RESULT: -3.700432539      3.068      3.753
REMARK  5 active torsions:
REMARK  status: ('A' for Active; 'I' for Inactive)
REMARK    1  A    between atoms: N2_4  and  N3_6 
REMARK    2  A    between atoms: C1_8  and  C2_9 
REMARK    3  A    between atoms: C3_13  and  C4_14 
REMARK    4  A    between atoms: C4_14  and  N5_15 
REMARK    5  A    between atoms: N5_15  and  C5_17 
ROOT
HETATM    1  C2  UNL     1     -24.534 -18.779 -18.092  1.00  0.00     0.258 A 
HETATM    2  N4  UNL     1     -25.016 -20.110 -17.681  1.00  0.00    -0.056 N 
ATOM      3  H41 UNL     1     -25.301 -20.955 -18.176  1.00  0.00     0.278 HD
ATOM      4  H42 UNL     1     -25.878 -20.465 -17.266  1.00  0.00     0.278 HD
HETATM    5  C3  UNL     1     -23.738 -19.602 -17.146  1.00  0.00     0.240 A 
ENDROOT
BRANCH   1   6
HETATM    6  C1  UNL     1     -24.188 -18.662 -19.508  1.00  0.00     0.116 C 
HETATM    7  N3  UNL     1     -23.760 -17.565 -20.054  1.00  0.00    -0.300 N 
ATOM      8  H3  UNL     1     -23.657 -16.737 -19.468  1.00  0.00     0.187 HD
BRANCH   7   9
HETATM    9  N2  UNL     1     -23.437 -17.470 -21.400  1.00  0.00    -0.250 N 
HETATM   10  N1  UNL     1     -22.815 -16.452 -21.822  1.00  0.00    -0.331 N 
ATOM     11  H12 UNL     1     -22.560 -15.716 -21.164  1.00  0.00     0.178 HD
ATOM     12  H11 UNL     1     -22.577 -16.381 -22.811  1.00  0.00     0.178 HD
ATOM     13  H2  UNL     1     -23.698 -18.216 -22.045  1.00  0.00     0.207 HD
ENDBRANCH   7   9
ENDBRANCH   1   6
BRANCH   5  14
HETATM   14  C4  UNL     1     -23.751 -19.296 -15.687  1.00  0.00     0.157 C 
BRANCH  14  15
HETATM   15  N5  UNL     1     -22.396 -19.105 -15.225  1.00  0.00    -0.366 N 
ATOM     16  H5  UNL     1     -22.221 -18.987 -14.227  1.00  0.00     0.161 HD
BRANCH  15  17
HETATM   17  C5  UNL     1     -21.313 -19.079 -16.119  1.00  0.00     0.348 C 
HETATM   18  O1  UNL     1     -20.516 -18.128 -16.116  1.00  0.00    -0.284 OA
ENDBRANCH  15  17
ENDBRANCH  14  15
ENDBRANCH   5  14
TORSDOF 5
ENDMDL
MODEL 4
REMARK VINA RESULT: -3.688838553      8.907     10.437
REMARK  5 active torsions:
REMARK  status: ('A' for Active; 'I' for Inactive)
REMARK    1  A    between atoms: N2_4  and  N3_6 
REMARK    2  A    between atoms: C1_8  and  C2_9 
REMARK    3  A    between atoms: C3_13  and  C4_14 
REMARK    4  A    between atoms: C4_14  and  N5_15 
REMARK    5  A    between atoms: N5_15  and  C5_17 
ROOT
HETATM    1  C2  UNL     1     -31.005 -11.902 -14.465  1.00  0.00     0.258 A 
HETATM    2  N4  UNL     1     -32.166 -11.041 -14.177  1.00  0.00    -0.056 N 
ATOM      3  H41 UNL     1     -33.178 -11.162 -14.222  1.00  0.00     0.278 HD
ATOM      4  H42 UNL     1     -32.580 -10.221 -14.622  1.00  0.00     0.278 HD
HETATM    5  C3  UNL     1     -31.141 -11.251 -13.137  1.00  0.00     0.240 A 
ENDROOT
BRANCH   1   6
HETATM    6  C1  UNL     1     -31.325 -13.313 -14.681  1.00  0.00     0.116 C 
HETATM    7  N3  UNL     1     -30.484 -14.173 -15.166  1.00  0.00    -0.300 N 
ATOM      8  H3  UNL     1     -29.547 -13.854 -15.411  1.00  0.00     0.187 HD
BRANCH   7   9
HETATM    9  N2  UNL     1     -30.803 -15.509 -15.366  1.00  0.00    -0.250 N 
HETATM   10  N1  UNL     1     -31.331 -15.868 -16.458  1.00  0.00    -0.331 N 
ATOM     11  H12 UNL     1     -31.514 -15.168 -17.176  1.00  0.00     0.178 HD
ATOM     12  H11 UNL     1     -31.566 -16.850 -16.605  1.00  0.00     0.178 HD
ATOM     13  H2  UNL     1     -30.613 -16.197 -14.636  1.00  0.00     0.207 HD
ENDBRANCH   7   9
ENDBRANCH   1   6
BRANCH   5  14
HETATM   14  C4  UNL     1     -30.334 -10.043 -12.804  1.00  0.00     0.157 C 
BRANCH  14  15
HETATM   15  N5  UNL     1     -29.417 -10.360 -11.733  1.00  0.00    -0.366 N 
ATOM     16  H5  UNL     1     -29.770 -10.426 -10.778  1.00  0.00     0.161 HD
BRANCH  15  17
HETATM   17  C5  UNL     1     -28.052 -10.578 -11.976  1.00  0.00     0.348 C 
HETATM   18  O1  UNL     1     -27.192 -10.078 -11.235  1.00  0.00    -0.284 OA
ENDBRANCH  15  17
ENDBRANCH  14  15
ENDBRANCH   5  14
TORSDOF 5
ENDMDL
MODEL 5
REMARK VINA RESULT: -3.627599923      4.986      6.242
REMARK  5 active torsions:
REMARK  status: ('A' for Active; 'I' for Inactive)
REMARK    1  A    between atoms: N2_4  and  N3_6 
REMARK    2  A    between atoms: C1_8  and  C2_9 
REMARK    3  A    between atoms: C3_13  and  C4_14 
REMARK    4  A    between atoms: C4_14  and  N5_15 
REMARK    5  A    between atoms: N5_15  and  C5_17 
ROOT
HETATM    1  C2  UNL     1     -20.181 -18.901 -18.018  1.00  0.00     0.258 A 
HETATM    2  N4  UNL     1     -20.632 -17.838 -17.102  1.00  0.00    -0.056 N 
ATOM      3  H41 UNL     1     -20.189 -17.292 -16.362  1.00  0.00     0.278 HD
ATOM      4  H42 UNL     1     -21.255 -17.803 -16.294  1.00  0.00     0.278 HD
HETATM    5  C3  UNL     1     -20.807 -17.666 -18.556  1.00  0.00     0.240 A 
ENDROOT
BRANCH   1   6
HETATM    6  C1  UNL     1     -18.735 -19.119 -18.043  1.00  0.00     0.116 C 
HETATM    7  N3  UNL     1     -18.184 -20.239 -18.394  1.00  0.00    -0.300 N 
ATOM      8  H3  UNL     1     -18.787 -21.013 -18.671  1.00  0.00     0.187 HD
BRANCH   7   9
HETATM    9  N2  UNL     1     -16.810 -20.430 -18.411  1.00  0.00    -0.250 N 
HETATM   10  N1  UNL     1     -16.342 -21.605 -18.370  1.00  0.00    -0.331 N 
ATOM     11  H12 UNL     1     -16.985 -22.395 -18.325  1.00  0.00     0.178 HD
ATOM     12  H11 UNL     1     -15.332 -21.746 -18.382  1.00  0.00     0.178 HD
ATOM     13  H2  UNL     1     -16.180 -19.628 -18.457  1.00  0.00     0.207 HD
ENDBRANCH   7   9
ENDBRANCH   1   6
BRANCH   5  14
HETATM   14  C4  UNL     1     -22.224 -17.680 -19.019  1.00  0.00     0.157 C 
BRANCH  14  15
HETATM   15  N5  UNL     1     -22.345 -16.880 -20.216  1.00  0.00    -0.366 N 
ATOM     16  H5  UNL     1     -21.889 -15.969 -20.254  1.00  0.00     0.161 HD
BRANCH  15  17
HETATM   17  C5  UNL     1     -23.077 -17.329 -21.327  1.00  0.00     0.348 C 
HETATM   18  O1  UNL     1     -22.827 -16.894 -22.462  1.00  0.00    -0.284 OA
ENDBRANCH  15  17
ENDBRANCH  14  15
ENDBRANCH   5  14
TORSDOF 5
ENDMDL
