MODEL 1
REMARK VINA RESULT: -3.932915492      0.000      0.000
REMARK  6 active torsions:
REMARK  status: ('A' for Active; 'I' for Inactive)
REMARK    1  A    between atoms: N2_4  and  C1_6 
REMARK    2  A    between atoms: C1_6  and  C2_7 
REMARK    3  A    between atoms: C5_10  and  N3_11 
REMARK    4  A    between atoms: N3_11  and  C6_14 
REMARK    5  A    between atoms: C6_14  and  C7_15 
REMARK    6  A    between atoms: C7_15  and  O1_16 
ROOT
HETATM    1  C2  UNL     1     -22.313 -16.984 -19.646  1.00  0.00     0.061 A 
HETATM    2  C3  UNL     1     -22.441 -16.610 -21.082  1.00  0.00    -0.020 A 
HETATM    3  C4  UNL     1     -23.239 -17.592 -21.446  1.00  0.00     0.003 A 
HETATM    4  C5  UNL     1     -23.225 -18.114 -20.045  1.00  0.00     0.217 A 
ENDROOT
BRANCH   4   5
HETATM    5  N3  UNL     1     -24.552 -18.014 -19.504  1.00  0.00    -0.065 N 
ATOM      6  H32 UNL     1     -24.678 -17.154 -18.970  1.00  0.00     0.278 HD
ATOM      7  H31 UNL     1     -25.245 -17.845 -20.234  1.00  0.00     0.278 HD
BRANCH   5   8
HETATM    8  C6  UNL     1     -24.882 -19.204 -18.706  1.00  0.00     0.259 C 
BRANCH   8   9
HETATM    9  C7  UNL     1     -24.481 -18.862 -17.264  1.00  0.00     0.191 C 
BRANCH   9  10
HETATM   10  O1  UNL     1     -23.234 -19.454 -17.072  1.00  0.00    -0.399 OA
ATOM     11  H1  UNL     1     -22.856 -19.014 -16.319  1.00  0.00     0.209 HD
ENDBRANCH   9  10
ENDBRANCH   8   9
ENDBRANCH   5   8
ENDBRANCH   4   5
BRANCH   1  12
HETATM   12  C1  UNL     1     -20.893 -17.383 -19.313  1.00  0.00     0.149 C 
BRANCH  12  13
HETATM   13  N2  UNL     1     -20.811 -17.701 -17.915  1.00  0.00    -0.342 N 
HETATM   14  N1  UNL     1     -20.173 -18.693 -17.557  1.00  0.00    -0.349 N 
ATOM     15  H12 UNL     1     -19.714 -19.272 -18.259  1.00  0.00     0.176 HD
ATOM     16  H11 UNL     1     -20.114 -18.918 -16.564  1.00  0.00     0.176 HD
ATOM     17  H2  UNL     1     -21.277 -17.111 -17.225  1.00  0.00     0.179 HD
ENDBRANCH  12  13
ENDBRANCH   1  12
TORSDOF 6
ENDMDL
MODEL 2
REMARK VINA RESULT: -3.447953448      2.077      3.553
REMARK  6 active torsions:
REMARK  status: ('A' for Active; 'I' for Inactive)
REMARK    1  A    between atoms: N2_4  and  C1_6 
REMARK    2  A    between atoms: C1_6  and  C2_7 
REMARK    3  A    between atoms: C5_10  and  N3_11 
REMARK    4  A    between atoms: N3_11  and  C6_14 
REMARK    5  A    between atoms: C6_14  and  C7_15 
REMARK    6  A    between atoms: C7_15  and  O1_16 
ROOT
HETATM    1  C2  UNL     1     -23.284 -18.340 -19.759  1.00  0.00     0.061 A 
HETATM    2  C3  UNL     1     -23.395 -17.805 -21.145  1.00  0.00    -0.020 A 
HETATM    3  C4  UNL     1     -22.610 -16.759 -20.991  1.00  0.00     0.003 A 
HETATM    4  C5  UNL     1     -22.382 -17.149 -19.565  1.00  0.00     0.217 A 
ENDROOT
BRANCH   4   5
HETATM    5  N3  UNL     1     -20.996 -17.485 -19.397  1.00  0.00    -0.065 N 
ATOM      6  H32 UNL     1     -20.708 -18.230 -20.031  1.00  0.00     0.278 HD
ATOM      7  H31 UNL     1     -20.384 -16.745 -19.741  1.00  0.00     0.278 HD
BRANCH   5   8
HETATM    8  C6  UNL     1     -20.707 -17.822 -17.994  1.00  0.00     0.259 C 
BRANCH   8   9
HETATM    9  C7  UNL     1     -19.486 -18.750 -18.032  1.00  0.00     0.191 C 
BRANCH   9  10
HETATM   10  O1  UNL     1     -18.877 -18.518 -19.264  1.00  0.00    -0.399 OA
ATOM     11  H1  UNL     1     -17.943 -18.595 -19.106  1.00  0.00     0.209 HD
ENDBRANCH   9  10
ENDBRANCH   8   9
ENDBRANCH   5   8
ENDBRANCH   4   5
BRANCH   1  12
HETATM   12  C1  UNL     1     -24.612 -18.271 -19.042  1.00  0.00     0.149 C 
BRANCH  12  13
HETATM   13  N2  UNL     1     -24.721 -19.391 -18.149  1.00  0.00    -0.342 N 
HETATM   14  N1  UNL     1     -23.897 -19.522 -17.241  1.00  0.00    -0.349 N 
ATOM     15  H12 UNL     1     -23.152 -18.834 -17.139  1.00  0.00     0.176 HD
ATOM     16  H11 UNL     1     -23.975 -20.317 -16.607  1.00  0.00     0.176 HD
ATOM     17  H2  UNL     1     -25.473 -20.070 -18.265  1.00  0.00     0.179 HD
ENDBRANCH  12  13
ENDBRANCH   1  12
TORSDOF 6
ENDMDL
MODEL 3
REMARK VINA RESULT: -3.381023252      5.325      6.220
REMARK  6 active torsions:
REMARK  status: ('A' for Active; 'I' for Inactive)
REMARK    1  A    between atoms: N2_4  and  C1_6 
REMARK    2  A    between atoms: C1_6  and  C2_7 
REMARK    3  A    between atoms: C5_10  and  N3_11 
REMARK    4  A    between atoms: N3_11  and  C6_14 
REMARK    5  A    between atoms: C6_14  and  C7_15 
REMARK    6  A    between atoms: C7_15  and  O1_16 
ROOT
HETATM    1  C2  UNL     1     -18.786 -20.324 -16.719  1.00  0.00     0.061 A 
HETATM    2  C3  UNL     1     -20.025 -19.760 -16.114  1.00  0.00    -0.020 A 
HETATM    3  C4  UNL     1     -20.775 -20.837 -16.219  1.00  0.00     0.003 A 
HETATM    4  C5  UNL     1     -19.630 -21.565 -16.847  1.00  0.00     0.217 A 
ENDROOT
BRANCH   4   5
HETATM    5  N3  UNL     1     -19.234 -22.635 -15.974  1.00  0.00    -0.065 N 
ATOM      6  H32 UNL     1     -18.659 -22.299 -15.202  1.00  0.00     0.278 HD
ATOM      7  H31 UNL     1     -20.022 -22.994 -15.435  1.00  0.00     0.278 HD
BRANCH   5   8
HETATM    8  C6  UNL     1     -18.561 -23.702 -16.730  1.00  0.00     0.259 C 
BRANCH   8   9
HETATM    9  C7  UNL     1     -19.254 -23.744 -18.099  1.00  0.00     0.191 C 
BRANCH   9  10
HETATM   10  O1  UNL     1     -18.233 -23.625 -19.040  1.00  0.00    -0.399 OA
ATOM     11  H1  UNL     1     -18.669 -23.493 -19.874  1.00  0.00     0.209 HD
ENDBRANCH   9  10
ENDBRANCH   8   9
ENDBRANCH   5   8
ENDBRANCH   4   5
BRANCH   1  12
HETATM   12  C1  UNL     1     -18.451 -19.631 -18.019  1.00  0.00     0.149 C 
BRANCH  12  13
HETATM   13  N2  UNL     1     -17.746 -20.547 -18.871  1.00  0.00    -0.342 N 
HETATM   14  N1  UNL     1     -16.653 -20.990 -18.509  1.00  0.00    -0.349 N 
ATOM     15  H12 UNL     1     -16.268 -20.697 -17.612  1.00  0.00     0.176 HD
ATOM     16  H11 UNL     1     -16.153 -21.641 -19.114  1.00  0.00     0.176 HD
ATOM     17  H2  UNL     1     -18.146 -20.830 -19.766  1.00  0.00     0.179 HD
ENDBRANCH  12  13
ENDBRANCH   1  12
TORSDOF 6
ENDMDL
MODEL 4
REMARK VINA RESULT: -3.275114808      2.458      3.861
REMARK  6 active torsions:
REMARK  status: ('A' for Active; 'I' for Inactive)
REMARK    1  A    between atoms: N2_4  and  C1_6 
REMARK    2  A    between atoms: C1_6  and  C2_7 
REMARK    3  A    between atoms: C5_10  and  N3_11 
REMARK    4  A    between atoms: N3_11  and  C6_14 
REMARK    5  A    between atoms: C6_14  and  C7_15 
REMARK    6  A    between atoms: C7_15  and  O1_16 
ROOT
HETATM    1  C2  UNL     1     -24.177 -18.342 -18.212  1.00  0.00     0.061 A 
HETATM    2  C3  UNL     1     -25.132 -19.410 -18.621  1.00  0.00    -0.020 A 
HETATM    3  C4  UNL     1     -24.771 -20.314 -17.735  1.00  0.00     0.003 A 
HETATM    4  C5  UNL     1     -23.751 -19.366 -17.192  1.00  0.00     0.217 A 
ENDROOT
BRANCH   4   5
HETATM    5  N3  UNL     1     -24.110 -19.031 -15.841  1.00  0.00    -0.065 N 
ATOM      6  H32 UNL     1     -24.546 -18.110 -15.784  1.00  0.00     0.278 HD
ATOM      7  H31 UNL     1     -24.893 -19.593 -15.508  1.00  0.00     0.278 HD
BRANCH   5   8
HETATM    8  C6  UNL     1     -22.945 -19.139 -14.950  1.00  0.00     0.259 C 
BRANCH   8   9
HETATM    9  C7  UNL     1     -21.719 -19.196 -15.873  1.00  0.00     0.191 C 
BRANCH   9  10
HETATM   10  O1  UNL     1     -20.821 -18.262 -15.361  1.00  0.00    -0.399 OA
ATOM     11  H1  UNL     1     -21.356 -17.578 -14.974  1.00  0.00     0.209 HD
ENDBRANCH   9  10
ENDBRANCH   8   9
ENDBRANCH   5   8
ENDBRANCH   4   5
BRANCH   1  12
HETATM   12  C1  UNL     1     -23.174 -18.062 -19.307  1.00  0.00     0.149 C 
BRANCH  12  13
HETATM   13  N2  UNL     1     -23.864 -17.970 -20.563  1.00  0.00    -0.342 N 
HETATM   14  N1  UNL     1     -23.378 -17.293 -21.471  1.00  0.00    -0.349 N 
ATOM     15  H12 UNL     1     -22.495 -16.809 -21.316  1.00  0.00     0.176 HD
ATOM     16  H11 UNL     1     -23.869 -17.228 -22.363  1.00  0.00     0.176 HD
ATOM     17  H2  UNL     1     -24.748 -18.461 -20.702  1.00  0.00     0.179 HD
ENDBRANCH  12  13
ENDBRANCH   1  12
TORSDOF 6
ENDMDL
MODEL 5
REMARK VINA RESULT: -3.254713142      2.281      3.898
REMARK  6 active torsions:
REMARK  status: ('A' for Active; 'I' for Inactive)
REMARK    1  A    between atoms: N2_4  and  C1_6 
REMARK    2  A    between atoms: C1_6  and  C2_7 
REMARK    3  A    between atoms: C5_10  and  N3_11 
REMARK    4  A    between atoms: N3_11  and  C6_14 
REMARK    5  A    between atoms: C6_14  and  C7_15 
REMARK    6  A    between atoms: C7_15  and  O1_16 
ROOT
HETATM    1  C2  UNL     1     -24.212 -18.350 -18.699  1.00  0.00     0.061 A 
HETATM    2  C3  UNL     1     -25.439 -19.128 -18.368  1.00  0.00    -0.020 A 
HETATM    3  C4  UNL     1     -24.862 -20.059 -17.638  1.00  0.00     0.003 A 
HETATM    4  C5  UNL     1     -23.536 -19.407 -17.865  1.00  0.00     0.217 A 
ENDROOT
BRANCH   4   5
HETATM    5  N3  UNL     1     -23.037 -18.929 -16.605  1.00  0.00    -0.065 N 
ATOM      6  H32 UNL     1     -23.142 -17.918 -16.517  1.00  0.00     0.278 HD
ATOM      7  H31 UNL     1     -23.636 -19.214 -15.830  1.00  0.00     0.278 HD
BRANCH   5   8
HETATM    8  C6  UNL     1     -21.644 -19.352 -16.402  1.00  0.00     0.259 C 
BRANCH   8   9
HETATM    9  C7  UNL     1     -20.789 -18.377 -17.224  1.00  0.00     0.191 C 
BRANCH   9  10
HETATM   10  O1  UNL     1     -19.480 -18.842 -17.114  1.00  0.00    -0.399 OA
ATOM     11  H1  UNL     1     -18.982 -18.363 -17.767  1.00  0.00     0.209 HD
ENDBRANCH   9  10
ENDBRANCH   8   9
ENDBRANCH   5   8
ENDBRANCH   4   5
BRANCH   1  12
HETATM   12  C1  UNL     1     -23.916 -18.405 -20.180  1.00  0.00     0.149 C 
BRANCH  12  13
HETATM   13  N2  UNL     1     -23.122 -17.263 -20.541  1.00  0.00    -0.342 N 
HETATM   14  N1  UNL     1     -23.123 -16.873 -21.711  1.00  0.00    -0.349 N 
ATOM     15  H12 UNL     1     -23.686 -17.366 -22.402  1.00  0.00     0.176 HD
ATOM     16  H11 UNL     1     -22.559 -16.062 -21.967  1.00  0.00     0.176 HD
ATOM     17  H2  UNL     1     -22.564 -16.781 -19.837  1.00  0.00     0.179 HD
ENDBRANCH  12  13
ENDBRANCH   1  12
TORSDOF 6
ENDMDL
