MODEL 1
REMARK VINA RESULT: -3.973694094      0.000      0.000
REMARK  5 active torsions:
REMARK  status: ('A' for Active; 'I' for Inactive)
REMARK    1  A    between atoms: N2_4  and  C1_6 
REMARK    2  A    between atoms: C1_6  and  N3_7 
REMARK    3  A    between atoms: C2_9  and  N4_10 
REMARK    4  A    between atoms: N4_10  and  C3_12 
REMARK    5  A    between atoms: C3_12  and  C4_13 
ROOT
HETATM    1  N3  UNL     1     -21.690 -17.362 -19.471  1.00  0.00    -0.369 N 
ATOM      2  H3  UNL     1     -21.604 -16.827 -20.335  1.00  0.00     0.161 HD
HETATM    3  C2  UNL     1     -20.653 -17.517 -18.752  1.00  0.00     0.172 C 
ENDROOT
BRANCH   3   4
HETATM    4  N4  UNL     1     -20.713 -18.248 -17.546  1.00  0.00    -0.384 N 
ATOM      5  H4  UNL     1     -21.404 -17.978 -16.847  1.00  0.00     0.160 HD
BRANCH   4   6
HETATM    6  C3  UNL     1     -19.836 -19.367 -17.256  1.00  0.00     0.155 C 
BRANCH   6   7
HETATM    7  C4  UNL     1     -18.490 -19.224 -17.883  1.00  0.00     0.194 A 
HETATM    8  N5  UNL     1     -18.021 -20.269 -18.757  1.00  0.00    -0.344 N 
HETATM    9  C5  UNL     1     -17.449 -20.171 -17.420  1.00  0.00     0.242 A 
ATOM     10  H5  UNL     1     -18.060 -20.739 -19.661  1.00  0.00     0.163 HD
HETATM   11  O1  UNL     1     -16.606 -20.728 -16.681  1.00  0.00    -0.271 OA
ENDBRANCH   6   7
ENDBRANCH   4   6
ENDBRANCH   3   4
BRANCH   1  12
HETATM   12  C1  UNL     1     -22.978 -17.901 -19.129  1.00  0.00     0.261 C 
BRANCH  12  13
HETATM   13  N2  UNL     1     -23.868 -17.913 -20.248  1.00  0.00    -0.325 N 
HETATM   14  N1  UNL     1     -23.503 -17.513 -21.351  1.00  0.00    -0.348 N 
ATOM     15  H12 UNL     1     -22.547 -17.171 -21.453  1.00  0.00     0.176 HD
ATOM     16  H11 UNL     1     -24.137 -17.522 -22.149  1.00  0.00     0.176 HD
ATOM     17  H2  UNL     1     -24.820 -18.259 -20.130  1.00  0.00     0.181 HD
ENDBRANCH  12  13
ENDBRANCH   1  12
TORSDOF 5
ENDMDL
MODEL 2
REMARK VINA RESULT: -3.738604773      2.963      5.802
REMARK  5 active torsions:
REMARK  status: ('A' for Active; 'I' for Inactive)
REMARK    1  A    between atoms: N2_4  and  C1_6 
REMARK    2  A    between atoms: C1_6  and  N3_7 
REMARK    3  A    between atoms: C2_9  and  N4_10 
REMARK    4  A    between atoms: N4_10  and  C3_12 
REMARK    5  A    between atoms: C3_12  and  C4_13 
ROOT
HETATM    1  N3  UNL     1     -19.617 -19.007 -17.385  1.00  0.00    -0.369 N 
ATOM      2  H3  UNL     1     -19.508 -19.521 -16.511  1.00  0.00     0.161 HD
HETATM    3  C2  UNL     1     -20.605 -18.214 -17.498  1.00  0.00     0.172 C 
ENDROOT
BRANCH   3   4
HETATM    4  N4  UNL     1     -20.807 -17.477 -18.685  1.00  0.00    -0.384 N 
ATOM      5  H4  UNL     1     -19.995 -17.245 -19.257  1.00  0.00     0.160 HD
BRANCH   4   6
HETATM    6  C3  UNL     1     -22.116 -17.036 -19.128  1.00  0.00     0.155 C 
BRANCH   6   7
HETATM    7  C4  UNL     1     -22.849 -18.082 -19.897  1.00  0.00     0.194 A 
HETATM    8  N5  UNL     1     -23.942 -17.679 -20.744  1.00  0.00    -0.344 N 
HETATM    9  C5  UNL     1     -24.248 -18.340 -19.482  1.00  0.00     0.242 A 
ATOM     10  H5  UNL     1     -24.268 -17.244 -21.607  1.00  0.00     0.163 HD
HETATM   11  O1  UNL     1     -25.223 -18.723 -18.798  1.00  0.00    -0.271 OA
ENDBRANCH   6   7
ENDBRANCH   4   6
ENDBRANCH   3   4
BRANCH   1  12
HETATM   12  C1  UNL     1     -18.646 -19.216 -18.424  1.00  0.00     0.261 C 
BRANCH  12  13
HETATM   13  N2  UNL     1     -17.412 -19.721 -17.910  1.00  0.00    -0.325 N 
HETATM   14  N1  UNL     1     -16.849 -20.676 -18.439  1.00  0.00    -0.348 N 
ATOM     15  H12 UNL     1     -17.283 -21.104 -19.257  1.00  0.00     0.176 HD
ATOM     16  H11 UNL     1     -15.969 -21.036 -18.072  1.00  0.00     0.176 HD
ATOM     17  H2  UNL     1     -16.991 -19.282 -17.091  1.00  0.00     0.181 HD
ENDBRANCH  12  13
ENDBRANCH   1  12
TORSDOF 5
ENDMDL
MODEL 3
REMARK VINA RESULT: -3.725657293      4.935      5.932
REMARK  5 active torsions:
REMARK  status: ('A' for Active; 'I' for Inactive)
REMARK    1  A    between atoms: N2_4  and  C1_6 
REMARK    2  A    between atoms: C1_6  and  N3_7 
REMARK    3  A    between atoms: C2_9  and  N4_10 
REMARK    4  A    between atoms: N4_10  and  C3_12 
REMARK    5  A    between atoms: C3_12  and  C4_13 
ROOT
HETATM    1  N3  UNL     1     -23.794 -17.971 -20.393  1.00  0.00    -0.369 N 
ATOM      2  H3  UNL     1     -24.307 -17.915 -21.272  1.00  0.00     0.161 HD
HETATM    3  C2  UNL     1     -24.325 -18.602 -19.425  1.00  0.00     0.172 C 
ENDROOT
BRANCH   3   4
HETATM    4  N4  UNL     1     -23.662 -18.710 -18.183  1.00  0.00    -0.384 N 
ATOM      5  H4  UNL     1     -22.832 -18.140 -18.024  1.00  0.00     0.160 HD
BRANCH   4   6
HETATM    6  C3  UNL     1     -24.107 -19.596 -17.124  1.00  0.00     0.155 C 
BRANCH   6   7
HETATM    7  C4  UNL     1     -25.093 -18.953 -16.209  1.00  0.00     0.194 A 
HETATM    8  N5  UNL     1     -25.836 -19.785 -15.297  1.00  0.00    -0.344 N 
HETATM    9  C5  UNL     1     -26.521 -19.253 -16.469  1.00  0.00     0.242 A 
ATOM     10  H5  UNL     1     -25.863 -20.344 -14.445  1.00  0.00     0.163 HD
HETATM   11  O1  UNL     1     -27.641 -19.262 -17.025  1.00  0.00    -0.271 OA
ENDBRANCH   6   7
ENDBRANCH   4   6
ENDBRANCH   3   4
BRANCH   1  12
HETATM   12  C1  UNL     1     -22.509 -17.331 -20.312  1.00  0.00     0.261 C 
BRANCH  12  13
HETATM   13  N2  UNL     1     -22.182 -16.631 -21.514  1.00  0.00    -0.325 N 
HETATM   14  N1  UNL     1     -23.062 -16.172 -22.238  1.00  0.00    -0.348 N 
ATOM     15  H12 UNL     1     -24.036 -16.299 -21.962  1.00  0.00     0.176 HD
ATOM     16  H11 UNL     1     -22.828 -15.673 -23.096  1.00  0.00     0.176 HD
ATOM     17  H2  UNL     1     -21.204 -16.512 -21.776  1.00  0.00     0.181 HD
ENDBRANCH  12  13
ENDBRANCH   1  12
TORSDOF 5
ENDMDL
MODEL 4
REMARK VINA RESULT: -3.725456409      2.953      3.386
REMARK  5 active torsions:
REMARK  status: ('A' for Active; 'I' for Inactive)
REMARK    1  A    between atoms: N2_4  and  C1_6 
REMARK    2  A    between atoms: C1_6  and  N3_7 
REMARK    3  A    between atoms: C2_9  and  N4_10 
REMARK    4  A    between atoms: N4_10  and  C3_12 
REMARK    5  A    between atoms: C3_12  and  C4_13 
ROOT
HETATM    1  N3  UNL     1     -23.786 -18.196 -20.272  1.00  0.00    -0.369 N 
ATOM      2  H3  UNL     1     -24.125 -18.469 -21.194  1.00  0.00     0.161 HD
HETATM    3  C2  UNL     1     -24.364 -18.681 -19.248  1.00  0.00     0.172 C 
ENDROOT
BRANCH   3   4
HETATM    4  N4  UNL     1     -23.937 -18.337 -17.948  1.00  0.00    -0.384 N 
ATOM      5  H4  UNL     1     -24.117 -17.391 -17.611  1.00  0.00     0.160 HD
BRANCH   4   6
HETATM    6  C3  UNL     1     -23.255 -19.266 -17.068  1.00  0.00     0.155 C 
BRANCH   6   7
HETATM    7  C4  UNL     1     -21.776 -19.082 -17.066  1.00  0.00     0.194 A 
HETATM    8  N5  UNL     1     -20.958 -20.050 -16.380  1.00  0.00    -0.344 N 
HETATM    9  C5  UNL     1     -21.159 -18.746 -15.761  1.00  0.00     0.242 A 
ATOM     10  H5  UNL     1     -20.540 -20.980 -16.350  1.00  0.00     0.163 HD
HETATM   11  O1  UNL     1     -20.842 -18.097 -14.739  1.00  0.00    -0.271 OA
ENDBRANCH   6   7
ENDBRANCH   4   6
ENDBRANCH   3   4
BRANCH   1  12
HETATM   12  C1  UNL     1     -22.678 -17.282 -20.198  1.00  0.00     0.261 C 
BRANCH  12  13
HETATM   13  N2  UNL     1     -22.282 -16.814 -21.489  1.00  0.00    -0.325 N 
HETATM   14  N1  UNL     1     -23.033 -16.119 -22.168  1.00  0.00    -0.348 N 
ATOM     15  H12 UNL     1     -23.950 -15.880 -21.790  1.00  0.00     0.176 HD
ATOM     16  H11 UNL     1     -22.750 -15.785 -23.089  1.00  0.00     0.176 HD
ATOM     17  H2  UNL     1     -21.362 -17.062 -21.853  1.00  0.00     0.181 HD
ENDBRANCH  12  13
ENDBRANCH   1  12
TORSDOF 5
ENDMDL
MODEL 5
REMARK VINA RESULT: -3.711574520     12.303     13.017
REMARK  5 active torsions:
REMARK  status: ('A' for Active; 'I' for Inactive)
REMARK    1  A    between atoms: N2_4  and  C1_6 
REMARK    2  A    between atoms: C1_6  and  N3_7 
REMARK    3  A    between atoms: C2_9  and  N4_10 
REMARK    4  A    between atoms: N4_10  and  C3_12 
REMARK    5  A    between atoms: C3_12  and  C4_13 
ROOT
HETATM    1  N3  UNL     1     -31.349 -12.477 -15.373  1.00  0.00    -0.369 N 
ATOM      2  H3  UNL     1     -31.264 -12.300 -16.374  1.00  0.00     0.161 HD
HETATM    3  C2  UNL     1     -31.316 -11.484 -14.580  1.00  0.00     0.172 C 
ENDROOT
BRANCH   3   4
HETATM    4  N4  UNL     1     -31.428 -11.669 -13.185  1.00  0.00    -0.384 N 
ATOM      5  H4  UNL     1     -32.316 -12.000 -12.809  1.00  0.00     0.160 HD
BRANCH   4   6
HETATM    6  C3  UNL     1     -30.338 -11.411 -12.264  1.00  0.00     0.155 C 
BRANCH   6   7
HETATM    7  C4  UNL     1     -29.164 -10.770 -12.922  1.00  0.00     0.194 A 
HETATM    8  N5  UNL     1     -27.971 -11.553 -13.124  1.00  0.00    -0.344 N 
HETATM    9  C5  UNL     1     -27.974 -10.548 -12.068  1.00  0.00     0.242 A 
ATOM     10  H5  UNL     1     -27.479 -12.284 -13.636  1.00  0.00     0.163 HD
HETATM   11  O1  UNL     1     -27.233 -10.071 -11.179  1.00  0.00    -0.271 OA
ENDBRANCH   6   7
ENDBRANCH   4   6
ENDBRANCH   3   4
BRANCH   1  12
HETATM   12  C1  UNL     1     -31.499 -13.838 -14.932  1.00  0.00     0.261 C 
BRANCH  12  13
HETATM   13  N2  UNL     1     -30.283 -14.578 -15.056  1.00  0.00    -0.325 N 
HETATM   14  N1  UNL     1     -29.417 -14.522 -14.186  1.00  0.00    -0.348 N 
ATOM     15  H12 UNL     1     -29.585 -13.934 -13.369  1.00  0.00     0.176 HD
ATOM     16  H11 UNL     1     -28.549 -15.050 -14.274  1.00  0.00     0.176 HD
ATOM     17  H2  UNL     1     -30.130 -15.161 -15.878  1.00  0.00     0.181 HD
ENDBRANCH  12  13
ENDBRANCH   1  12
TORSDOF 5
ENDMDL
