MODEL 1
REMARK VINA RESULT: -7.121115891      0.000      0.000
REMARK  11 active torsions:
REMARK  status: ('A' for Active; 'I' for Inactive)
REMARK    1  A    between atoms: C11_14  and  C12_15 
REMARK       I    between atoms: C12_15  and  N4_17 
REMARK    2  A    between atoms: N4_17  and  C13_19 
REMARK    3  A    between atoms: C13_19  and  C14_20 
REMARK    4  A    between atoms: C13_19  and  N8_30 
REMARK    5  A    between atoms: C14_20  and  C15_21 
REMARK    6  A    between atoms: C15_21  and  C16_22 
REMARK    7  A    between atoms: C16_22  and  C18_24 
REMARK    8  A    between atoms: C18_24  and  N5_25 
REMARK    9  A    between atoms: N8_30  and  C20_32 
REMARK   10  A    between atoms: C20_32  and  C21_33 
REMARK   11  A    between atoms: C21_33  and  C22_34 
ROOT
HETATM    1  C1  UNL     1      26.056   2.275  -1.208  1.00  0.00     0.228 C 
HETATM    2  N1  UNL     1      25.824   1.155  -1.428  1.00  0.00    -0.432 NA
HETATM    3  C2  UNL     1      25.511  -0.231  -1.688  1.00  0.00     0.103 C 
HETATM    4  C3  UNL     1      24.828  -0.864  -0.550  1.00  0.00     0.144 C 
HETATM    5  C4  UNL     1      25.528  -2.069   0.047  1.00  0.00     0.042 C 
HETATM    6  C5  UNL     1      26.877  -2.405  -0.331  1.00  0.00     0.133 C 
HETATM    7  N2  UNL     1      27.078  -3.318  -1.531  1.00  0.00    -0.320 N 
HETATM    8  C6  UNL     1      28.435  -3.174  -2.030  1.00  0.00     0.188 C 
HETATM    9  N3  UNL     1      28.844  -2.463  -3.101  1.00  0.00    -0.341 N 
HETATM   10  C7  UNL     1      28.617  -1.044  -3.247  1.00  0.00     0.135 C 
HETATM   11  C8  UNL     1      27.398  -0.936  -4.064  1.00  0.00     0.009 C 
HETATM   12  C9  UNL     1      27.807  -1.233  -5.522  1.00  0.00     0.013 C 
HETATM   13  C10 UNL     1      28.256  -2.713  -5.480  1.00  0.00     0.063 C 
HETATM   14  C11 UNL     1      29.248  -2.922  -4.351  1.00  0.00     0.080 C 
HETATM   15  C24 UNL     1      26.381   0.097  -3.900  1.00  0.00     0.048 C 
HETATM   16  C25 UNL     1      25.122  -0.329  -3.084  1.00  0.00    -0.011 C 
HETATM   17  C26 UNL     1      24.298  -1.360  -3.636  1.00  0.00    -0.016 C 
HETATM   18  C27 UNL     1      22.834  -1.080  -3.204  1.00  0.00     0.163 C 
HETATM   19  N9  UNL     1      22.599  -1.461  -1.852  1.00  0.00    -0.356 N 
ATOM     20  H9  UNL     1      21.784  -2.050  -1.680  1.00  0.00     0.162 HD
HETATM   21  C28 UNL     1      23.375  -1.110  -0.723  1.00  0.00     0.229 C 
HETATM   22  O2  UNL     1      22.709  -0.986   0.337  1.00  0.00    -0.273 OA
HETATM   23  C29 UNL     1      24.479  -2.803  -3.698  1.00  0.00     0.099 C 
HETATM   24  N10 UNL     1      24.763  -3.593  -2.564  1.00  0.00    -0.342 N 
ATOM     25  H10 UNL     1      23.920  -3.870  -2.060  1.00  0.00     0.167 HD
HETATM   26  C30 UNL     1      25.966  -4.102  -1.947  1.00  0.00     0.178 C 
HETATM   27  S1  UNL     1      25.761  -5.799  -1.777  1.00  0.00    -0.040 SA
ENDROOT
BRANCH  14  28
HETATM   28  C12 UNL     1      29.946  -4.181  -4.523  1.00  0.00     0.265 C 
HETATM   29  O1  UNL     1      31.193  -4.140  -4.823  1.00  0.00    -0.266 OA
HETATM   30  N4  UNL     1      29.419  -5.479  -4.393  1.00  0.00    -0.335 N 
ATOM     31  H4  UNL     1      28.436  -5.592  -4.144  1.00  0.00     0.164 HD
BRANCH  30  32
HETATM   32  C13 UNL     1      30.260  -6.704  -4.610  1.00  0.00     0.179 C 
BRANCH  32  33
HETATM   33  C14 UNL     1      29.329  -7.841  -4.622  1.00  0.00     0.047 C 
BRANCH  33  34
HETATM   34  C15 UNL     1      28.093  -7.724  -3.827  1.00  0.00     0.009 C 
BRANCH  34  35
HETATM   35  C16 UNL     1      28.083  -8.674  -2.634  1.00  0.00    -0.001 C 
HETATM   36  C17 UNL     1      26.806  -9.418  -2.468  1.00  0.00     0.011 C 
BRANCH  35  37
HETATM   37  C18 UNL     1      29.267  -9.608  -2.618  1.00  0.00     0.126 C 
BRANCH  37  38
HETATM   38  N5  UNL     1      29.672  -9.757  -1.208  1.00  0.00    -0.367 N 
HETATM   39  C19 UNL     1      30.304 -10.801  -0.812  1.00  0.00     0.196 C 
HETATM   40  N6  UNL     1      30.628 -11.835  -1.718  1.00  0.00    -0.067 NA
HETATM   41  N7  UNL     1      30.689 -10.931   0.546  1.00  0.00    -0.067 NA
ATOM     42  H5  UNL     1      29.447  -9.021  -0.539  1.00  0.00     0.161 HD
ENDBRANCH  37  38
ENDBRANCH  35  37
ENDBRANCH  34  35
ENDBRANCH  33  34
ENDBRANCH  32  33
BRANCH  32  43
HETATM   43  N8  UNL     1      31.236  -6.666  -3.616  1.00  0.00    -0.401 N 
ATOM     44  H8  UNL     1      31.006  -6.158  -2.762  1.00  0.00     0.155 HD
BRANCH  43  45
HETATM   45  C20 UNL     1      32.488  -7.255  -3.680  1.00  0.00     0.115 C 
BRANCH  45  46
HETATM   46  C21 UNL     1      32.627  -8.119  -2.379  1.00  0.00     0.019 C 
BRANCH  46  47
HETATM   47  C22 UNL     1      33.185  -9.463  -2.791  1.00  0.00    -0.003 C 
HETATM   48  C23 UNL     1      32.730  -9.913  -4.138  1.00  0.00     0.005 C 
ENDBRANCH  46  47
ENDBRANCH  45  46
ENDBRANCH  43  45
ENDBRANCH  32  43
ENDBRANCH  30  32
ENDBRANCH  14  28
TORSDOF 11
ENDMDL
MODEL 2
REMARK VINA RESULT: -7.087076810      0.831      1.020
REMARK  11 active torsions:
REMARK  status: ('A' for Active; 'I' for Inactive)
REMARK    1  A    between atoms: C11_14  and  C12_15 
REMARK       I    between atoms: C12_15  and  N4_17 
REMARK    2  A    between atoms: N4_17  and  C13_19 
REMARK    3  A    between atoms: C13_19  and  C14_20 
REMARK    4  A    between atoms: C13_19  and  N8_30 
REMARK    5  A    between atoms: C14_20  and  C15_21 
REMARK    6  A    between atoms: C15_21  and  C16_22 
REMARK    7  A    between atoms: C16_22  and  C18_24 
REMARK    8  A    between atoms: C18_24  and  N5_25 
REMARK    9  A    between atoms: N8_30  and  C20_32 
REMARK   10  A    between atoms: C20_32  and  C21_33 
REMARK   11  A    between atoms: C21_33  and  C22_34 
ROOT
HETATM    1  C1  UNL     1      26.029   2.290  -1.226  1.00  0.00     0.228 C 
HETATM    2  N1  UNL     1      25.796   1.172  -1.459  1.00  0.00    -0.432 NA
HETATM    3  C2  UNL     1      25.483  -0.210  -1.737  1.00  0.00     0.103 C 
HETATM    4  C3  UNL     1      24.773  -0.848  -0.617  1.00  0.00     0.144 C 
HETATM    5  C4  UNL     1      25.455  -2.061  -0.015  1.00  0.00     0.042 C 
HETATM    6  C5  UNL     1      26.810  -2.401  -0.368  1.00  0.00     0.133 C 
HETATM    7  N2  UNL     1      27.032  -3.306  -1.569  1.00  0.00    -0.320 N 
HETATM    8  C6  UNL     1      28.400  -3.164  -2.039  1.00  0.00     0.188 C 
HETATM    9  N3  UNL     1      28.835  -2.448  -3.096  1.00  0.00    -0.341 N 
HETATM   10  C7  UNL     1      28.617  -1.026  -3.236  1.00  0.00     0.135 C 
HETATM   11  C8  UNL     1      27.416  -0.906  -4.078  1.00  0.00     0.009 C 
HETATM   12  C9  UNL     1      27.854  -1.195  -5.529  1.00  0.00     0.013 C 
HETATM   13  C10 UNL     1      28.295  -2.678  -5.488  1.00  0.00     0.063 C 
HETATM   14  C11 UNL     1      29.262  -2.900  -4.341  1.00  0.00     0.080 C 
HETATM   15  C24 UNL     1      26.401   0.130  -3.927  1.00  0.00     0.048 C 
HETATM   16  C25 UNL     1      25.123  -0.297  -3.141  1.00  0.00    -0.011 C 
HETATM   17  C26 UNL     1      24.305  -1.319  -3.717  1.00  0.00    -0.016 C 
HETATM   18  C27 UNL     1      22.834  -1.036  -3.315  1.00  0.00     0.163 C 
HETATM   19  N9  UNL     1      22.569  -1.426  -1.971  1.00  0.00    -0.356 N 
ATOM     20  H9  UNL     1      21.748  -2.012  -1.820  1.00  0.00     0.162 HD
HETATM   21  C28 UNL     1      23.323  -1.087  -0.823  1.00  0.00     0.229 C 
HETATM   22  O2  UNL     1      22.635  -0.967   0.223  1.00  0.00    -0.273 OA
HETATM   23  C29 UNL     1      24.481  -2.763  -3.787  1.00  0.00     0.099 C 
HETATM   24  N10 UNL     1      24.738  -3.562  -2.653  1.00  0.00    -0.342 N 
ATOM     25  H10 UNL     1      23.883  -3.838  -2.169  1.00  0.00     0.167 HD
HETATM   26  C30 UNL     1      25.925  -4.081  -2.015  1.00  0.00     0.178 C 
HETATM   27  S1  UNL     1      25.709  -5.779  -1.862  1.00  0.00    -0.040 SA
ENDROOT
BRANCH  14  28
HETATM   28  C12 UNL     1      29.958  -4.161  -4.507  1.00  0.00     0.265 C 
HETATM   29  O1  UNL     1      31.203  -4.123  -4.817  1.00  0.00    -0.266 OA
HETATM   30  N4  UNL     1      29.430  -5.457  -4.362  1.00  0.00    -0.335 N 
ATOM     31  H4  UNL     1      28.450  -5.567  -4.105  1.00  0.00     0.164 HD
BRANCH  30  32
HETATM   32  C13 UNL     1      30.269  -6.684  -4.576  1.00  0.00     0.179 C 
BRANCH  32  33
HETATM   33  C14 UNL     1      29.339  -7.822  -4.556  1.00  0.00     0.047 C 
BRANCH  33  34
HETATM   34  C15 UNL     1      28.347  -7.878  -3.467  1.00  0.00     0.009 C 
BRANCH  34  35
HETATM   35  C16 UNL     1      28.263  -9.264  -2.835  1.00  0.00    -0.001 C 
HETATM   36  C17 UNL     1      29.418 -10.144  -3.161  1.00  0.00     0.011 C 
BRANCH  35  37
HETATM   37  C18 UNL     1      28.012  -9.218  -1.349  1.00  0.00     0.126 C 
BRANCH  37  38
HETATM   38  N5  UNL     1      27.479 -10.538  -0.967  1.00  0.00    -0.367 N 
HETATM   39  C19 UNL     1      28.042 -11.233  -0.046  1.00  0.00     0.196 C 
HETATM   40  N6  UNL     1      29.187 -10.751   0.623  1.00  0.00    -0.067 NA
HETATM   41  N7  UNL     1      27.519 -12.501   0.312  1.00  0.00    -0.067 NA
ATOM     42  H5  UNL     1      26.652 -10.904  -1.439  1.00  0.00     0.161 HD
ENDBRANCH  37  38
ENDBRANCH  35  37
ENDBRANCH  34  35
ENDBRANCH  33  34
ENDBRANCH  32  33
BRANCH  32  43
HETATM   43  N8  UNL     1      31.261  -6.632  -3.598  1.00  0.00    -0.401 N 
ATOM     44  H8  UNL     1      31.068  -6.064  -2.774  1.00  0.00     0.155 HD
BRANCH  43  45
HETATM   45  C20 UNL     1      32.485  -7.279  -3.643  1.00  0.00     0.115 C 
BRANCH  45  46
HETATM   46  C21 UNL     1      32.556  -8.162  -2.349  1.00  0.00     0.019 C 
BRANCH  46  47
HETATM   47  C22 UNL     1      32.962  -9.553  -2.778  1.00  0.00    -0.003 C 
HETATM   48  C23 UNL     1      32.857  -9.783  -4.247  1.00  0.00     0.005 C 
ENDBRANCH  46  47
ENDBRANCH  45  46
ENDBRANCH  43  45
ENDBRANCH  32  43
ENDBRANCH  30  32
ENDBRANCH  14  28
TORSDOF 11
ENDMDL
MODEL 3
REMARK VINA RESULT: -6.873726500      1.000      1.164
REMARK  11 active torsions:
REMARK  status: ('A' for Active; 'I' for Inactive)
REMARK    1  A    between atoms: C11_14  and  C12_15 
REMARK       I    between atoms: C12_15  and  N4_17 
REMARK    2  A    between atoms: N4_17  and  C13_19 
REMARK    3  A    between atoms: C13_19  and  C14_20 
REMARK    4  A    between atoms: C13_19  and  N8_30 
REMARK    5  A    between atoms: C14_20  and  C15_21 
REMARK    6  A    between atoms: C15_21  and  C16_22 
REMARK    7  A    between atoms: C16_22  and  C18_24 
REMARK    8  A    between atoms: C18_24  and  N5_25 
REMARK    9  A    between atoms: N8_30  and  C20_32 
REMARK   10  A    between atoms: C20_32  and  C21_33 
REMARK   11  A    between atoms: C21_33  and  C22_34 
ROOT
HETATM    1  C1  UNL     1      27.222   1.988  -0.861  1.00  0.00     0.228 C 
HETATM    2  N1  UNL     1      26.798   0.963  -1.217  1.00  0.00    -0.432 NA
HETATM    3  C2  UNL     1      26.251  -0.304  -1.643  1.00  0.00     0.103 C 
HETATM    4  C3  UNL     1      25.603  -1.023  -0.535  1.00  0.00     0.144 C 
HETATM    5  C4  UNL     1      26.169  -2.395  -0.225  1.00  0.00     0.042 C 
HETATM    6  C5  UNL     1      27.402  -2.840  -0.821  1.00  0.00     0.133 C 
HETATM    7  N2  UNL     1      27.333  -3.555  -2.161  1.00  0.00    -0.320 N 
HETATM    8  C6  UNL     1      28.635  -3.512  -2.805  1.00  0.00     0.188 C 
HETATM    9  N3  UNL     1      29.033  -2.692  -3.799  1.00  0.00    -0.341 N 
HETATM   10  C7  UNL     1      29.012  -1.250  -3.696  1.00  0.00     0.135 C 
HETATM   11  C8  UNL     1      27.744  -0.843  -4.322  1.00  0.00     0.009 C 
HETATM   12  C9  UNL     1      27.947  -0.940  -5.849  1.00  0.00     0.013 C 
HETATM   13  C10 UNL     1      28.164  -2.453  -6.091  1.00  0.00     0.063 C 
HETATM   14  C11 UNL     1      29.227  -2.982  -5.145  1.00  0.00     0.080 C 
HETATM   15  C24 UNL     1      26.922   0.274  -3.873  1.00  0.00     0.048 C 
HETATM   16  C25 UNL     1      25.706  -0.111  -2.975  1.00  0.00    -0.011 C 
HETATM   17  C26 UNL     1      24.679  -0.913  -3.566  1.00  0.00    -0.016 C 
HETATM   18  C27 UNL     1      23.330  -0.517  -2.911  1.00  0.00     0.163 C 
HETATM   19  N9  UNL     1      23.184  -1.086  -1.614  1.00  0.00    -0.356 N 
ATOM     20  H9  UNL     1      22.311  -1.581  -1.429  1.00  0.00     0.162 HD
HETATM   21  C28 UNL     1      24.119  -1.039  -0.555  1.00  0.00     0.229 C 
HETATM   22  O2  UNL     1      23.596  -1.008   0.589  1.00  0.00    -0.273 OA
HETATM   23  C29 UNL     1      24.629  -2.336  -3.870  1.00  0.00     0.099 C 
HETATM   24  N10 UNL     1      24.907  -3.337  -2.916  1.00  0.00    -0.342 N 
ATOM     25  H10 UNL     1      24.089  -3.580  -2.355  1.00  0.00     0.167 HD
HETATM   26  C30 UNL     1      26.076  -4.100  -2.545  1.00  0.00     0.178 C 
HETATM   27  S1  UNL     1      25.631  -5.759  -2.611  1.00  0.00    -0.040 SA
ENDROOT
BRANCH  14  28
HETATM   28  C12 UNL     1      29.701  -4.276  -5.596  1.00  0.00     0.265 C 
HETATM   29  O1  UNL     1      30.394  -4.318  -6.675  1.00  0.00    -0.266 OA
HETATM   30  N4  UNL     1      29.498  -5.526  -4.981  1.00  0.00    -0.335 N 
ATOM     31  H4  UNL     1      28.966  -5.570  -4.112  1.00  0.00     0.164 HD
BRANCH  30  32
HETATM   32  C13 UNL     1      30.042  -6.796  -5.567  1.00  0.00     0.179 C 
BRANCH  32  33
HETATM   33  C14 UNL     1      29.352  -7.893  -4.873  1.00  0.00     0.047 C 
BRANCH  33  34
HETATM   34  C15 UNL     1      28.744  -7.601  -3.562  1.00  0.00     0.009 C 
BRANCH  34  35
HETATM   35  C16 UNL     1      28.546  -8.861  -2.726  1.00  0.00    -0.001 C 
HETATM   36  C17 UNL     1      27.118  -9.215  -2.502  1.00  0.00     0.011 C 
BRANCH  35  37
HETATM   37  C18 UNL     1      29.327 -10.041  -3.247  1.00  0.00     0.126 C 
BRANCH  37  38
HETATM   38  N5  UNL     1      28.761 -11.242  -2.607  1.00  0.00    -0.367 N 
HETATM   39  C19 UNL     1      29.504 -12.036  -1.926  1.00  0.00     0.196 C 
HETATM   40  N6  UNL     1      30.884 -11.779  -1.774  1.00  0.00    -0.067 NA
HETATM   41  N7  UNL     1      28.947 -13.187  -1.315  1.00  0.00    -0.067 NA
ATOM     42  H5  UNL     1      27.766 -11.444  -2.706  1.00  0.00     0.161 HD
ENDBRANCH  37  38
ENDBRANCH  35  37
ENDBRANCH  34  35
ENDBRANCH  33  34
ENDBRANCH  32  33
BRANCH  32  43
HETATM   43  N8  UNL     1      31.426  -6.705  -5.434  1.00  0.00    -0.401 N 
ATOM     44  H8  UNL     1      31.955  -6.447  -6.267  1.00  0.00     0.155 HD
BRANCH  43  45
HETATM   45  C20 UNL     1      32.151  -6.932  -4.275  1.00  0.00     0.115 C 
BRANCH  45  46
HETATM   46  C21 UNL     1      33.035  -8.195  -4.557  1.00  0.00     0.019 C 
BRANCH  46  47
HETATM   47  C22 UNL     1      33.150  -8.961  -3.258  1.00  0.00    -0.003 C 
HETATM   48  C23 UNL     1      32.412  -8.333  -2.124  1.00  0.00     0.005 C 
ENDBRANCH  46  47
ENDBRANCH  45  46
ENDBRANCH  43  45
ENDBRANCH  32  43
ENDBRANCH  30  32
ENDBRANCH  14  28
TORSDOF 11
ENDMDL
MODEL 4
REMARK VINA RESULT: -6.699640292      2.452      3.224
REMARK  11 active torsions:
REMARK  status: ('A' for Active; 'I' for Inactive)
REMARK    1  A    between atoms: C11_14  and  C12_15 
REMARK       I    between atoms: C12_15  and  N4_17 
REMARK    2  A    between atoms: N4_17  and  C13_19 
REMARK    3  A    between atoms: C13_19  and  C14_20 
REMARK    4  A    between atoms: C13_19  and  N8_30 
REMARK    5  A    between atoms: C14_20  and  C15_21 
REMARK    6  A    between atoms: C15_21  and  C16_22 
REMARK    7  A    between atoms: C16_22  and  C18_24 
REMARK    8  A    between atoms: C18_24  and  N5_25 
REMARK    9  A    between atoms: N8_30  and  C20_32 
REMARK   10  A    between atoms: C20_32  and  C21_33 
REMARK   11  A    between atoms: C21_33  and  C22_34 
ROOT
HETATM    1  C1  UNL     1      30.272   2.171  -2.789  1.00  0.00     0.228 C 
HETATM    2  N1  UNL     1      29.352   1.517  -3.077  1.00  0.00    -0.432 NA
HETATM    3  C2  UNL     1      28.195   0.729  -3.433  1.00  0.00     0.103 C 
HETATM    4  C3  UNL     1      27.003   1.124  -2.667  1.00  0.00     0.144 C 
HETATM    5  C4  UNL     1      26.370   0.031  -1.829  1.00  0.00     0.042 C 
HETATM    6  C5  UNL     1      27.041  -1.227  -1.623  1.00  0.00     0.133 C 
HETATM    7  N2  UNL     1      26.801  -2.341  -2.630  1.00  0.00    -0.320 N 
HETATM    8  C6  UNL     1      27.868  -3.322  -2.535  1.00  0.00     0.188 C 
HETATM    9  N3  UNL     1      28.933  -3.459  -3.352  1.00  0.00    -0.341 N 
HETATM   10  C7  UNL     1      29.894  -2.406  -3.587  1.00  0.00     0.135 C 
HETATM   11  C8  UNL     1      29.449  -1.756  -4.830  1.00  0.00     0.009 C 
HETATM   12  C9  UNL     1      29.865  -2.681  -5.993  1.00  0.00     0.013 C 
HETATM   13  C10 UNL     1      29.020  -3.957  -5.762  1.00  0.00     0.063 C 
HETATM   14  C11 UNL     1      29.168  -4.424  -4.326  1.00  0.00     0.080 C 
HETATM   15  C24 UNL     1      29.558  -0.327  -5.101  1.00  0.00     0.048 C 
HETATM   16  C25 UNL     1      28.256   0.498  -4.866  1.00  0.00    -0.011 C 
HETATM   17  C26 UNL     1      27.130   0.204  -5.698  1.00  0.00    -0.016 C 
HETATM   18  C27 UNL     1      26.333   1.519  -5.902  1.00  0.00     0.163 C 
HETATM   19  N9  UNL     1      25.546   1.843  -4.760  1.00  0.00    -0.356 N 
ATOM     20  H9  UNL     1      24.563   2.059  -4.930  1.00  0.00     0.162 HD
HETATM   21  C28 UNL     1      25.980   1.896  -3.416  1.00  0.00     0.229 C 
HETATM   22  O2  UNL     1      25.385   2.759  -2.720  1.00  0.00    -0.273 OA
HETATM   23  C29 UNL     1      26.179  -0.897  -5.672  1.00  0.00     0.099 C 
HETATM   24  N10 UNL     1      25.460  -1.266  -4.515  1.00  0.00    -0.342 N 
ATOM     25  H10 UNL     1      24.606  -0.721  -4.396  1.00  0.00     0.167 HD
HETATM   26  C30 UNL     1      25.649  -2.233  -3.458  1.00  0.00     0.178 C 
HETATM   27  S1  UNL     1      24.210  -3.169  -3.375  1.00  0.00    -0.040 SA
ENDROOT
BRANCH  14  28
HETATM   28  C12 UNL     1      28.698  -5.789  -4.190  1.00  0.00     0.265 C 
HETATM   29  O1  UNL     1      27.532  -6.070  -4.645  1.00  0.00    -0.266 OA
HETATM   30  N4  UNL     1      29.379  -6.877  -3.612  1.00  0.00    -0.335 N 
ATOM     31  H4  UNL     1      30.317  -6.733  -3.239  1.00  0.00     0.164 HD
BRANCH  30  32
HETATM   32  C13 UNL     1      28.764  -8.244  -3.528  1.00  0.00     0.179 C 
BRANCH  32  33
HETATM   33  C14 UNL     1      28.300  -8.398  -2.142  1.00  0.00     0.047 C 
BRANCH  33  34
HETATM   34  C15 UNL     1      28.816  -9.543  -1.369  1.00  0.00     0.009 C 
BRANCH  34  35
HETATM   35  C16 UNL     1      27.706 -10.501  -0.948  1.00  0.00    -0.001 C 
HETATM   36  C17 UNL     1      26.428 -10.299  -1.683  1.00  0.00     0.011 C 
BRANCH  35  37
HETATM   37  C18 UNL     1      28.134 -11.947  -0.982  1.00  0.00     0.126 C 
BRANCH  37  38
HETATM   38  N5  UNL     1      27.167 -12.695  -0.157  1.00  0.00    -0.367 N 
HETATM   39  C19 UNL     1      27.507 -13.172   0.984  1.00  0.00     0.196 C 
HETATM   40  N6  UNL     1      28.817 -12.992   1.480  1.00  0.00    -0.067 NA
HETATM   41  N7  UNL     1      26.568 -13.889   1.767  1.00  0.00    -0.067 NA
ATOM     42  H5  UNL     1      26.216 -12.835  -0.498  1.00  0.00     0.161 HD
ENDBRANCH  37  38
ENDBRANCH  35  37
ENDBRANCH  34  35
ENDBRANCH  33  34
ENDBRANCH  32  33
BRANCH  32  43
HETATM   43  N8  UNL     1      29.742  -9.121  -3.993  1.00  0.00    -0.401 N 
ATOM     44  H8  UNL     1      29.470 -10.097  -4.109  1.00  0.00     0.155 HD
BRANCH  43  45
HETATM   45  C20 UNL     1      31.048  -8.790  -4.313  1.00  0.00     0.115 C 
BRANCH  45  46
HETATM   46  C21 UNL     1      31.956  -9.789  -3.516  1.00  0.00     0.019 C 
BRANCH  46  47
HETATM   47  C22 UNL     1      33.138  -9.004  -2.995  1.00  0.00    -0.003 C 
HETATM   48  C23 UNL     1      32.758  -7.865  -2.110  1.00  0.00     0.005 C 
ENDBRANCH  46  47
ENDBRANCH  45  46
ENDBRANCH  43  45
ENDBRANCH  32  43
ENDBRANCH  30  32
ENDBRANCH  14  28
TORSDOF 11
ENDMDL
MODEL 5
REMARK VINA RESULT: -6.680449535      1.865      2.360
REMARK  11 active torsions:
REMARK  status: ('A' for Active; 'I' for Inactive)
REMARK    1  A    between atoms: C11_14  and  C12_15 
REMARK       I    between atoms: C12_15  and  N4_17 
REMARK    2  A    between atoms: N4_17  and  C13_19 
REMARK    3  A    between atoms: C13_19  and  C14_20 
REMARK    4  A    between atoms: C13_19  and  N8_30 
REMARK    5  A    between atoms: C14_20  and  C15_21 
REMARK    6  A    between atoms: C15_21  and  C16_22 
REMARK    7  A    between atoms: C16_22  and  C18_24 
REMARK    8  A    between atoms: C18_24  and  N5_25 
REMARK    9  A    between atoms: N8_30  and  C20_32 
REMARK   10  A    between atoms: C20_32  and  C21_33 
REMARK   11  A    between atoms: C21_33  and  C22_34 
ROOT
HETATM    1  C1  UNL     1      29.440   2.495  -2.497  1.00  0.00     0.228 C 
HETATM    2  N1  UNL     1      28.663   1.658  -2.729  1.00  0.00    -0.432 NA
HETATM    3  C2  UNL     1      27.680   0.639  -3.010  1.00  0.00     0.103 C 
HETATM    4  C3  UNL     1      26.569   0.665  -2.046  1.00  0.00     0.144 C 
HETATM    5  C4  UNL     1      26.352  -0.614  -1.261  1.00  0.00     0.042 C 
HETATM    6  C5  UNL     1      27.322  -1.679  -1.298  1.00  0.00     0.133 C 
HETATM    7  N2  UNL     1      27.186  -2.734  -2.385  1.00  0.00    -0.320 N 
HETATM    8  C6  UNL     1      28.453  -3.425  -2.553  1.00  0.00     0.188 C 
HETATM    9  N3  UNL     1      29.374  -3.229  -3.519  1.00  0.00    -0.341 N 
HETATM   10  C7  UNL     1      30.012  -1.955  -3.761  1.00  0.00     0.135 C 
HETATM   11  C8  UNL     1      29.233  -1.339  -4.847  1.00  0.00     0.009 C 
HETATM   12  C9  UNL     1      29.657  -2.038  -6.155  1.00  0.00     0.013 C 
HETATM   13  C10 UNL     1      29.182  -3.498  -5.960  1.00  0.00     0.063 C 
HETATM   14  C11 UNL     1      29.665  -4.026  -4.622  1.00  0.00     0.080 C 
HETATM   15  C24 UNL     1      28.961   0.088  -4.963  1.00  0.00     0.048 C 
HETATM   16  C25 UNL     1      27.559   0.544  -4.455  1.00  0.00    -0.011 C 
HETATM   17  C26 UNL     1      26.413   0.048  -5.152  1.00  0.00    -0.016 C 
HETATM   18  C27 UNL     1      25.309   1.137  -5.089  1.00  0.00     0.163 C 
HETATM   19  N9  UNL     1      24.665   1.164  -3.819  1.00  0.00    -0.356 N 
ATOM     20  H9  UNL     1      23.645   1.144  -3.826  1.00  0.00     0.162 HD
HETATM   21  C28 UNL     1      25.287   1.216  -2.551  1.00  0.00     0.229 C 
HETATM   22  O2  UNL     1      24.629   1.847  -1.684  1.00  0.00    -0.273 OA
HETATM   23  C29 UNL     1      25.760  -1.253  -5.122  1.00  0.00     0.099 C 
HETATM   24  N10 UNL     1      25.345  -1.878  -3.927  1.00  0.00    -0.342 N 
ATOM     25  H10 UNL     1      24.418  -1.573  -3.629  1.00  0.00     0.167 HD
HETATM   26  C30 UNL     1      25.922  -2.849  -3.027  1.00  0.00     0.178 C 
HETATM   27  S1  UNL     1      24.773  -4.116  -2.855  1.00  0.00    -0.040 SA
ENDROOT
BRANCH  14  28
HETATM   28  C12 UNL     1      29.554  -5.471  -4.581  1.00  0.00     0.265 C 
HETATM   29  O1  UNL     1      30.228  -6.148  -5.438  1.00  0.00    -0.266 OA
HETATM   30  N4  UNL     1      28.785  -6.247  -3.695  1.00  0.00    -0.335 N 
ATOM     31  H4  UNL     1      28.231  -5.778  -2.978  1.00  0.00     0.164 HD
BRANCH  30  32
HETATM   32  C13 UNL     1      28.755  -7.746  -3.774  1.00  0.00     0.179 C 
BRANCH  32  33
HETATM   33  C14 UNL     1      27.496  -8.163  -3.139  1.00  0.00     0.047 C 
BRANCH  33  34
HETATM   34  C15 UNL     1      27.011  -7.372  -1.994  1.00  0.00     0.009 C 
BRANCH  34  35
HETATM   35  C16 UNL     1      27.028  -8.169  -0.694  1.00  0.00    -0.001 C 
HETATM   36  C17 UNL     1      25.788  -8.026   0.115  1.00  0.00     0.011 C 
BRANCH  35  37
HETATM   37  C18 UNL     1      27.382  -9.621  -0.901  1.00  0.00     0.126 C 
BRANCH  37  38
HETATM   38  N5  UNL     1      28.664  -9.848  -0.210  1.00  0.00    -0.367 N 
HETATM   39  C19 UNL     1      28.948 -10.996   0.288  1.00  0.00     0.196 C 
HETATM   40  N6  UNL     1      28.038 -12.071   0.187  1.00  0.00    -0.067 NA
HETATM   41  N7  UNL     1      30.185 -11.202   0.949  1.00  0.00    -0.067 NA
ATOM     42  H5  UNL     1      29.334  -9.084  -0.127  1.00  0.00     0.161 HD
ENDBRANCH  37  38
ENDBRANCH  35  37
ENDBRANCH  34  35
ENDBRANCH  33  34
ENDBRANCH  32  33
BRANCH  32  43
HETATM   43  N8  UNL     1      29.951  -8.173  -3.200  1.00  0.00    -0.401 N 
ATOM     44  H8  UNL     1      30.442  -7.506  -2.605  1.00  0.00     0.155 HD
BRANCH  43  45
HETATM   45  C20 UNL     1      30.535  -9.419  -3.363  1.00  0.00     0.115 C 
BRANCH  45  46
HETATM   46  C21 UNL     1      31.609  -9.546  -2.229  1.00  0.00     0.019 C 
BRANCH  46  47
HETATM   47  C22 UNL     1      32.964  -9.591  -2.898  1.00  0.00    -0.003 C 
HETATM   48  C23 UNL     1      32.906  -9.927  -4.349  1.00  0.00     0.005 C 
ENDBRANCH  46  47
ENDBRANCH  45  46
ENDBRANCH  43  45
ENDBRANCH  32  43
ENDBRANCH  30  32
ENDBRANCH  14  28
TORSDOF 11
ENDMDL
