MODEL 1
REMARK VINA RESULT: -8.373612777      0.000      0.000
REMARK  13 active torsions:
REMARK  status: ('A' for Active; 'I' for Inactive)
REMARK    1  A    between atoms: C2_2  and  C4_4 
REMARK    2  A    between atoms: C4_4  and  C5_5 
REMARK    3  A    between atoms: C4_4  and  N9_40 
REMARK    4  A    between atoms: C5_5  and  N1_6 
REMARK    5  A    between atoms: N1_6  and  C6_8 
REMARK    6  A    between atoms: C6_8  and  C14_20 
REMARK       I    between atoms: N3_15  and  C13_17 
REMARK    7  A    between atoms: C14_20  and  N5_22 
REMARK    8  A    between atoms: N5_22  and  C16_24 
REMARK    9  A    between atoms: C16_24  and  C17_28 
REMARK   10  A    between atoms: C17_28  and  N7_29 
REMARK       I    between atoms: N7_29  and  C18_31 
REMARK   11  A    between atoms: C18_31  and  C19_33 
REMARK   12  A    between atoms: C19_33  and  N8_35 
REMARK       I    between atoms: N8_35  and  C21_37 
REMARK       I    between atoms: N9_40  and  C23_42 
REMARK   13  A    between atoms: C23_42  and  C24_44 
ROOT
HETATM    1  C6  UNL     1      29.891  -8.166  -3.187  1.00  0.00     0.089 C 
HETATM    2  C7  UNL     1      30.954  -8.971  -3.144  1.00  0.00     0.340 C 
HETATM    3  N2  UNL     1      30.990 -10.358  -2.819  1.00  0.00    -0.018 N 
HETATM    4  C8  UNL     1      30.763 -10.642  -1.428  1.00  0.00     0.281 C 
HETATM    5  C9  UNL     1      30.169 -11.211  -3.617  1.00  0.00     0.281 C 
HETATM    6  C10 UNL     1      32.357 -10.784  -3.113  1.00  0.00     0.274 C 
HETATM    7  C11 UNL     1      33.172  -9.558  -2.894  1.00  0.00     0.285 C 
HETATM    8  N3  UNL     1      32.270  -8.510  -3.399  1.00  0.00     0.065 N 
HETATM    9  C12 UNL     1      32.641  -7.328  -2.637  1.00  0.00     0.294 C 
HETATM   10  C13 UNL     1      32.611  -8.391  -4.761  1.00  0.00     0.434 C 
HETATM   11  N4  UNL     1      33.561  -7.433  -5.167  1.00  0.00    -0.033 NA
HETATM   12  O1  UNL     1      32.079  -9.126  -5.607  1.00  0.00    -0.242 OA
ENDROOT
BRANCH   1  13
HETATM   13  N1  UNL     1      29.921  -6.779  -3.527  1.00  0.00    -0.386 N 
ATOM     14  H1  UNL     1      30.042  -6.111  -2.765  1.00  0.00     0.159 HD
BRANCH  13  15
HETATM   15  C5  UNL     1      29.797  -6.257  -4.843  1.00  0.00     0.149 C 
BRANCH  15  16
HETATM   16  C4  UNL     1      29.462  -4.838  -4.984  1.00  0.00     0.130 C 
BRANCH  16  17
HETATM   17  C2  UNL     1      30.337  -3.940  -5.733  1.00  0.00    -0.069 C 
HETATM   18  C1  UNL     1      31.425  -3.422  -5.141  1.00  0.00     0.016 C 
HETATM   19  C3  UNL     1      30.124  -3.517  -7.148  1.00  0.00     0.044 C 
ENDBRANCH  16  17
BRANCH  16  20
HETATM   20  N9  UNL     1      29.175  -4.132  -3.708  1.00  0.00    -0.347 N 
HETATM   21  C23 UNL     1      27.845  -3.816  -3.358  1.00  0.00     0.253 C 
HETATM   22  O4  UNL     1      26.910  -4.163  -4.190  1.00  0.00    -0.268 OA
ATOM     23  H9  UNL     1      29.941  -3.875  -3.085  1.00  0.00     0.163 HD
BRANCH  21  24
HETATM   24  C24 UNL     1      27.388  -3.139  -2.180  1.00  0.00     0.043 A 
HETATM   25  C25 UNL     1      27.081  -3.773  -0.997  1.00  0.00    -0.045 A 
HETATM   26  C26 UNL     1      27.076  -5.260  -0.828  1.00  0.00     0.049 C 
HETATM   27  C27 UNL     1      26.702  -3.072   0.146  1.00  0.00     0.014 A 
HETATM   28  C28 UNL     1      26.626  -1.700   0.106  1.00  0.00    -0.061 A 
HETATM   29  C29 UNL     1      26.222  -0.907   1.310  1.00  0.00     0.048 C 
HETATM   30  C30 UNL     1      26.930  -1.085  -1.070  1.00  0.00     0.014 A 
HETATM   31  C31 UNL     1      27.309  -1.735  -2.221  1.00  0.00    -0.045 A 
HETATM   32  C32 UNL     1      27.634  -0.951  -3.445  1.00  0.00     0.049 C 
ENDBRANCH  21  24
ENDBRANCH  16  20
ENDBRANCH  15  16
ENDBRANCH  13  15
ENDBRANCH   1  13
BRANCH   1  33
HETATM   33  C14 UNL     1      28.517  -8.652  -2.870  1.00  0.00     0.132 C 
HETATM   34  C15 UNL     1      27.433  -7.817  -3.561  1.00  0.00     0.039 C 
BRANCH  33  35
HETATM   35  N5  UNL     1      28.233  -8.577  -1.453  1.00  0.00    -0.369 N 
ATOM     36  H5  UNL     1      28.785  -7.910  -0.913  1.00  0.00     0.161 HD
BRANCH  35  37
HETATM   37  C16 UNL     1      27.276  -9.326  -0.736  1.00  0.00     0.089 C 
HETATM   38  N6  UNL     1      26.568  -8.708   0.154  1.00  0.00    -0.388 N 
ATOM     39  H62 UNL     1      26.727  -7.712   0.311  1.00  0.00     0.157 HD
ATOM     40  H61 UNL     1      25.876  -9.249   0.672  1.00  0.00     0.157 HD
BRANCH  37  41
HETATM   41  C17 UNL     1      27.045 -10.778  -0.966  1.00  0.00     0.198 C 
BRANCH  41  42
HETATM   42  N7  UNL     1      27.596 -11.595   0.065  1.00  0.00    -0.352 N 
HETATM   43  C18 UNL     1      28.225 -12.821  -0.261  1.00  0.00     0.240 C 
HETATM   44  O2  UNL     1      28.294 -13.173  -1.471  1.00  0.00    -0.271 OA
ATOM     45  H7  UNL     1      27.538 -11.295   1.038  1.00  0.00     0.162 HD
BRANCH  43  46
HETATM   46  C19 UNL     1      28.808 -13.718   0.771  1.00  0.00     0.172 C 
HETATM   47  C20 UNL     1      27.685 -14.529   1.448  1.00  0.00     0.042 C 
BRANCH  46  48
HETATM   48  N8  UNL     1      29.664 -14.672   0.148  1.00  0.00    -0.349 N 
HETATM   49  C21 UNL     1      31.074 -14.533   0.179  1.00  0.00     0.214 C 
HETATM   50  C22 UNL     1      31.913 -15.573  -0.493  1.00  0.00     0.117 C 
HETATM   51  O3  UNL     1      31.575 -13.536   0.774  1.00  0.00    -0.274 OA
ATOM     52  H8  UNL     1      29.252 -15.473  -0.331  1.00  0.00     0.163 HD
ENDBRANCH  46  48
ENDBRANCH  43  46
ENDBRANCH  41  42
ENDBRANCH  37  41
ENDBRANCH  35  37
ENDBRANCH  33  35
ENDBRANCH   1  33
TORSDOF 13
ENDMDL
MODEL 2
REMARK VINA RESULT: -8.112247847      2.277      8.936
REMARK  13 active torsions:
REMARK  status: ('A' for Active; 'I' for Inactive)
REMARK    1  A    between atoms: C2_2  and  C4_4 
REMARK    2  A    between atoms: C4_4  and  C5_5 
REMARK    3  A    between atoms: C4_4  and  N9_40 
REMARK    4  A    between atoms: C5_5  and  N1_6 
REMARK    5  A    between atoms: N1_6  and  C6_8 
REMARK    6  A    between atoms: C6_8  and  C14_20 
REMARK       I    between atoms: N3_15  and  C13_17 
REMARK    7  A    between atoms: C14_20  and  N5_22 
REMARK    8  A    between atoms: N5_22  and  C16_24 
REMARK    9  A    between atoms: C16_24  and  C17_28 
REMARK   10  A    between atoms: C17_28  and  N7_29 
REMARK       I    between atoms: N7_29  and  C18_31 
REMARK   11  A    between atoms: C18_31  and  C19_33 
REMARK   12  A    between atoms: C19_33  and  N8_35 
REMARK       I    between atoms: N8_35  and  C21_37 
REMARK       I    between atoms: N9_40  and  C23_42 
REMARK   13  A    between atoms: C23_42  and  C24_44 
ROOT
HETATM    1  C6  UNL     1      30.272 -10.095  -1.828  1.00  0.00     0.089 C 
HETATM    2  C7  UNL     1      30.725  -9.429  -2.893  1.00  0.00     0.340 C 
HETATM    3  N2  UNL     1      30.036  -8.459  -3.676  1.00  0.00    -0.018 N 
HETATM    4  C8  UNL     1      28.993  -9.002  -4.503  1.00  0.00     0.281 C 
HETATM    5  C9  UNL     1      29.538  -7.322  -2.970  1.00  0.00     0.281 C 
HETATM    6  C10 UNL     1      31.045  -7.914  -4.583  1.00  0.00     0.274 C 
HETATM    7  C11 UNL     1      32.001  -9.038  -4.775  1.00  0.00     0.285 C 
HETATM    8  N3  UNL     1      32.018  -9.644  -3.434  1.00  0.00     0.065 N 
HETATM    9  C12 UNL     1      32.330 -11.042  -3.683  1.00  0.00     0.294 C 
HETATM   10  C13 UNL     1      33.065  -8.978  -2.768  1.00  0.00     0.434 C 
HETATM   11  N4  UNL     1      34.362  -9.529  -2.770  1.00  0.00    -0.033 NA
HETATM   12  O1  UNL     1      32.853  -7.907  -2.179  1.00  0.00    -0.242 OA
ENDROOT
BRANCH   1  13
HETATM   13  N1  UNL     1      31.018 -11.057  -1.081  1.00  0.00    -0.386 N 
ATOM     14  H1  UNL     1      31.867 -10.735  -0.616  1.00  0.00     0.159 HD
BRANCH  13  15
HETATM   15  C5  UNL     1      30.671 -12.427  -0.935  1.00  0.00     0.149 C 
BRANCH  15  16
HETATM   16  C4  UNL     1      31.152 -13.129   0.257  1.00  0.00     0.130 C 
BRANCH  16  17
HETATM   17  C2  UNL     1      31.965 -14.336   0.131  1.00  0.00    -0.069 C 
HETATM   18  C1  UNL     1      32.833 -14.659   1.102  1.00  0.00     0.016 C 
HETATM   19  C3  UNL     1      31.927 -15.278  -1.026  1.00  0.00     0.044 C 
ENDBRANCH  16  17
BRANCH  16  20
HETATM   20  N9  UNL     1      30.101 -13.467   1.252  1.00  0.00    -0.347 N 
HETATM   21  C23 UNL     1      28.979 -14.232   0.865  1.00  0.00     0.253 C 
HETATM   22  O4  UNL     1      28.914 -14.611  -0.375  1.00  0.00    -0.268 OA
ATOM     23  H9  UNL     1      30.191 -13.146   2.216  1.00  0.00     0.163 HD
BRANCH  21  24
HETATM   24  C24 UNL     1      27.877 -14.643   1.683  1.00  0.00     0.043 A 
HETATM   25  C25 UNL     1      27.930 -15.687   2.581  1.00  0.00    -0.045 A 
HETATM   26  C26 UNL     1      29.110 -16.594   2.730  1.00  0.00     0.049 C 
HETATM   27  C27 UNL     1      26.855 -16.014   3.406  1.00  0.00     0.014 A 
HETATM   28  C28 UNL     1      25.696 -15.280   3.331  1.00  0.00    -0.061 A 
HETATM   29  C29 UNL     1      24.516 -15.597   4.197  1.00  0.00     0.048 C 
HETATM   30  C30 UNL     1      25.655 -14.253   2.440  1.00  0.00     0.014 A 
HETATM   31  C31 UNL     1      26.689 -13.893   1.607  1.00  0.00    -0.045 A 
HETATM   32  C32 UNL     1      26.533 -12.735   0.683  1.00  0.00     0.049 C 
ENDBRANCH  21  24
ENDBRANCH  16  20
ENDBRANCH  15  16
ENDBRANCH  13  15
ENDBRANCH   1  13
BRANCH   1  33
HETATM   33  C14 UNL     1      28.893  -9.896  -1.297  1.00  0.00     0.132 C 
HETATM   34  C15 UNL     1      28.789 -10.246   0.192  1.00  0.00     0.039 C 
BRANCH  33  35
HETATM   35  N5  UNL     1      27.930 -10.737  -1.972  1.00  0.00    -0.369 N 
ATOM     36  H5  UNL     1      28.283 -11.612  -2.360  1.00  0.00     0.161 HD
BRANCH  35  37
HETATM   37  C16 UNL     1      26.554 -10.480  -2.153  1.00  0.00     0.089 C 
HETATM   38  N6  UNL     1      25.910 -11.207  -3.008  1.00  0.00    -0.388 N 
ATOM     39  H62 UNL     1      26.413 -11.931  -3.523  1.00  0.00     0.157 HD
ATOM     40  H61 UNL     1      24.916 -11.021  -3.139  1.00  0.00     0.157 HD
BRANCH  37  41
HETATM   41  C17 UNL     1      25.821  -9.424  -1.402  1.00  0.00     0.198 C 
BRANCH  41  42
HETATM   42  N7  UNL     1      25.937  -8.137  -2.004  1.00  0.00    -0.352 N 
HETATM   43  C18 UNL     1      26.454  -7.049  -1.260  1.00  0.00     0.240 C 
HETATM   44  O2  UNL     1      26.815  -7.238  -0.065  1.00  0.00    -0.271 OA
ATOM     45  H7  UNL     1      25.647  -7.999  -2.972  1.00  0.00     0.162 HD
BRANCH  43  46
HETATM   46  C19 UNL     1      26.588  -5.683  -1.832  1.00  0.00     0.172 C 
HETATM   47  C20 UNL     1      25.408  -5.401  -2.783  1.00  0.00     0.042 C 
BRANCH  46  48
HETATM   48  N8  UNL     1      26.495  -4.717  -0.789  1.00  0.00    -0.349 N 
HETATM   49  C21 UNL     1      27.296  -3.547  -0.791  1.00  0.00     0.214 C 
HETATM   50  C22 UNL     1      27.145  -2.572   0.334  1.00  0.00     0.117 C 
HETATM   51  O3  UNL     1      28.108  -3.366  -1.741  1.00  0.00    -0.274 OA
ATOM     52  H8  UNL     1      25.838  -4.870  -0.024  1.00  0.00     0.163 HD
ENDBRANCH  46  48
ENDBRANCH  43  46
ENDBRANCH  41  42
ENDBRANCH  37  41
ENDBRANCH  35  37
ENDBRANCH  33  35
ENDBRANCH   1  33
TORSDOF 13
ENDMDL
MODEL 3
REMARK VINA RESULT: -8.108779116      1.099      2.136
REMARK  13 active torsions:
REMARK  status: ('A' for Active; 'I' for Inactive)
REMARK    1  A    between atoms: C2_2  and  C4_4 
REMARK    2  A    between atoms: C4_4  and  C5_5 
REMARK    3  A    between atoms: C4_4  and  N9_40 
REMARK    4  A    between atoms: C5_5  and  N1_6 
REMARK    5  A    between atoms: N1_6  and  C6_8 
REMARK    6  A    between atoms: C6_8  and  C14_20 
REMARK       I    between atoms: N3_15  and  C13_17 
REMARK    7  A    between atoms: C14_20  and  N5_22 
REMARK    8  A    between atoms: N5_22  and  C16_24 
REMARK    9  A    between atoms: C16_24  and  C17_28 
REMARK   10  A    between atoms: C17_28  and  N7_29 
REMARK       I    between atoms: N7_29  and  C18_31 
REMARK   11  A    between atoms: C18_31  and  C19_33 
REMARK   12  A    between atoms: C19_33  and  N8_35 
REMARK       I    between atoms: N8_35  and  C21_37 
REMARK       I    between atoms: N9_40  and  C23_42 
REMARK   13  A    between atoms: C23_42  and  C24_44 
ROOT
HETATM    1  C6  UNL     1      29.899  -8.125  -3.250  1.00  0.00     0.089 C 
HETATM    2  C7  UNL     1      30.946  -8.950  -3.175  1.00  0.00     0.340 C 
HETATM    3  N2  UNL     1      30.946 -10.337  -2.852  1.00  0.00    -0.018 N 
HETATM    4  C8  UNL     1      30.671 -10.619  -1.469  1.00  0.00     0.281 C 
HETATM    5  C9  UNL     1      30.135 -11.174  -3.677  1.00  0.00     0.281 C 
HETATM    6  C10 UNL     1      32.314 -10.788  -3.104  1.00  0.00     0.274 C 
HETATM    7  C11 UNL     1      33.144  -9.577  -2.857  1.00  0.00     0.285 C 
HETATM    8  N3  UNL     1      32.278  -8.512  -3.389  1.00  0.00     0.065 N 
HETATM    9  C12 UNL     1      32.646  -7.338  -2.614  1.00  0.00     0.294 C 
HETATM   10  C13 UNL     1      32.663  -8.397  -4.739  1.00  0.00     0.434 C 
HETATM   11  N4  UNL     1      33.642  -7.456  -5.114  1.00  0.00    -0.033 NA
HETATM   12  O1  UNL     1      32.144  -9.122  -5.603  1.00  0.00    -0.242 OA
ENDROOT
BRANCH   1  13
HETATM   13  N1  UNL     1      29.965  -6.739  -3.587  1.00  0.00    -0.386 N 
ATOM     14  H1  UNL     1      30.136  -6.078  -2.828  1.00  0.00     0.159 HD
BRANCH  13  15
HETATM   15  C5  UNL     1      29.812  -6.206  -4.896  1.00  0.00     0.149 C 
BRANCH  15  16
HETATM   16  C4  UNL     1      29.505  -4.780  -5.020  1.00  0.00     0.130 C 
BRANCH  16  17
HETATM   17  C2  UNL     1      30.379  -3.896  -5.787  1.00  0.00    -0.069 C 
HETATM   18  C1  UNL     1      31.374  -3.241  -5.168  1.00  0.00     0.016 C 
HETATM   19  C3  UNL     1      30.261  -3.634  -7.252  1.00  0.00     0.044 C 
ENDBRANCH  16  17
BRANCH  16  20
HETATM   20  N9  UNL     1      29.269  -4.075  -3.732  1.00  0.00    -0.347 N 
HETATM   21  C23 UNL     1      27.961  -3.695  -3.364  1.00  0.00     0.253 C 
HETATM   22  O4  UNL     1      27.001  -3.982  -4.188  1.00  0.00    -0.268 OA
ATOM     23  H9  UNL     1      30.054  -3.866  -3.115  1.00  0.00     0.163 HD
BRANCH  21  24
HETATM   24  C24 UNL     1      27.552  -3.010  -2.173  1.00  0.00     0.043 A 
HETATM   25  C25 UNL     1      27.534  -1.639  -2.040  1.00  0.00    -0.045 A 
HETATM   26  C26 UNL     1      28.049  -0.697  -3.081  1.00  0.00     0.049 C 
HETATM   27  C27 UNL     1      27.067  -1.010  -0.887  1.00  0.00     0.014 A 
HETATM   28  C28 UNL     1      26.608  -1.770   0.162  1.00  0.00    -0.061 A 
HETATM   29  C29 UNL     1      26.099  -1.136   1.419  1.00  0.00     0.048 C 
HETATM   30  C30 UNL     1      26.632  -3.123   0.019  1.00  0.00     0.014 A 
HETATM   31  C31 UNL     1      27.082  -3.787  -1.099  1.00  0.00    -0.045 A 
HETATM   32  C32 UNL     1      27.044  -5.276  -1.146  1.00  0.00     0.049 C 
ENDBRANCH  21  24
ENDBRANCH  16  20
ENDBRANCH  15  16
ENDBRANCH  13  15
ENDBRANCH   1  13
BRANCH   1  33
HETATM   33  C14 UNL     1      28.508  -8.586  -2.977  1.00  0.00     0.132 C 
HETATM   34  C15 UNL     1      27.461  -7.733  -3.703  1.00  0.00     0.039 C 
BRANCH  33  35
HETATM   35  N5  UNL     1      28.180  -8.504  -1.570  1.00  0.00    -0.369 N 
ATOM     36  H5  UNL     1      28.689  -7.809  -1.024  1.00  0.00     0.161 HD
BRANCH  35  37
HETATM   37  C16 UNL     1      27.232  -9.281  -0.871  1.00  0.00     0.089 C 
HETATM   38  N6  UNL     1      26.594  -8.721   0.106  1.00  0.00    -0.388 N 
ATOM     39  H62 UNL     1      26.798  -7.749   0.340  1.00  0.00     0.157 HD
ATOM     40  H61 UNL     1      25.909  -9.282   0.612  1.00  0.00     0.157 HD
BRANCH  37  41
HETATM   41  C17 UNL     1      26.935 -10.699  -1.212  1.00  0.00     0.198 C 
BRANCH  41  42
HETATM   42  N7  UNL     1      27.084 -11.578  -0.099  1.00  0.00    -0.352 N 
HETATM   43  C18 UNL     1      27.804 -12.788  -0.242  1.00  0.00     0.240 C 
HETATM   44  O2  UNL     1      28.315 -13.070  -1.361  1.00  0.00    -0.271 OA
ATOM     45  H7  UNL     1      26.670 -11.334   0.801  1.00  0.00     0.162 HD
BRANCH  43  46
HETATM   46  C19 UNL     1      27.983 -13.747   0.880  1.00  0.00     0.172 C 
HETATM   47  C20 UNL     1      29.226 -13.355   1.705  1.00  0.00     0.042 C 
BRANCH  46  48
HETATM   48  N8  UNL     1      26.874 -13.656   1.769  1.00  0.00    -0.349 N 
HETATM   49  C21 UNL     1      26.508 -14.738   2.609  1.00  0.00     0.214 C 
HETATM   50  C22 UNL     1      25.333 -14.574   3.521  1.00  0.00     0.117 C 
HETATM   51  O3  UNL     1      27.184 -15.804   2.559  1.00  0.00    -0.274 OA
ATOM     52  H8  UNL     1      26.331 -12.793   1.803  1.00  0.00     0.163 HD
ENDBRANCH  46  48
ENDBRANCH  43  46
ENDBRANCH  41  42
ENDBRANCH  37  41
ENDBRANCH  35  37
ENDBRANCH  33  35
ENDBRANCH   1  33
TORSDOF 13
ENDMDL
MODEL 4
REMARK VINA RESULT: -8.100729639      1.113      1.726
REMARK  13 active torsions:
REMARK  status: ('A' for Active; 'I' for Inactive)
REMARK    1  A    between atoms: C2_2  and  C4_4 
REMARK    2  A    between atoms: C4_4  and  C5_5 
REMARK    3  A    between atoms: C4_4  and  N9_40 
REMARK    4  A    between atoms: C5_5  and  N1_6 
REMARK    5  A    between atoms: N1_6  and  C6_8 
REMARK    6  A    between atoms: C6_8  and  C14_20 
REMARK       I    between atoms: N3_15  and  C13_17 
REMARK    7  A    between atoms: C14_20  and  N5_22 
REMARK    8  A    between atoms: N5_22  and  C16_24 
REMARK    9  A    between atoms: C16_24  and  C17_28 
REMARK   10  A    between atoms: C17_28  and  N7_29 
REMARK       I    between atoms: N7_29  and  C18_31 
REMARK   11  A    between atoms: C18_31  and  C19_33 
REMARK   12  A    between atoms: C19_33  and  N8_35 
REMARK       I    between atoms: N8_35  and  C21_37 
REMARK       I    between atoms: N9_40  and  C23_42 
REMARK   13  A    between atoms: C23_42  and  C24_44 
ROOT
HETATM    1  C6  UNL     1      29.948  -8.116  -3.231  1.00  0.00     0.089 C 
HETATM    2  C7  UNL     1      30.958  -8.988  -3.178  1.00  0.00     0.340 C 
HETATM    3  N2  UNL     1      30.896 -10.380  -2.881  1.00  0.00    -0.018 N 
HETATM    4  C8  UNL     1      30.615 -10.676  -1.503  1.00  0.00     0.281 C 
HETATM    5  C9  UNL     1      30.045 -11.164  -3.718  1.00  0.00     0.281 C 
HETATM    6  C10 UNL     1      32.241 -10.887  -3.150  1.00  0.00     0.274 C 
HETATM    7  C11 UNL     1      33.126  -9.720  -2.885  1.00  0.00     0.285 C 
HETATM    8  N3  UNL     1      32.307  -8.607  -3.391  1.00  0.00     0.065 N 
HETATM    9  C12 UNL     1      32.731  -7.466  -2.596  1.00  0.00     0.294 C 
HETATM   10  C13 UNL     1      32.690  -8.484  -4.741  1.00  0.00     0.434 C 
HETATM   11  N4  UNL     1      33.709  -7.581  -5.103  1.00  0.00    -0.033 NA
HETATM   12  O1  UNL     1      32.134  -9.167  -5.615  1.00  0.00    -0.242 OA
ENDROOT
BRANCH   1  13
HETATM   13  N1  UNL     1      30.076  -6.728  -3.541  1.00  0.00    -0.386 N 
ATOM     14  H1  UNL     1      30.226  -6.084  -2.764  1.00  0.00     0.159 HD
BRANCH  13  15
HETATM   15  C5  UNL     1      30.009  -6.172  -4.848  1.00  0.00     0.149 C 
BRANCH  15  16
HETATM   16  C4  UNL     1      29.582  -4.777  -4.974  1.00  0.00     0.130 C 
BRANCH  16  17
HETATM   17  C2  UNL     1      30.389  -3.818  -5.722  1.00  0.00    -0.069 C 
HETATM   18  C1  UNL     1      31.319  -3.089  -5.085  1.00  0.00     0.016 C 
HETATM   19  C3  UNL     1      30.269  -3.552  -7.187  1.00  0.00     0.044 C 
ENDBRANCH  16  17
BRANCH  16  20
HETATM   20  N9  UNL     1      29.261  -4.101  -3.690  1.00  0.00    -0.347 N 
HETATM   21  C23 UNL     1      27.934  -3.708  -3.410  1.00  0.00     0.253 C 
HETATM   22  O4  UNL     1      27.034  -3.958  -4.311  1.00  0.00    -0.268 OA
ATOM     23  H9  UNL     1      30.000  -3.921  -3.011  1.00  0.00     0.163 HD
BRANCH  21  24
HETATM   24  C24 UNL     1      27.448  -3.046  -2.235  1.00  0.00     0.043 A 
HETATM   25  C25 UNL     1      27.063  -3.699  -1.086  1.00  0.00    -0.045 A 
HETATM   26  C26 UNL     1      26.994  -5.188  -0.960  1.00  0.00     0.049 C 
HETATM   27  C27 UNL     1      26.658  -3.015   0.059  1.00  0.00     0.014 A 
HETATM   28  C28 UNL     1      26.635  -1.640   0.055  1.00  0.00    -0.061 A 
HETATM   29  C29 UNL     1      26.205  -0.865   1.261  1.00  0.00     0.048 C 
HETATM   30  C30 UNL     1      27.017  -1.007  -1.087  1.00  0.00     0.014 A 
HETATM   31  C31 UNL     1      27.425  -1.639  -2.239  1.00  0.00    -0.045 A 
HETATM   32  C32 UNL     1      27.836  -0.836  -3.424  1.00  0.00     0.049 C 
ENDBRANCH  21  24
ENDBRANCH  16  20
ENDBRANCH  15  16
ENDBRANCH  13  15
ENDBRANCH   1  13
BRANCH   1  33
HETATM   33  C14 UNL     1      28.539  -8.519  -2.958  1.00  0.00     0.132 C 
HETATM   34  C15 UNL     1      27.528  -7.602  -3.658  1.00  0.00     0.039 C 
BRANCH  33  35
HETATM   35  N5  UNL     1      28.224  -8.455  -1.548  1.00  0.00    -0.369 N 
ATOM     36  H5  UNL     1      28.750  -7.778  -0.994  1.00  0.00     0.161 HD
BRANCH  35  37
HETATM   37  C16 UNL     1      27.269  -9.227  -0.854  1.00  0.00     0.089 C 
HETATM   38  N6  UNL     1      26.626  -8.663   0.118  1.00  0.00    -0.388 N 
ATOM     39  H62 UNL     1      26.833  -7.691   0.353  1.00  0.00     0.157 HD
ATOM     40  H61 UNL     1      25.936  -9.221   0.620  1.00  0.00     0.157 HD
BRANCH  37  41
HETATM   41  C17 UNL     1      26.968 -10.644  -1.195  1.00  0.00     0.198 C 
BRANCH  41  42
HETATM   42  N7  UNL     1      27.111 -11.523  -0.082  1.00  0.00    -0.352 N 
HETATM   43  C18 UNL     1      27.767 -12.768  -0.240  1.00  0.00     0.240 C 
HETATM   44  O2  UNL     1      28.224 -13.082  -1.374  1.00  0.00    -0.271 OA
ATOM     45  H7  UNL     1      26.742 -11.255   0.830  1.00  0.00     0.162 HD
BRANCH  43  46
HETATM   46  C19 UNL     1      27.937 -13.729   0.882  1.00  0.00     0.172 C 
HETATM   47  C20 UNL     1      29.178 -13.342   1.711  1.00  0.00     0.042 C 
BRANCH  46  48
HETATM   48  N8  UNL     1      26.825 -13.633   1.767  1.00  0.00    -0.349 N 
HETATM   49  C21 UNL     1      26.459 -14.709   2.614  1.00  0.00     0.214 C 
HETATM   50  C22 UNL     1      25.281 -14.540   3.521  1.00  0.00     0.117 C 
HETATM   51  O3  UNL     1      27.138 -15.774   2.575  1.00  0.00    -0.274 OA
ATOM     52  H8  UNL     1      26.281 -12.771   1.793  1.00  0.00     0.163 HD
ENDBRANCH  46  48
ENDBRANCH  43  46
ENDBRANCH  41  42
ENDBRANCH  37  41
ENDBRANCH  35  37
ENDBRANCH  33  35
ENDBRANCH   1  33
TORSDOF 13
ENDMDL
MODEL 5
REMARK VINA RESULT: -8.076839785      2.273      8.986
REMARK  13 active torsions:
REMARK  status: ('A' for Active; 'I' for Inactive)
REMARK    1  A    between atoms: C2_2  and  C4_4 
REMARK    2  A    between atoms: C4_4  and  C5_5 
REMARK    3  A    between atoms: C4_4  and  N9_40 
REMARK    4  A    between atoms: C5_5  and  N1_6 
REMARK    5  A    between atoms: N1_6  and  C6_8 
REMARK    6  A    between atoms: C6_8  and  C14_20 
REMARK       I    between atoms: N3_15  and  C13_17 
REMARK    7  A    between atoms: C14_20  and  N5_22 
REMARK    8  A    between atoms: N5_22  and  C16_24 
REMARK    9  A    between atoms: C16_24  and  C17_28 
REMARK   10  A    between atoms: C17_28  and  N7_29 
REMARK       I    between atoms: N7_29  and  C18_31 
REMARK   11  A    between atoms: C18_31  and  C19_33 
REMARK   12  A    between atoms: C19_33  and  N8_35 
REMARK       I    between atoms: N8_35  and  C21_37 
REMARK       I    between atoms: N9_40  and  C23_42 
REMARK   13  A    between atoms: C23_42  and  C24_44 
ROOT
HETATM    1  C6  UNL     1      30.299 -10.070  -1.834  1.00  0.00     0.089 C 
HETATM    2  C7  UNL     1      30.730  -9.390  -2.899  1.00  0.00     0.340 C 
HETATM    3  N2  UNL     1      30.018  -8.423  -3.667  1.00  0.00    -0.018 N 
HETATM    4  C8  UNL     1      28.974  -8.975  -4.487  1.00  0.00     0.281 C 
HETATM    5  C9  UNL     1      29.512  -7.299  -2.947  1.00  0.00     0.281 C 
HETATM    6  C10 UNL     1      31.010  -7.857  -4.580  1.00  0.00     0.274 C 
HETATM    7  C11 UNL     1      31.980  -8.966  -4.792  1.00  0.00     0.285 C 
HETATM    8  N3  UNL     1      32.020  -9.582  -3.455  1.00  0.00     0.065 N 
HETATM    9  C12 UNL     1      32.349 -10.973  -3.717  1.00  0.00     0.294 C 
HETATM   10  C13 UNL     1      33.065  -8.905  -2.795  1.00  0.00     0.434 C 
HETATM   11  N4  UNL     1      34.369  -9.437  -2.815  1.00  0.00    -0.033 NA
HETATM   12  O1  UNL     1      32.843  -7.841  -2.196  1.00  0.00    -0.242 OA
ENDROOT
BRANCH   1  13
HETATM   13  N1  UNL     1      31.066 -11.026  -1.102  1.00  0.00    -0.386 N 
ATOM     14  H1  UNL     1      31.899 -10.689  -0.618  1.00  0.00     0.159 HD
BRANCH  13  15
HETATM   15  C5  UNL     1      30.762 -12.410  -0.995  1.00  0.00     0.149 C 
BRANCH  15  16
HETATM   16  C4  UNL     1      31.219 -13.118   0.202  1.00  0.00     0.130 C 
BRANCH  16  17
HETATM   17  C2  UNL     1      31.964 -14.368   0.087  1.00  0.00    -0.069 C 
HETATM   18  C1  UNL     1      32.794 -14.743   1.073  1.00  0.00     0.016 C 
HETATM   19  C3  UNL     1      31.896 -15.304  -1.074  1.00  0.00     0.044 C 
ENDBRANCH  16  17
BRANCH  16  20
HETATM   20  N9  UNL     1      30.163 -13.384   1.214  1.00  0.00    -0.347 N 
HETATM   21  C23 UNL     1      29.017 -14.129   0.862  1.00  0.00     0.253 C 
HETATM   22  O4  UNL     1      28.934 -14.555  -0.361  1.00  0.00    -0.268 OA
ATOM     23  H9  UNL     1      30.267 -13.028   2.164  1.00  0.00     0.163 HD
BRANCH  21  24
HETATM   24  C24 UNL     1      27.906 -14.473   1.700  1.00  0.00     0.043 A 
HETATM   25  C25 UNL     1      26.675 -13.858   1.641  1.00  0.00    -0.045 A 
HETATM   26  C26 UNL     1      26.379 -12.676   0.773  1.00  0.00     0.049 C 
HETATM   27  C27 UNL     1      25.601 -14.267   2.429  1.00  0.00     0.014 A 
HETATM   28  C28 UNL     1      25.760 -15.318   3.301  1.00  0.00    -0.061 A 
HETATM   29  C29 UNL     1      24.633 -15.789   4.167  1.00  0.00     0.048 C 
HETATM   30  C30 UNL     1      26.982 -15.916   3.351  1.00  0.00     0.014 A 
HETATM   31  C31 UNL     1      28.069 -15.548   2.593  1.00  0.00    -0.045 A 
HETATM   32  C32 UNL     1      29.353 -16.291   2.724  1.00  0.00     0.049 C 
ENDBRANCH  21  24
ENDBRANCH  16  20
ENDBRANCH  15  16
ENDBRANCH  13  15
ENDBRANCH   1  13
BRANCH   1  33
HETATM   33  C14 UNL     1      28.923  -9.894  -1.287  1.00  0.00     0.132 C 
HETATM   34  C15 UNL     1      28.841 -10.251   0.202  1.00  0.00     0.039 C 
BRANCH  33  35
HETATM   35  N5  UNL     1      27.965 -10.749  -1.954  1.00  0.00    -0.369 N 
ATOM     36  H5  UNL     1      28.320 -11.636  -2.314  1.00  0.00     0.161 HD
BRANCH  35  37
HETATM   37  C16 UNL     1      26.594 -10.490  -2.161  1.00  0.00     0.089 C 
HETATM   38  N6  UNL     1      25.965 -11.220  -3.027  1.00  0.00    -0.388 N 
ATOM     39  H62 UNL     1      26.477 -11.946  -3.530  1.00  0.00     0.157 HD
ATOM     40  H61 UNL     1      24.974 -11.033  -3.177  1.00  0.00     0.157 HD
BRANCH  37  41
HETATM   41  C17 UNL     1      25.848  -9.432  -1.428  1.00  0.00     0.198 C 
BRANCH  41  42
HETATM   42  N7  UNL     1      26.008  -8.140  -2.010  1.00  0.00    -0.352 N 
HETATM   43  C18 UNL     1      26.435  -7.050  -1.214  1.00  0.00     0.240 C 
HETATM   44  O2  UNL     1      26.676  -7.241   0.010  1.00  0.00    -0.271 OA
ATOM     45  H7  UNL     1      25.815  -8.000  -3.002  1.00  0.00     0.162 HD
BRANCH  43  46
HETATM   46  C19 UNL     1      26.609  -5.680  -1.763  1.00  0.00     0.172 C 
HETATM   47  C20 UNL     1      25.456  -5.360  -2.736  1.00  0.00     0.042 C 
BRANCH  46  48
HETATM   48  N8  UNL     1      26.513  -4.725  -0.709  1.00  0.00    -0.349 N 
HETATM   49  C21 UNL     1      27.292  -3.541  -0.710  1.00  0.00     0.214 C 
HETATM   50  C22 UNL     1      27.139  -2.581   0.426  1.00  0.00     0.117 C 
HETATM   51  O3  UNL     1      28.088  -3.335  -1.670  1.00  0.00    -0.274 OA
ATOM     52  H8  UNL     1      25.869  -4.898   0.063  1.00  0.00     0.163 HD
ENDBRANCH  46  48
ENDBRANCH  43  46
ENDBRANCH  41  42
ENDBRANCH  37  41
ENDBRANCH  35  37
ENDBRANCH  33  35
ENDBRANCH   1  33
TORSDOF 13
ENDMDL
