MODEL 1
REMARK VINA RESULT: -9.183897759      0.000      0.000
REMARK  13 active torsions:
REMARK  status: ('A' for Active; 'I' for Inactive)
REMARK       I    between atoms: C2_4  and  N3_6 
REMARK    1  A    between atoms: N3_6  and  C3_8 
REMARK    2  A    between atoms: C3_8  and  C4_9 
REMARK    3  A    between atoms: C4_9  and  C5_10 
REMARK    4  A    between atoms: C5_10  and  C6_11 
REMARK    5  A    between atoms: C6_11  and  C7_12 
REMARK    6  A    between atoms: C7_12  and  C8_13 
REMARK    7  A    between atoms: C14_23  and  O2_24 
REMARK    8  A    between atoms: C15_26  and  C16_27 
REMARK    9  A    between atoms: C16_27  and  N6_28 
REMARK   10  A    between atoms: C17_30  and  C18_31 
REMARK   11  A    between atoms: C17_30  and  N7_34 
REMARK   12  A    between atoms: C26_43  and  C27_44 
REMARK   13  A    between atoms: C27_44  and  C28_45 
ROOT
HETATM    1  C8  UNL     1      29.317 -10.751  -1.301  1.00  0.00     0.176 C 
HETATM    2  N4  UNL     1      27.943 -11.066  -1.507  1.00  0.00    -0.346 N 
ATOM      3  H4  UNL     1      27.700 -12.054  -1.436  1.00  0.00     0.163 HD
HETATM    4  C9  UNL     1      26.873 -10.189  -1.797  1.00  0.00     0.241 C 
HETATM    5  O1  UNL     1      26.141 -10.536  -2.799  1.00  0.00    -0.271 OA
HETATM    6  C10 UNL     1      26.485  -8.989  -1.147  1.00  0.00     0.178 C 
HETATM    7  C11 UNL     1      27.372  -8.282  -0.197  1.00  0.00     0.037 C 
HETATM    8  C12 UNL     1      26.424  -7.126   0.205  1.00  0.00     0.022 C 
HETATM    9  C13 UNL     1      25.330  -7.132  -0.842  1.00  0.00     0.126 C 
HETATM   10  N5  UNL     1      26.025  -7.862  -1.943  1.00  0.00    -0.347 N 
HETATM   11  C14 UNL     1      26.187  -7.592  -3.304  1.00  0.00     0.163 C 
HETATM   12  C15 UNL     1      27.372  -7.281  -4.110  1.00  0.00     0.081 C 
HETATM   13  N8  UNL     1      28.181  -8.363  -4.571  1.00  0.00    -0.324 N 
ATOM     14  H8  UNL     1      27.670  -9.122  -5.020  1.00  0.00     0.169 HD
HETATM   15  C25 UNL     1      29.571  -8.544  -4.502  1.00  0.00     0.244 C 
HETATM   16  O3  UNL     1      30.222  -8.671  -5.567  1.00  0.00    -0.271 OA
HETATM   17  C26 UNL     1      30.409  -8.611  -3.259  1.00  0.00     0.177 C 
HETATM   18  N9  UNL     1      30.852  -9.984  -3.161  1.00  0.00    -0.346 N 
ATOM     19  H9  UNL     1      31.762 -10.222  -3.554  1.00  0.00     0.163 HD
HETATM   20  C31 UNL     1      30.112 -11.004  -2.564  1.00  0.00     0.241 C 
HETATM   21  O4  UNL     1      30.048 -12.180  -3.009  1.00  0.00    -0.271 OA
ENDROOT
BRANCH   1  22
HETATM   22  C7  UNL     1      30.022 -11.529  -0.238  1.00  0.00     0.035 C 
BRANCH  22  23
HETATM   23  C6  UNL     1      29.280 -11.829   0.987  1.00  0.00     0.002 C 
BRANCH  23  24
HETATM   24  C5  UNL     1      29.171 -13.220   1.456  1.00  0.00     0.002 C 
BRANCH  24  25
HETATM   25  C4  UNL     1      27.743 -13.751   1.471  1.00  0.00     0.020 C 
BRANCH  25  26
HETATM   26  C3  UNL     1      27.705 -15.195   1.931  1.00  0.00     0.122 C 
BRANCH  26  27
HETATM   27  N3  UNL     1      27.195 -15.291   3.280  1.00  0.00    -0.365 N 
HETATM   28  C2  UNL     1      26.135 -16.202   3.522  1.00  0.00     0.183 C 
HETATM   29  N1  UNL     1      24.897 -15.959   3.288  1.00  0.00    -0.369 N 
HETATM   30  N2  UNL     1      26.465 -17.475   4.062  1.00  0.00    -0.064 NA
HETATM   31  C1  UNL     1      24.431 -14.699   2.738  1.00  0.00     0.148 C 
ATOM     32  H1  UNL     1      24.210 -16.683   3.498  1.00  0.00     0.161 HD
ATOM     33  H3  UNL     1      27.584 -14.723   4.032  1.00  0.00     0.162 HD
ENDBRANCH  26  27
ENDBRANCH  25  26
ENDBRANCH  24  25
ENDBRANCH  23  24
ENDBRANCH  22  23
ENDBRANCH   1  22
BRANCH  17  34
HETATM   34  C27 UNL     1      31.608  -7.703  -3.360  1.00  0.00     0.038 C 
BRANCH  34  35
HETATM   35  C28 UNL     1      32.904  -8.387  -3.591  1.00  0.00    -0.020 C 
HETATM   36  C29 UNL     1      33.596  -7.921  -4.866  1.00  0.00     0.009 C 
HETATM   37  C30 UNL     1      33.895  -8.371  -2.487  1.00  0.00     0.009 C 
ENDBRANCH  34  35
ENDBRANCH  17  34
BRANCH  11  38
HETATM   38  O2  UNL     1      25.056  -7.631  -3.945  1.00  0.00    -0.345 OA
ATOM     39  H2  UNL     1      24.416  -8.175  -3.502  1.00  0.00     0.219 HD
ENDBRANCH  11  38
BRANCH  12  40
HETATM   40  C16 UNL     1      28.171  -6.094  -3.574  1.00  0.00     0.182 C 
BRANCH  40  41
HETATM   41  N6  UNL     1      27.508  -5.456  -2.483  1.00  0.00    -0.374 N 
HETATM   42  C17 UNL     1      27.434  -4.181  -2.351  1.00  0.00     0.078 C 
ATOM     43  H6  UNL     1      27.071  -6.043  -1.772  1.00  0.00     0.161 HD
BRANCH  42  44
HETATM   44  C18 UNL     1      28.067  -3.322  -3.380  1.00  0.00     0.045 C 
HETATM   45  C19 UNL     1      29.057  -2.361  -2.746  1.00  0.00     0.017 C 
HETATM   46  C20 UNL     1      27.044  -2.565  -4.158  1.00  0.00     0.017 C 
ENDBRANCH  42  44
BRANCH  42  47
HETATM   47  N7  UNL     1      26.757  -3.562  -1.275  1.00  0.00    -0.371 N 
HETATM   48  C21 UNL     1      27.235  -3.399   0.069  1.00  0.00     0.124 C 
HETATM   49  C22 UNL     1      26.573  -2.140   0.550  1.00  0.00     0.021 C 
HETATM   50  C23 UNL     1      25.604  -1.715  -0.534  1.00  0.00     0.021 C 
HETATM   51  C24 UNL     1      25.442  -2.981  -1.347  1.00  0.00     0.124 C 
ENDBRANCH  42  47
ENDBRANCH  40  41
ENDBRANCH  12  40
TORSDOF 13
ENDMDL
MODEL 2
REMARK VINA RESULT: -9.118096443      1.374      2.503
REMARK  13 active torsions:
REMARK  status: ('A' for Active; 'I' for Inactive)
REMARK       I    between atoms: C2_4  and  N3_6 
REMARK    1  A    between atoms: N3_6  and  C3_8 
REMARK    2  A    between atoms: C3_8  and  C4_9 
REMARK    3  A    between atoms: C4_9  and  C5_10 
REMARK    4  A    between atoms: C5_10  and  C6_11 
REMARK    5  A    between atoms: C6_11  and  C7_12 
REMARK    6  A    between atoms: C7_12  and  C8_13 
REMARK    7  A    between atoms: C14_23  and  O2_24 
REMARK    8  A    between atoms: C15_26  and  C16_27 
REMARK    9  A    between atoms: C16_27  and  N6_28 
REMARK   10  A    between atoms: C17_30  and  C18_31 
REMARK   11  A    between atoms: C17_30  and  N7_34 
REMARK   12  A    between atoms: C26_43  and  C27_44 
REMARK   13  A    between atoms: C27_44  and  C28_45 
ROOT
HETATM    1  C8  UNL     1      29.159 -10.948  -1.373  1.00  0.00     0.176 C 
HETATM    2  N4  UNL     1      27.786 -11.239  -1.619  1.00  0.00    -0.346 N 
ATOM      3  H4  UNL     1      27.536 -12.227  -1.613  1.00  0.00     0.163 HD
HETATM    4  C9  UNL     1      26.726 -10.339  -1.869  1.00  0.00     0.241 C 
HETATM    5  O1  UNL     1      26.006 -10.616  -2.901  1.00  0.00    -0.271 OA
HETATM    6  C10 UNL     1      26.336  -9.179  -1.150  1.00  0.00     0.178 C 
HETATM    7  C11 UNL     1      27.213  -8.539  -0.145  1.00  0.00     0.037 C 
HETATM    8  C12 UNL     1      26.267  -7.404   0.315  1.00  0.00     0.022 C 
HETATM    9  C13 UNL     1      25.188  -7.336  -0.747  1.00  0.00     0.126 C 
HETATM   10  N5  UNL     1      25.895  -8.001  -1.881  1.00  0.00    -0.347 N 
HETATM   11  C14 UNL     1      26.078  -7.647  -3.220  1.00  0.00     0.163 C 
HETATM   12  C15 UNL     1      27.277  -7.294  -3.988  1.00  0.00     0.081 C 
HETATM   13  N8  UNL     1      28.086  -8.351  -4.503  1.00  0.00    -0.324 N 
ATOM     14  H8  UNL     1      27.577  -9.077  -5.007  1.00  0.00     0.169 HD
HETATM   15  C25 UNL     1      29.474  -8.546  -4.426  1.00  0.00     0.244 C 
HETATM   16  O3  UNL     1      30.140  -8.611  -5.488  1.00  0.00    -0.271 OA
HETATM   17  C26 UNL     1      30.293  -8.696  -3.178  1.00  0.00     0.177 C 
HETATM   18  N9  UNL     1      30.726 -10.077  -3.160  1.00  0.00    -0.346 N 
ATOM     19  H9  UNL     1      31.641 -10.296  -3.553  1.00  0.00     0.163 HD
HETATM   20  C31 UNL     1      29.971 -11.127  -2.639  1.00  0.00     0.241 C 
HETATM   21  O4  UNL     1      29.907 -12.272  -3.157  1.00  0.00    -0.271 OA
ENDROOT
BRANCH   1  22
HETATM   22  C7  UNL     1      29.843 -11.795  -0.351  1.00  0.00     0.035 C 
BRANCH  22  23
HETATM   23  C6  UNL     1      29.230 -11.886   0.974  1.00  0.00     0.002 C 
BRANCH  23  24
HETATM   24  C5  UNL     1      28.370 -13.033   1.307  1.00  0.00     0.002 C 
BRANCH  24  25
HETATM   25  C4  UNL     1      29.116 -14.190   1.957  1.00  0.00     0.020 C 
BRANCH  25  26
HETATM   26  C3  UNL     1      28.226 -15.412   2.078  1.00  0.00     0.122 C 
BRANCH  26  27
HETATM   27  N3  UNL     1      27.627 -15.484   3.391  1.00  0.00    -0.365 N 
HETATM   28  C2  UNL     1      26.356 -16.103   3.504  1.00  0.00     0.183 C 
HETATM   29  N1  UNL     1      25.239 -15.527   3.249  1.00  0.00    -0.369 N 
HETATM   30  N2  UNL     1      26.315 -17.459   3.931  1.00  0.00    -0.064 NA
HETATM   31  C1  UNL     1      25.146 -14.147   2.807  1.00  0.00     0.148 C 
ATOM     32  H1  UNL     1      24.377 -16.061   3.362  1.00  0.00     0.161 HD
ATOM     33  H3  UNL     1      28.103 -15.102   4.208  1.00  0.00     0.162 HD
ENDBRANCH  26  27
ENDBRANCH  25  26
ENDBRANCH  24  25
ENDBRANCH  23  24
ENDBRANCH  22  23
ENDBRANCH   1  22
BRANCH  17  34
HETATM   34  C27 UNL     1      31.499  -7.793  -3.205  1.00  0.00     0.038 C 
BRANCH  34  35
HETATM   35  C28 UNL     1      32.790  -8.466  -3.490  1.00  0.00    -0.020 C 
HETATM   36  C29 UNL     1      33.411  -8.013  -4.805  1.00  0.00     0.009 C 
HETATM   37  C30 UNL     1      33.835  -8.420  -2.437  1.00  0.00     0.009 C 
ENDBRANCH  34  35
ENDBRANCH  17  34
BRANCH  11  38
HETATM   38  O2  UNL     1      24.956  -7.638  -3.878  1.00  0.00    -0.345 OA
ATOM     39  H2  UNL     1      25.074  -7.347  -4.775  1.00  0.00     0.219 HD
ENDBRANCH  11  38
BRANCH  12  40
HETATM   40  C16 UNL     1      28.075  -6.149  -3.367  1.00  0.00     0.182 C 
BRANCH  40  41
HETATM   41  N6  UNL     1      28.824  -5.431  -4.347  1.00  0.00    -0.374 N 
HETATM   42  C17 UNL     1      28.912  -4.151  -4.369  1.00  0.00     0.078 C 
ATOM     43  H6  UNL     1      29.315  -5.962  -5.067  1.00  0.00     0.161 HD
BRANCH  42  44
HETATM   44  C18 UNL     1      28.201  -3.372  -3.326  1.00  0.00     0.045 C 
HETATM   45  C19 UNL     1      26.915  -2.782  -3.877  1.00  0.00     0.017 C 
HETATM   46  C20 UNL     1      29.067  -2.290  -2.774  1.00  0.00     0.017 C 
ENDBRANCH  42  44
BRANCH  42  47
HETATM   47  N7  UNL     1      29.674  -3.452  -5.335  1.00  0.00    -0.371 N 
HETATM   48  C21 UNL     1      29.174  -2.650  -6.415  1.00  0.00     0.124 C 
HETATM   49  C22 UNL     1      30.240  -1.614  -6.634  1.00  0.00     0.021 C 
HETATM   50  C23 UNL     1      31.398  -1.983  -5.730  1.00  0.00     0.021 C 
HETATM   51  C24 UNL     1      31.111  -3.431  -5.400  1.00  0.00     0.124 C 
ENDBRANCH  42  47
ENDBRANCH  40  41
ENDBRANCH  12  40
TORSDOF 13
ENDMDL
MODEL 3
REMARK VINA RESULT: -9.036727291      0.918      1.760
REMARK  13 active torsions:
REMARK  status: ('A' for Active; 'I' for Inactive)
REMARK       I    between atoms: C2_4  and  N3_6 
REMARK    1  A    between atoms: N3_6  and  C3_8 
REMARK    2  A    between atoms: C3_8  and  C4_9 
REMARK    3  A    between atoms: C4_9  and  C5_10 
REMARK    4  A    between atoms: C5_10  and  C6_11 
REMARK    5  A    between atoms: C6_11  and  C7_12 
REMARK    6  A    between atoms: C7_12  and  C8_13 
REMARK    7  A    between atoms: C14_23  and  O2_24 
REMARK    8  A    between atoms: C15_26  and  C16_27 
REMARK    9  A    between atoms: C16_27  and  N6_28 
REMARK   10  A    between atoms: C17_30  and  C18_31 
REMARK   11  A    between atoms: C17_30  and  N7_34 
REMARK   12  A    between atoms: C26_43  and  C27_44 
REMARK   13  A    between atoms: C27_44  and  C28_45 
ROOT
HETATM    1  C8  UNL     1      29.152 -11.034  -1.391  1.00  0.00     0.176 C 
HETATM    2  N4  UNL     1      27.777 -11.295  -1.651  1.00  0.00    -0.346 N 
ATOM      3  H4  UNL     1      27.508 -12.278  -1.668  1.00  0.00     0.163 HD
HETATM    4  C9  UNL     1      26.735 -10.370  -1.890  1.00  0.00     0.241 C 
HETATM    5  O1  UNL     1      26.018 -10.613  -2.933  1.00  0.00    -0.271 OA
HETATM    6  C10 UNL     1      26.361  -9.218  -1.151  1.00  0.00     0.178 C 
HETATM    7  C11 UNL     1      27.243  -8.615  -0.127  1.00  0.00     0.037 C 
HETATM    8  C12 UNL     1      26.314  -7.472   0.350  1.00  0.00     0.022 C 
HETATM    9  C13 UNL     1      25.244  -7.363  -0.718  1.00  0.00     0.126 C 
HETATM   10  N5  UNL     1      25.947  -8.017  -1.860  1.00  0.00    -0.347 N 
HETATM   11  C14 UNL     1      26.147  -7.640  -3.190  1.00  0.00     0.163 C 
HETATM   12  C15 UNL     1      27.357  -7.294  -3.943  1.00  0.00     0.081 C 
HETATM   13  N8  UNL     1      28.150  -8.355  -4.474  1.00  0.00    -0.324 N 
ATOM     14  H8  UNL     1      27.631  -9.061  -4.996  1.00  0.00     0.169 HD
HETATM   15  C25 UNL     1      29.533  -8.577  -4.391  1.00  0.00     0.244 C 
HETATM   16  O3  UNL     1      30.206  -8.633  -5.450  1.00  0.00    -0.271 OA
HETATM   17  C26 UNL     1      30.341  -8.768  -3.141  1.00  0.00     0.177 C 
HETATM   18  N9  UNL     1      30.748 -10.156  -3.149  1.00  0.00    -0.346 N 
ATOM     19  H9  UNL     1      31.662 -10.384  -3.540  1.00  0.00     0.163 HD
HETATM   20  C31 UNL     1      29.971 -11.202  -2.654  1.00  0.00     0.241 C 
HETATM   21  O4  UNL     1      29.889 -12.336  -3.196  1.00  0.00    -0.271 OA
ENDROOT
BRANCH   1  22
HETATM   22  C7  UNL     1      29.814 -11.914  -0.382  1.00  0.00     0.035 C 
BRANCH  22  23
HETATM   23  C6  UNL     1      29.229 -11.968   0.958  1.00  0.00     0.002 C 
BRANCH  23  24
HETATM   24  C5  UNL     1      28.368 -13.100   1.338  1.00  0.00     0.002 C 
BRANCH  24  25
HETATM   25  C4  UNL     1      29.130 -14.272   1.943  1.00  0.00     0.020 C 
BRANCH  25  26
HETATM   26  C3  UNL     1      28.232 -15.486   2.090  1.00  0.00     0.122 C 
BRANCH  26  27
HETATM   27  N3  UNL     1      27.628 -15.520   3.402  1.00  0.00    -0.365 N 
HETATM   28  C2  UNL     1      26.350 -16.124   3.526  1.00  0.00     0.183 C 
HETATM   29  N1  UNL     1      25.240 -15.544   3.252  1.00  0.00    -0.369 N 
HETATM   30  N2  UNL     1      26.295 -17.469   3.984  1.00  0.00    -0.064 NA
HETATM   31  C1  UNL     1      25.162 -14.174   2.776  1.00  0.00     0.148 C 
ATOM     32  H1  UNL     1      24.373 -16.068   3.374  1.00  0.00     0.161 HD
ATOM     33  H3  UNL     1      28.103 -15.123   4.212  1.00  0.00     0.162 HD
ENDBRANCH  26  27
ENDBRANCH  25  26
ENDBRANCH  24  25
ENDBRANCH  23  24
ENDBRANCH  22  23
ENDBRANCH   1  22
BRANCH  17  34
HETATM   34  C27 UNL     1      31.564  -7.886  -3.142  1.00  0.00     0.038 C 
BRANCH  34  35
HETATM   35  C28 UNL     1      32.836  -8.566  -3.490  1.00  0.00    -0.020 C 
HETATM   36  C29 UNL     1      33.420  -8.078  -4.810  1.00  0.00     0.009 C 
HETATM   37  C30 UNL     1      33.914  -8.567  -2.471  1.00  0.00     0.009 C 
ENDBRANCH  34  35
ENDBRANCH  17  34
BRANCH  11  38
HETATM   38  O2  UNL     1      25.030  -7.597  -3.856  1.00  0.00    -0.345 OA
ATOM     39  H2  UNL     1      24.537  -6.806  -3.670  1.00  0.00     0.219 HD
ENDBRANCH  11  38
BRANCH  12  40
HETATM   40  C16 UNL     1      28.172  -6.177  -3.294  1.00  0.00     0.182 C 
BRANCH  40  41
HETATM   41  N6  UNL     1      27.976  -4.925  -3.951  1.00  0.00    -0.374 N 
HETATM   42  C17 UNL     1      27.530  -3.879  -3.357  1.00  0.00     0.078 C 
ATOM     43  H6  UNL     1      28.203  -4.859  -4.943  1.00  0.00     0.161 HD
BRANCH  42  44
HETATM   44  C18 UNL     1      27.197  -3.967  -1.915  1.00  0.00     0.045 C 
HETATM   45  C19 UNL     1      25.693  -3.981  -1.708  1.00  0.00     0.017 C 
HETATM   46  C20 UNL     1      27.812  -2.846  -1.147  1.00  0.00     0.017 C 
ENDBRANCH  42  44
BRANCH  42  47
HETATM   47  N7  UNL     1      27.359  -2.639  -4.016  1.00  0.00    -0.371 N 
HETATM   48  C21 UNL     1      26.118  -1.982  -4.315  1.00  0.00     0.124 C 
HETATM   49  C22 UNL     1      26.458  -0.519  -4.301  1.00  0.00     0.021 C 
HETATM   50  C23 UNL     1      27.960  -0.422  -4.131  1.00  0.00     0.021 C 
HETATM   51  C24 UNL     1      28.426  -1.810  -4.512  1.00  0.00     0.124 C 
ENDBRANCH  42  47
ENDBRANCH  40  41
ENDBRANCH  12  40
TORSDOF 13
ENDMDL
MODEL 4
REMARK VINA RESULT: -9.018012062      1.580      2.193
REMARK  13 active torsions:
REMARK  status: ('A' for Active; 'I' for Inactive)
REMARK       I    between atoms: C2_4  and  N3_6 
REMARK    1  A    between atoms: N3_6  and  C3_8 
REMARK    2  A    between atoms: C3_8  and  C4_9 
REMARK    3  A    between atoms: C4_9  and  C5_10 
REMARK    4  A    between atoms: C5_10  and  C6_11 
REMARK    5  A    between atoms: C6_11  and  C7_12 
REMARK    6  A    between atoms: C7_12  and  C8_13 
REMARK    7  A    between atoms: C14_23  and  O2_24 
REMARK    8  A    between atoms: C15_26  and  C16_27 
REMARK    9  A    between atoms: C16_27  and  N6_28 
REMARK   10  A    between atoms: C17_30  and  C18_31 
REMARK   11  A    between atoms: C17_30  and  N7_34 
REMARK   12  A    between atoms: C26_43  and  C27_44 
REMARK   13  A    between atoms: C27_44  and  C28_45 
ROOT
HETATM    1  C8  UNL     1      29.139 -10.943  -1.368  1.00  0.00     0.176 C 
HETATM    2  N4  UNL     1      27.762 -11.205  -1.620  1.00  0.00    -0.346 N 
ATOM      3  H4  UNL     1      27.490 -12.188  -1.612  1.00  0.00     0.163 HD
HETATM    4  C9  UNL     1      26.723 -10.283  -1.878  1.00  0.00     0.241 C 
HETATM    5  O1  UNL     1      26.003 -10.548  -2.913  1.00  0.00    -0.271 OA
HETATM    6  C10 UNL     1      26.354  -9.112  -1.166  1.00  0.00     0.178 C 
HETATM    7  C11 UNL     1      27.239  -8.488  -0.158  1.00  0.00     0.037 C 
HETATM    8  C12 UNL     1      26.316  -7.331   0.294  1.00  0.00     0.022 C 
HETATM    9  C13 UNL     1      25.244  -7.244  -0.774  1.00  0.00     0.126 C 
HETATM   10  N5  UNL     1      25.943  -7.927  -1.902  1.00  0.00    -0.347 N 
HETATM   11  C14 UNL     1      26.141  -7.583  -3.242  1.00  0.00     0.163 C 
HETATM   12  C15 UNL     1      27.352  -7.258  -4.004  1.00  0.00     0.081 C 
HETATM   13  N8  UNL     1      28.140  -8.334  -4.512  1.00  0.00    -0.324 N 
ATOM     14  H8  UNL     1      27.618  -9.051  -5.015  1.00  0.00     0.169 HD
HETATM   15  C25 UNL     1      29.523  -8.559  -4.426  1.00  0.00     0.244 C 
HETATM   16  O3  UNL     1      30.193  -8.642  -5.484  1.00  0.00    -0.271 OA
HETATM   17  C26 UNL     1      30.332  -8.723  -3.173  1.00  0.00     0.177 C 
HETATM   18  N9  UNL     1      30.734 -10.112  -3.148  1.00  0.00    -0.346 N 
ATOM     19  H9  UNL     1      31.646 -10.353  -3.536  1.00  0.00     0.163 HD
HETATM   20  C31 UNL     1      29.954 -11.144  -2.628  1.00  0.00     0.241 C 
HETATM   21  O4  UNL     1      29.868 -12.289  -3.143  1.00  0.00    -0.271 OA
ENDROOT
BRANCH   1  22
HETATM   22  C7  UNL     1      29.799 -11.802  -0.339  1.00  0.00     0.035 C 
BRANCH  22  23
HETATM   23  C6  UNL     1      29.179 -11.873   0.984  1.00  0.00     0.002 C 
BRANCH  23  24
HETATM   24  C5  UNL     1      28.346 -13.033   1.341  1.00  0.00     0.002 C 
BRANCH  24  25
HETATM   25  C4  UNL     1      29.141 -14.218   1.872  1.00  0.00     0.020 C 
BRANCH  25  26
HETATM   26  C3  UNL     1      28.257 -15.440   2.030  1.00  0.00     0.122 C 
BRANCH  26  27
HETATM   27  N3  UNL     1      27.663 -15.477   3.346  1.00  0.00    -0.365 N 
HETATM   28  C2  UNL     1      26.405 -16.117   3.486  1.00  0.00     0.183 C 
HETATM   29  N1  UNL     1      25.276 -15.574   3.214  1.00  0.00    -0.369 N 
HETATM   30  N2  UNL     1      26.393 -17.458   3.961  1.00  0.00    -0.064 NA
HETATM   31  C1  UNL     1      25.153 -14.213   2.723  1.00  0.00     0.148 C 
ATOM     32  H1  UNL     1      24.425 -16.122   3.349  1.00  0.00     0.161 HD
ATOM     33  H3  UNL     1      28.132 -15.056   4.148  1.00  0.00     0.162 HD
ENDBRANCH  26  27
ENDBRANCH  25  26
ENDBRANCH  24  25
ENDBRANCH  23  24
ENDBRANCH  22  23
ENDBRANCH   1  22
BRANCH  17  34
HETATM   34  C27 UNL     1      31.558  -7.846  -3.196  1.00  0.00     0.038 C 
BRANCH  34  35
HETATM   35  C28 UNL     1      32.823  -8.533  -3.556  1.00  0.00    -0.020 C 
HETATM   36  C29 UNL     1      33.430  -8.005  -4.850  1.00  0.00     0.009 C 
HETATM   37  C30 UNL     1      33.889  -8.591  -2.526  1.00  0.00     0.009 C 
ENDBRANCH  34  35
ENDBRANCH  17  34
BRANCH  11  38
HETATM   38  O2  UNL     1      25.024  -7.551  -3.906  1.00  0.00    -0.345 OA
ATOM     39  H2  UNL     1      25.155  -7.731  -4.829  1.00  0.00     0.219 HD
ENDBRANCH  11  38
BRANCH  12  40
HETATM   40  C16 UNL     1      28.171  -6.129  -3.383  1.00  0.00     0.182 C 
BRANCH  40  41
HETATM   41  N6  UNL     1      27.827  -4.857  -3.932  1.00  0.00    -0.374 N 
HETATM   42  C17 UNL     1      28.674  -4.082  -4.504  1.00  0.00     0.078 C 
ATOM     43  H6  UNL     1      26.856  -4.549  -3.866  1.00  0.00     0.161 HD
BRANCH  42  44
HETATM   44  C18 UNL     1      30.087  -4.524  -4.603  1.00  0.00     0.045 C 
HETATM   45  C19 UNL     1      31.031  -3.339  -4.500  1.00  0.00     0.017 C 
HETATM   46  C20 UNL     1      30.334  -5.269  -5.872  1.00  0.00     0.017 C 
ENDBRANCH  42  44
BRANCH  42  47
HETATM   47  N7  UNL     1      28.315  -2.833  -5.061  1.00  0.00    -0.371 N 
HETATM   48  C21 UNL     1      27.933  -1.646  -4.349  1.00  0.00     0.124 C 
HETATM   49  C22 UNL     1      28.371  -0.520  -5.240  1.00  0.00     0.021 C 
HETATM   50  C23 UNL     1      28.869  -1.149  -6.525  1.00  0.00     0.021 C 
HETATM   51  C24 UNL     1      28.268  -2.536  -6.468  1.00  0.00     0.124 C 
ENDBRANCH  42  47
ENDBRANCH  40  41
ENDBRANCH  12  40
TORSDOF 13
ENDMDL
MODEL 5
REMARK VINA RESULT: -8.878731153      1.106      1.566
REMARK  13 active torsions:
REMARK  status: ('A' for Active; 'I' for Inactive)
REMARK       I    between atoms: C2_4  and  N3_6 
REMARK    1  A    between atoms: N3_6  and  C3_8 
REMARK    2  A    between atoms: C3_8  and  C4_9 
REMARK    3  A    between atoms: C4_9  and  C5_10 
REMARK    4  A    between atoms: C5_10  and  C6_11 
REMARK    5  A    between atoms: C6_11  and  C7_12 
REMARK    6  A    between atoms: C7_12  and  C8_13 
REMARK    7  A    between atoms: C14_23  and  O2_24 
REMARK    8  A    between atoms: C15_26  and  C16_27 
REMARK    9  A    between atoms: C16_27  and  N6_28 
REMARK   10  A    between atoms: C17_30  and  C18_31 
REMARK   11  A    between atoms: C17_30  and  N7_34 
REMARK   12  A    between atoms: C26_43  and  C27_44 
REMARK   13  A    between atoms: C27_44  and  C28_45 
ROOT
HETATM    1  C8  UNL     1      29.210 -10.843  -1.411  1.00  0.00     0.176 C 
HETATM    2  N4  UNL     1      27.829 -11.114  -1.635  1.00  0.00    -0.346 N 
ATOM      3  H4  UNL     1      27.562 -12.098  -1.611  1.00  0.00     0.163 HD
HETATM    4  C9  UNL     1      26.782 -10.199  -1.885  1.00  0.00     0.241 C 
HETATM    5  O1  UNL     1      26.044 -10.480  -2.904  1.00  0.00    -0.271 OA
HETATM    6  C10 UNL     1      26.421  -9.021  -1.180  1.00  0.00     0.178 C 
HETATM    7  C11 UNL     1      27.322  -8.382  -0.196  1.00  0.00     0.037 C 
HETATM    8  C12 UNL     1      26.402  -7.223   0.258  1.00  0.00     0.022 C 
HETATM    9  C13 UNL     1      25.311  -7.153  -0.791  1.00  0.00     0.126 C 
HETATM   10  N5  UNL     1      25.991  -7.847  -1.923  1.00  0.00    -0.347 N 
HETATM   11  C14 UNL     1      26.164  -7.518  -3.270  1.00  0.00     0.163 C 
HETATM   12  C15 UNL     1      27.359  -7.198  -4.058  1.00  0.00     0.081 C 
HETATM   13  N8  UNL     1      28.142  -8.276  -4.567  1.00  0.00    -0.324 N 
ATOM     14  H8  UNL     1      27.614  -9.001  -5.053  1.00  0.00     0.169 HD
HETATM   15  C25 UNL     1      29.527  -8.494  -4.504  1.00  0.00     0.244 C 
HETATM   16  O3  UNL     1      30.179  -8.587  -5.573  1.00  0.00    -0.271 OA
HETATM   17  C26 UNL     1      30.360  -8.640  -3.264  1.00  0.00     0.177 C 
HETATM   18  N9  UNL     1      30.768 -10.027  -3.231  1.00  0.00    -0.346 N 
ATOM     19  H9  UNL     1      31.674 -10.269  -3.632  1.00  0.00     0.163 HD
HETATM   20  C31 UNL     1      30.003 -11.056  -2.684  1.00  0.00     0.241 C 
HETATM   21  O4  UNL     1      29.912 -12.208  -3.183  1.00  0.00    -0.271 OA
ENDROOT
BRANCH   1  22
HETATM   22  C7  UNL     1      29.893 -11.687  -0.385  1.00  0.00     0.035 C 
BRANCH  22  23
HETATM   23  C6  UNL     1      29.272 -11.782   0.936  1.00  0.00     0.002 C 
BRANCH  23  24
HETATM   24  C5  UNL     1      28.359 -12.897   1.240  1.00  0.00     0.002 C 
BRANCH  24  25
HETATM   25  C4  UNL     1      28.885 -14.255   0.795  1.00  0.00     0.020 C 
BRANCH  25  26
HETATM   26  C3  UNL     1      29.455 -15.028   1.969  1.00  0.00     0.122 C 
BRANCH  26  27
HETATM   27  N3  UNL     1      29.120 -16.431   1.872  1.00  0.00    -0.365 N 
HETATM   28  C2  UNL     1      28.952 -17.156   3.079  1.00  0.00     0.183 C 
HETATM   29  N1  UNL     1      29.912 -17.642   3.777  1.00  0.00    -0.369 N 
HETATM   30  N2  UNL     1      27.626 -17.359   3.551  1.00  0.00    -0.064 NA
HETATM   31  C1  UNL     1      31.308 -17.504   3.404  1.00  0.00     0.148 C 
ATOM     32  H1  UNL     1      29.684 -18.148   4.633  1.00  0.00     0.161 HD
ATOM     33  H3  UNL     1      29.009 -16.884   0.965  1.00  0.00     0.162 HD
ENDBRANCH  26  27
ENDBRANCH  25  26
ENDBRANCH  24  25
ENDBRANCH  23  24
ENDBRANCH  22  23
ENDBRANCH   1  22
BRANCH  17  34
HETATM   34  C27 UNL     1      31.581  -7.758  -3.321  1.00  0.00     0.038 C 
BRANCH  34  35
HETATM   35  C28 UNL     1      32.851  -8.453  -3.646  1.00  0.00    -0.020 C 
HETATM   36  C29 UNL     1      33.504  -7.919  -4.915  1.00  0.00     0.009 C 
HETATM   37  C30 UNL     1      33.883  -8.529  -2.583  1.00  0.00     0.009 C 
ENDBRANCH  34  35
ENDBRANCH  17  34
BRANCH  11  38
HETATM   38  O2  UNL     1      25.034  -7.498  -3.914  1.00  0.00    -0.345 OA
ATOM     39  H2  UNL     1      24.588  -8.336  -3.872  1.00  0.00     0.219 HD
ENDBRANCH  11  38
BRANCH  12  40
HETATM   40  C16 UNL     1      28.185  -6.057  -3.465  1.00  0.00     0.182 C 
BRANCH  40  41
HETATM   41  N6  UNL     1      27.500  -5.404  -2.397  1.00  0.00    -0.374 N 
HETATM   42  C17 UNL     1      27.407  -4.128  -2.294  1.00  0.00     0.078 C 
ATOM     43  H6  UNL     1      27.063  -5.981  -1.678  1.00  0.00     0.161 HD
BRANCH  42  44
HETATM   44  C18 UNL     1      28.040  -3.283  -3.335  1.00  0.00     0.045 C 
HETATM   45  C19 UNL     1      29.022  -2.306  -2.712  1.00  0.00     0.017 C 
HETATM   46  C20 UNL     1      27.018  -2.546  -4.131  1.00  0.00     0.017 C 
ENDBRANCH  42  44
BRANCH  42  47
HETATM   47  N7  UNL     1      26.708  -3.495  -1.240  1.00  0.00    -0.371 N 
HETATM   48  C21 UNL     1      27.183  -3.260   0.095  1.00  0.00     0.124 C 
HETATM   49  C22 UNL     1      26.472  -2.010   0.528  1.00  0.00     0.021 C 
HETATM   50  C23 UNL     1      25.485  -1.668  -0.568  1.00  0.00     0.021 C 
HETATM   51  C24 UNL     1      25.371  -2.970  -1.329  1.00  0.00     0.124 C 
ENDBRANCH  42  47
ENDBRANCH  40  41
ENDBRANCH  12  40
TORSDOF 13
ENDMDL
