MODEL 1
REMARK VINA RESULT: -8.931939398      0.000      0.000
REMARK  14 active torsions:
REMARK  status: ('A' for Active; 'I' for Inactive)
REMARK    1  A    between atoms: C2_2  and  C3_3 
REMARK    2  A    between atoms: C3_3  and  N1_4 
REMARK       I    between atoms: N1_4  and  C4_6 
REMARK    3  A    between atoms: C4_6  and  C5_8 
REMARK       I    between atoms: N2_11  and  C8_12 
REMARK    4  A    between atoms: C8_12  and  C9_14 
REMARK    5  A    between atoms: C9_14  and  N3_16 
REMARK       I    between atoms: N3_16  and  C11_18 
REMARK    6  A    between atoms: C11_18  and  C12_20 
REMARK    7  A    between atoms: N4_26  and  C18_27 
REMARK    8  A    between atoms: C18_27  and  O4_28 
REMARK    9  A    between atoms: C18_27  and  N5_30 
REMARK   10  A    between atoms: N5_30  and  C19_32 
REMARK   11  A    between atoms: C19_32  and  C20_33 
REMARK   12  A    between atoms: C23_36  and  C24_37 
REMARK       I    between atoms: C24_37  and  N6_39 
REMARK   13  A    between atoms: N6_39  and  C25_41 
REMARK   14  A    between atoms: C25_41  and  C26_42 
REMARK       I    between atoms: N7_45  and  C29_46 
ROOT
HETATM    1  C5  UNL     1      28.405 -16.299   4.361  1.00  0.00     0.111 C 
HETATM    2  C6  UNL     1      28.537 -15.108   3.416  1.00  0.00     0.036 C 
HETATM    3  C7  UNL     1      28.812 -15.854   2.104  1.00  0.00     0.128 C 
HETATM    4  N2  UNL     1      29.874 -16.772   2.629  1.00  0.00    -0.336 N 
HETATM    5  C8  UNL     1      31.112 -16.819   1.956  1.00  0.00     0.243 C 
HETATM    6  O2  UNL     1      32.044 -17.532   2.370  1.00  0.00    -0.271 OA
HETATM    7  C23 UNL     1      29.274 -17.410   3.736  1.00  0.00     0.192 C 
ENDROOT
BRANCH   5   8
HETATM    8  C9  UNL     1      31.389 -16.040   0.729  1.00  0.00     0.172 C 
HETATM    9  C10 UNL     1      32.908 -16.036   0.454  1.00  0.00     0.042 C 
BRANCH   8  10
HETATM   10  N3  UNL     1      30.964 -14.660   0.831  1.00  0.00    -0.346 N 
HETATM   11  C11 UNL     1      30.171 -14.087  -0.171  1.00  0.00     0.241 C 
HETATM   12  O3  UNL     1      29.834 -14.772  -1.161  1.00  0.00    -0.271 OA
ATOM     13  H3  UNL     1      31.244 -14.102   1.637  1.00  0.00     0.163 HD
BRANCH  11  14
HETATM   14  C12 UNL     1      29.709 -12.683  -0.109  1.00  0.00     0.180 C 
HETATM   15  C13 UNL     1      30.538 -11.780   0.734  1.00  0.00     0.035 C 
HETATM   16  C14 UNL     1      30.306 -10.335   0.283  1.00  0.00     0.004 C 
HETATM   17  C15 UNL     1      31.026 -10.140  -1.050  1.00  0.00     0.025 C 
HETATM   18  C16 UNL     1      30.875 -11.445  -1.854  1.00  0.00     0.084 C 
HETATM   19  C17 UNL     1      31.217 -11.192  -3.252  1.00  0.00     0.032 C 
HETATM   20  N4  UNL     1      29.650 -12.084  -1.491  1.00  0.00    -0.330 N 
BRANCH  20  21
HETATM   21  C18 UNL     1      28.477 -12.170  -2.228  1.00  0.00     0.216 C 
BRANCH  21  22
HETATM   22  O4  UNL     1      28.363 -13.267  -2.927  1.00  0.00    -0.333 OA
ATOM     23  H4  UNL     1      28.325 -13.129  -3.866  1.00  0.00     0.220 HD
ENDBRANCH  21  22
BRANCH  21  24
HETATM   24  N5  UNL     1      27.393 -11.301  -2.361  1.00  0.00    -0.356 N 
ATOM     25  H5  UNL     1      27.061 -11.082  -3.300  1.00  0.00     0.163 HD
BRANCH  24  26
HETATM   26  C19 UNL     1      26.705 -10.685  -1.214  1.00  0.00     0.128 C 
BRANCH  26  27
HETATM   27  C20 UNL     1      26.547  -9.214  -1.504  1.00  0.00     0.003 A 
HETATM   28  C21 UNL     1      27.760  -8.356  -1.618  1.00  0.00     0.007 A 
HETATM   29  C22 UNL     1      26.941  -8.299  -0.334  1.00  0.00     0.007 A 
ENDBRANCH  26  27
ENDBRANCH  24  26
ENDBRANCH  21  24
ENDBRANCH  20  21
ENDBRANCH  11  14
ENDBRANCH   8  10
ENDBRANCH   5   8
BRANCH   7  30
HETATM   30  C24 UNL     1      30.109 -17.956   4.801  1.00  0.00     0.241 C 
HETATM   31  O5  UNL     1      29.776 -18.869   5.621  1.00  0.00    -0.271 OA
HETATM   32  N6  UNL     1      31.440 -17.422   4.956  1.00  0.00    -0.359 N 
ATOM     33  H6  UNL     1      31.747 -16.696   4.308  1.00  0.00     0.162 HD
BRANCH  32  34
HETATM   34  C25 UNL     1      32.358 -17.856   5.972  1.00  0.00     0.127 C 
BRANCH  34  35
HETATM   35  C26 UNL     1      33.330 -16.767   6.369  1.00  0.00     0.006 C 
HETATM   36  C27 UNL     1      34.184 -16.346   5.184  1.00  0.00     0.026 C 
HETATM   37  C28 UNL     1      35.009 -17.509   4.675  1.00  0.00     0.126 C 
HETATM   38  N7  UNL     1      35.633 -18.290   5.683  1.00  0.00    -0.356 N 
HETATM   39  C29 UNL     1      36.943 -18.853   5.458  1.00  0.00     0.183 C 
HETATM   40  C30 UNL     1      34.992 -18.556   6.941  1.00  0.00     0.126 C 
HETATM   41  N8  UNL     1      37.900 -18.124   4.998  1.00  0.00    -0.374 N 
HETATM   42  N9  UNL     1      37.190 -20.210   5.740  1.00  0.00    -0.064 NA
ATOM     43  H82 UNL     1      37.722 -17.140   4.794  1.00  0.00     0.158 HD
ATOM     44  H81 UNL     1      38.826 -18.522   4.839  1.00  0.00     0.158 HD
HETATM   45  C31 UNL     1      34.265 -17.330   7.409  1.00  0.00     0.026 C 
ENDBRANCH  34  35
ENDBRANCH  32  34
ENDBRANCH   7  30
BRANCH   1  46
HETATM   46  C4  UNL     1      26.990 -16.699   4.463  1.00  0.00     0.224 C 
HETATM   47  N1  UNL     1      26.014 -15.735   4.789  1.00  0.00    -0.357 N 
ATOM     48  H1  UNL     1      26.324 -14.776   4.945  1.00  0.00     0.162 HD
HETATM   49  O1  UNL     1      26.611 -17.882   4.269  1.00  0.00    -0.273 OA
BRANCH  47  50
HETATM   50  C3  UNL     1      24.595 -16.020   4.915  1.00  0.00     0.149 C 
BRANCH  50  51
HETATM   51  C2  UNL     1      23.821 -15.393   3.820  1.00  0.00    -0.018 C 
HETATM   52  C1  UNL     1      24.459 -14.741   2.867  1.00  0.00     0.008 C 
ENDBRANCH  50  51
ENDBRANCH  47  50
ENDBRANCH   1  46
TORSDOF 14
ENDMDL
MODEL 2
REMARK VINA RESULT: -8.776495131      4.619      9.635
REMARK  14 active torsions:
REMARK  status: ('A' for Active; 'I' for Inactive)
REMARK    1  A    between atoms: C2_2  and  C3_3 
REMARK    2  A    between atoms: C3_3  and  N1_4 
REMARK       I    between atoms: N1_4  and  C4_6 
REMARK    3  A    between atoms: C4_6  and  C5_8 
REMARK       I    between atoms: N2_11  and  C8_12 
REMARK    4  A    between atoms: C8_12  and  C9_14 
REMARK    5  A    between atoms: C9_14  and  N3_16 
REMARK       I    between atoms: N3_16  and  C11_18 
REMARK    6  A    between atoms: C11_18  and  C12_20 
REMARK    7  A    between atoms: N4_26  and  C18_27 
REMARK    8  A    between atoms: C18_27  and  O4_28 
REMARK    9  A    between atoms: C18_27  and  N5_30 
REMARK   10  A    between atoms: N5_30  and  C19_32 
REMARK   11  A    between atoms: C19_32  and  C20_33 
REMARK   12  A    between atoms: C23_36  and  C24_37 
REMARK       I    between atoms: C24_37  and  N6_39 
REMARK   13  A    between atoms: N6_39  and  C25_41 
REMARK   14  A    between atoms: C25_41  and  C26_42 
REMARK       I    between atoms: N7_45  and  C29_46 
ROOT
HETATM    1  C5  UNL     1      30.137 -10.246  -2.329  1.00  0.00     0.111 C 
HETATM    2  C6  UNL     1      29.174  -9.858  -3.446  1.00  0.00     0.036 C 
HETATM    3  C7  UNL     1      28.749  -8.471  -2.944  1.00  0.00     0.128 C 
HETATM    4  N2  UNL     1      28.452  -8.868  -1.530  1.00  0.00    -0.336 N 
HETATM    5  C8  UNL     1      27.189  -8.542  -0.993  1.00  0.00     0.243 C 
HETATM    6  O2  UNL     1      26.873  -8.880   0.162  1.00  0.00    -0.271 OA
HETATM    7  C23 UNL     1      29.636  -9.490  -1.081  1.00  0.00     0.192 C 
ENDROOT
BRANCH   5   8
HETATM    8  C9  UNL     1      26.166  -7.784  -1.748  1.00  0.00     0.172 C 
HETATM    9  C10 UNL     1      26.121  -8.293  -3.204  1.00  0.00     0.042 C 
BRANCH   8  10
HETATM   10  N3  UNL     1      26.440  -6.363  -1.794  1.00  0.00    -0.346 N 
HETATM   11  C11 UNL     1      25.603  -5.504  -2.517  1.00  0.00     0.241 C 
HETATM   12  O3  UNL     1      24.618  -5.970  -3.130  1.00  0.00    -0.271 OA
ATOM     13  H3  UNL     1      27.246  -5.986  -1.298  1.00  0.00     0.163 HD
BRANCH  11  14
HETATM   14  C12 UNL     1      25.839  -4.046  -2.590  1.00  0.00     0.180 C 
HETATM   15  C13 UNL     1      24.729  -3.196  -2.081  1.00  0.00     0.035 C 
HETATM   16  C14 UNL     1      25.293  -1.824  -1.703  1.00  0.00     0.004 C 
HETATM   17  C15 UNL     1      26.081  -1.983  -0.405  1.00  0.00     0.025 C 
HETATM   18  C16 UNL     1      26.797  -3.345  -0.462  1.00  0.00     0.084 C 
HETATM   19  C17 UNL     1      27.837  -3.386   0.565  1.00  0.00     0.032 C 
HETATM   20  N4  UNL     1      27.082  -3.672  -1.823  1.00  0.00    -0.330 N 
BRANCH  20  21
HETATM   21  C18 UNL     1      28.310  -3.646  -2.472  1.00  0.00     0.216 C 
BRANCH  21  22
HETATM   22  O4  UNL     1      28.957  -2.519  -2.347  1.00  0.00    -0.333 OA
ATOM     23  H4  UNL     1      28.548  -1.784  -2.790  1.00  0.00     0.220 HD
ENDBRANCH  21  22
BRANCH  21  24
HETATM   24  N5  UNL     1      28.983  -4.602  -3.233  1.00  0.00    -0.356 N 
ATOM     25  H5  UNL     1      29.622  -5.238  -2.756  1.00  0.00     0.163 HD
BRANCH  24  26
HETATM   26  C19 UNL     1      28.817  -4.739  -4.690  1.00  0.00     0.128 C 
BRANCH  26  27
HETATM   27  C20 UNL     1      30.190  -4.770  -5.312  1.00  0.00     0.003 A 
HETATM   28  C21 UNL     1      31.154  -3.674  -5.012  1.00  0.00     0.007 A 
HETATM   29  C22 UNL     1      30.431  -3.667  -6.354  1.00  0.00     0.007 A 
ENDBRANCH  26  27
ENDBRANCH  24  26
ENDBRANCH  21  24
ENDBRANCH  20  21
ENDBRANCH  11  14
ENDBRANCH   8  10
ENDBRANCH   5   8
BRANCH   7  30
HETATM   30  C24 UNL     1      29.582 -10.452   0.015  1.00  0.00     0.241 C 
HETATM   31  O5  UNL     1      30.385 -10.514   0.998  1.00  0.00    -0.271 OA
HETATM   32  N6  UNL     1      28.526 -11.435  -0.002  1.00  0.00    -0.359 N 
ATOM     33  H6  UNL     1      27.854 -11.409  -0.769  1.00  0.00     0.162 HD
BRANCH  32  34
HETATM   34  C25 UNL     1      28.367 -12.449   1.003  1.00  0.00     0.127 C 
BRANCH  34  35
HETATM   35  C26 UNL     1      27.921 -13.771   0.417  1.00  0.00     0.006 C 
HETATM   36  C27 UNL     1      28.127 -14.900   1.414  1.00  0.00     0.026 C 
HETATM   37  C28 UNL     1      29.592 -15.047   1.767  1.00  0.00     0.126 C 
HETATM   38  N7  UNL     1      30.485 -14.979   0.666  1.00  0.00    -0.356 N 
HETATM   39  C29 UNL     1      31.672 -15.800   0.642  1.00  0.00     0.183 C 
HETATM   40  C30 UNL     1      30.254 -14.096  -0.444  1.00  0.00     0.126 C 
HETATM   41  N8  UNL     1      31.603 -17.060   0.904  1.00  0.00    -0.374 N 
HETATM   42  N9  UNL     1      32.922 -15.232   0.332  1.00  0.00    -0.064 NA
ATOM     43  H82 UNL     1      30.697 -17.472   1.128  1.00  0.00     0.158 HD
ATOM     44  H81 UNL     1      32.441 -17.640   0.887  1.00  0.00     0.158 HD
HETATM   45  C31 UNL     1      28.792 -14.071  -0.776  1.00  0.00     0.026 C 
ENDBRANCH  34  35
ENDBRANCH  32  34
ENDBRANCH   7  30
BRANCH   1  46
HETATM   46  C4  UNL     1      31.510  -9.854  -2.696  1.00  0.00     0.224 C 
HETATM   47  N1  UNL     1      31.988 -10.118  -3.995  1.00  0.00    -0.357 N 
ATOM     48  H1  UNL     1      31.357 -10.579  -4.651  1.00  0.00     0.162 HD
HETATM   49  O1  UNL     1      32.285  -9.284  -1.886  1.00  0.00    -0.273 OA
BRANCH  47  50
HETATM   50  C3  UNL     1      33.320  -9.775  -4.462  1.00  0.00     0.149 C 
BRANCH  50  51
HETATM   51  C2  UNL     1      33.343  -8.431  -5.082  1.00  0.00    -0.018 C 
HETATM   52  C1  UNL     1      32.205  -7.828  -5.364  1.00  0.00     0.008 C 
ENDBRANCH  50  51
ENDBRANCH  47  50
ENDBRANCH   1  46
TORSDOF 14
ENDMDL
MODEL 3
REMARK VINA RESULT: -8.741330782      1.890      2.181
REMARK  14 active torsions:
REMARK  status: ('A' for Active; 'I' for Inactive)
REMARK    1  A    between atoms: C2_2  and  C3_3 
REMARK    2  A    between atoms: C3_3  and  N1_4 
REMARK       I    between atoms: N1_4  and  C4_6 
REMARK    3  A    between atoms: C4_6  and  C5_8 
REMARK       I    between atoms: N2_11  and  C8_12 
REMARK    4  A    between atoms: C8_12  and  C9_14 
REMARK    5  A    between atoms: C9_14  and  N3_16 
REMARK       I    between atoms: N3_16  and  C11_18 
REMARK    6  A    between atoms: C11_18  and  C12_20 
REMARK    7  A    between atoms: N4_26  and  C18_27 
REMARK    8  A    between atoms: C18_27  and  O4_28 
REMARK    9  A    between atoms: C18_27  and  N5_30 
REMARK   10  A    between atoms: N5_30  and  C19_32 
REMARK   11  A    between atoms: C19_32  and  C20_33 
REMARK   12  A    between atoms: C23_36  and  C24_37 
REMARK       I    between atoms: C24_37  and  N6_39 
REMARK   13  A    between atoms: N6_39  and  C25_41 
REMARK   14  A    between atoms: C25_41  and  C26_42 
REMARK       I    between atoms: N7_45  and  C29_46 
ROOT
HETATM    1  C5  UNL     1      28.561 -16.250   4.127  1.00  0.00     0.111 C 
HETATM    2  C6  UNL     1      28.606 -15.072   3.157  1.00  0.00     0.036 C 
HETATM    3  C7  UNL     1      28.840 -15.833   1.846  1.00  0.00     0.128 C 
HETATM    4  N2  UNL     1      29.957 -16.705   2.333  1.00  0.00    -0.336 N 
HETATM    5  C8  UNL     1      31.162 -16.724   1.599  1.00  0.00     0.243 C 
HETATM    6  O2  UNL     1      32.137 -17.398   1.978  1.00  0.00    -0.271 OA
HETATM    7  C23 UNL     1      29.436 -17.343   3.478  1.00  0.00     0.192 C 
ENDROOT
BRANCH   5   8
HETATM    8  C9  UNL     1      31.351 -15.958   0.346  1.00  0.00     0.172 C 
HETATM    9  C10 UNL     1      32.836 -16.013  -0.070  1.00  0.00     0.042 C 
BRANCH   8  10
HETATM   10  N3  UNL     1      30.990 -14.563   0.480  1.00  0.00    -0.346 N 
HETATM   11  C11 UNL     1      30.050 -13.989  -0.384  1.00  0.00     0.241 C 
HETATM   12  O3  UNL     1      29.525 -14.686  -1.280  1.00  0.00    -0.271 OA
ATOM     13  H3  UNL     1      31.422 -13.995   1.208  1.00  0.00     0.163 HD
BRANCH  11  14
HETATM   14  C12 UNL     1      29.646 -12.569  -0.284  1.00  0.00     0.180 C 
HETATM   15  C13 UNL     1      30.481 -11.735   0.621  1.00  0.00     0.035 C 
HETATM   16  C14 UNL     1      30.327 -10.266   0.218  1.00  0.00     0.004 C 
HETATM   17  C15 UNL     1      31.103 -10.053  -1.080  1.00  0.00     0.025 C 
HETATM   18  C16 UNL     1      30.927 -11.320  -1.938  1.00  0.00     0.084 C 
HETATM   19  C17 UNL     1      31.331 -11.030  -3.313  1.00  0.00     0.032 C 
HETATM   20  N4  UNL     1      29.664 -11.917  -1.644  1.00  0.00    -0.330 N 
BRANCH  20  21
HETATM   21  C18 UNL     1      28.515 -11.924  -2.425  1.00  0.00     0.216 C 
BRANCH  21  22
HETATM   22  O4  UNL     1      28.350 -13.015  -3.123  1.00  0.00    -0.333 OA
ATOM     23  H4  UNL     1      29.027 -13.168  -3.772  1.00  0.00     0.220 HD
ENDBRANCH  21  22
BRANCH  21  24
HETATM   24  N5  UNL     1      27.502 -10.982  -2.601  1.00  0.00    -0.356 N 
ATOM     25  H5  UNL     1      27.398 -10.549  -3.519  1.00  0.00     0.163 HD
BRANCH  24  26
HETATM   26  C19 UNL     1      26.574 -10.581  -1.529  1.00  0.00     0.128 C 
BRANCH  26  27
HETATM   27  C20 UNL     1      26.425  -9.081  -1.583  1.00  0.00     0.003 A 
HETATM   28  C21 UNL     1      27.556  -8.216  -1.142  1.00  0.00     0.007 A 
HETATM   29  C22 UNL     1      26.371  -8.407  -0.203  1.00  0.00     0.007 A 
ENDBRANCH  26  27
ENDBRANCH  24  26
ENDBRANCH  21  24
ENDBRANCH  20  21
ENDBRANCH  11  14
ENDBRANCH   8  10
ENDBRANCH   5   8
BRANCH   7  30
HETATM   30  C24 UNL     1      30.340 -17.841   4.509  1.00  0.00     0.241 C 
HETATM   31  O5  UNL     1      31.610 -17.864   4.445  1.00  0.00    -0.271 OA
HETATM   32  N6  UNL     1      29.759 -18.362   5.722  1.00  0.00    -0.359 N 
ATOM     33  H6  UNL     1      28.743 -18.349   5.815  1.00  0.00     0.162 HD
BRANCH  32  34
HETATM   34  C25 UNL     1      30.532 -18.899   6.807  1.00  0.00     0.127 C 
BRANCH  34  35
HETATM   35  C26 UNL     1      30.874 -17.849   7.842  1.00  0.00     0.006 C 
HETATM   36  C27 UNL     1      32.333 -17.436   7.731  1.00  0.00     0.026 C 
HETATM   37  C28 UNL     1      33.247 -18.616   7.983  1.00  0.00     0.126 C 
HETATM   38  N7  UNL     1      32.884 -19.434   9.084  1.00  0.00    -0.356 N 
HETATM   39  C29 UNL     1      33.903 -20.035   9.910  1.00  0.00     0.183 C 
HETATM   40  C30 UNL     1      31.509 -19.700   9.409  1.00  0.00     0.126 C 
HETATM   41  N8  UNL     1      34.882 -19.330  10.361  1.00  0.00    -0.374 N 
HETATM   42  N9  UNL     1      33.840 -21.404  10.232  1.00  0.00    -0.064 NA
ATOM     43  H82 UNL     1      34.928 -18.338  10.128  1.00  0.00     0.158 HD
ATOM     44  H81 UNL     1      35.603 -19.754  10.944  1.00  0.00     0.158 HD
HETATM   45  C31 UNL     1      30.691 -18.460   9.207  1.00  0.00     0.026 C 
ENDBRANCH  34  35
ENDBRANCH  32  34
ENDBRANCH   7  30
BRANCH   1  46
HETATM   46  C4  UNL     1      27.167 -16.695   4.307  1.00  0.00     0.224 C 
HETATM   47  N1  UNL     1      26.184 -15.767   4.708  1.00  0.00    -0.357 N 
ATOM     48  H1  UNL     1      26.475 -14.802   4.863  1.00  0.00     0.162 HD
HETATM   49  O1  UNL     1      26.812 -17.885   4.114  1.00  0.00    -0.273 OA
BRANCH  47  50
HETATM   50  C3  UNL     1      24.785 -16.097   4.914  1.00  0.00     0.149 C 
BRANCH  50  51
HETATM   51  C2  UNL     1      23.911 -15.331   3.997  1.00  0.00    -0.018 C 
HETATM   52  C1  UNL     1      24.429 -14.786   2.914  1.00  0.00     0.008 C 
ENDBRANCH  50  51
ENDBRANCH  47  50
ENDBRANCH   1  46
TORSDOF 14
ENDMDL
MODEL 4
REMARK VINA RESULT: -8.686468454      2.762      3.924
REMARK  14 active torsions:
REMARK  status: ('A' for Active; 'I' for Inactive)
REMARK    1  A    between atoms: C2_2  and  C3_3 
REMARK    2  A    between atoms: C3_3  and  N1_4 
REMARK       I    between atoms: N1_4  and  C4_6 
REMARK    3  A    between atoms: C4_6  and  C5_8 
REMARK       I    between atoms: N2_11  and  C8_12 
REMARK    4  A    between atoms: C8_12  and  C9_14 
REMARK    5  A    between atoms: C9_14  and  N3_16 
REMARK       I    between atoms: N3_16  and  C11_18 
REMARK    6  A    between atoms: C11_18  and  C12_20 
REMARK    7  A    between atoms: N4_26  and  C18_27 
REMARK    8  A    between atoms: C18_27  and  O4_28 
REMARK    9  A    between atoms: C18_27  and  N5_30 
REMARK   10  A    between atoms: N5_30  and  C19_32 
REMARK   11  A    between atoms: C19_32  and  C20_33 
REMARK   12  A    between atoms: C23_36  and  C24_37 
REMARK       I    between atoms: C24_37  and  N6_39 
REMARK   13  A    between atoms: N6_39  and  C25_41 
REMARK   14  A    between atoms: C25_41  and  C26_42 
REMARK       I    between atoms: N7_45  and  C29_46 
ROOT
HETATM    1  C5  UNL     1      28.431 -16.226   4.170  1.00  0.00     0.111 C 
HETATM    2  C6  UNL     1      28.532 -15.037   3.220  1.00  0.00     0.036 C 
HETATM    3  C7  UNL     1      28.756 -15.786   1.900  1.00  0.00     0.128 C 
HETATM    4  N2  UNL     1      29.834 -16.706   2.387  1.00  0.00    -0.336 N 
HETATM    5  C8  UNL     1      31.047 -16.757   1.669  1.00  0.00     0.243 C 
HETATM    6  O2  UNL     1      31.991 -17.473   2.049  1.00  0.00    -0.271 OA
HETATM    7  C23 UNL     1      29.274 -17.341   3.516  1.00  0.00     0.192 C 
ENDROOT
BRANCH   5   8
HETATM    8  C9  UNL     1      31.281 -15.981   0.431  1.00  0.00     0.172 C 
HETATM    9  C10 UNL     1      32.779 -16.034   0.067  1.00  0.00     0.042 C 
BRANCH   8  10
HETATM   10  N3  UNL     1      30.917 -14.586   0.565  1.00  0.00    -0.346 N 
HETATM   11  C11 UNL     1      30.056 -13.986  -0.363  1.00  0.00     0.241 C 
HETATM   12  O3  UNL     1      29.606 -14.660  -1.316  1.00  0.00    -0.271 OA
ATOM     13  H3  UNL     1      31.288 -14.038   1.340  1.00  0.00     0.163 HD
BRANCH  11  14
HETATM   14  C12 UNL     1      29.653 -12.567  -0.266  1.00  0.00     0.180 C 
HETATM   15  C13 UNL     1      30.514 -11.721   0.605  1.00  0.00     0.035 C 
HETATM   16  C14 UNL     1      30.345 -10.257   0.191  1.00  0.00     0.004 C 
HETATM   17  C15 UNL     1      31.080 -10.056  -1.132  1.00  0.00     0.025 C 
HETATM   18  C16 UNL     1      30.880 -11.332  -1.971  1.00  0.00     0.084 C 
HETATM   19  C17 UNL     1      31.241 -11.057  -3.361  1.00  0.00     0.032 C 
HETATM   20  N4  UNL     1      29.628 -11.929  -1.632  1.00  0.00    -0.330 N 
BRANCH  20  21
HETATM   21  C18 UNL     1      28.456 -11.946  -2.377  1.00  0.00     0.216 C 
BRANCH  21  22
HETATM   22  O4  UNL     1      28.375 -12.937  -3.224  1.00  0.00    -0.333 OA
ATOM     23  H4  UNL     1      29.178 -13.436  -3.316  1.00  0.00     0.220 HD
ENDBRANCH  21  22
BRANCH  21  24
HETATM   24  N5  UNL     1      27.346 -11.102  -2.388  1.00  0.00    -0.356 N 
ATOM     25  H5  UNL     1      26.422 -11.515  -2.259  1.00  0.00     0.163 HD
BRANCH  24  26
HETATM   26  C19 UNL     1      27.440  -9.644  -2.579  1.00  0.00     0.128 C 
BRANCH  26  27
HETATM   27  C20 UNL     1      26.054  -9.068  -2.438  1.00  0.00     0.003 A 
HETATM   28  C21 UNL     1      25.571  -8.070  -3.435  1.00  0.00     0.007 A 
HETATM   29  C22 UNL     1      26.030  -7.576  -2.068  1.00  0.00     0.007 A 
ENDBRANCH  26  27
ENDBRANCH  24  26
ENDBRANCH  21  24
ENDBRANCH  20  21
ENDBRANCH  11  14
ENDBRANCH   8  10
ENDBRANCH   5   8
BRANCH   7  30
HETATM   30  C24 UNL     1      30.145 -17.888   4.550  1.00  0.00     0.241 C 
HETATM   31  O5  UNL     1      31.405 -18.041   4.465  1.00  0.00    -0.271 OA
HETATM   32  N6  UNL     1      29.541 -18.301   5.793  1.00  0.00    -0.359 N 
ATOM     33  H6  UNL     1      28.534 -18.182   5.903  1.00  0.00     0.162 HD
BRANCH  32  34
HETATM   34  C25 UNL     1      30.279 -18.871   6.886  1.00  0.00     0.127 C 
BRANCH  34  35
HETATM   35  C26 UNL     1      29.799 -18.363   8.228  1.00  0.00     0.006 C 
HETATM   36  C27 UNL     1      30.345 -19.222   9.357  1.00  0.00     0.026 C 
HETATM   37  C28 UNL     1      29.862 -20.651   9.229  1.00  0.00     0.126 C 
HETATM   38  N7  UNL     1      28.487 -20.795   8.907  1.00  0.00    -0.356 N 
HETATM   39  C29 UNL     1      27.719 -21.881   9.469  1.00  0.00     0.183 C 
HETATM   40  C30 UNL     1      27.818 -19.887   8.016  1.00  0.00     0.126 C 
HETATM   41  N8  UNL     1      27.768 -22.134  10.731  1.00  0.00    -0.374 N 
HETATM   42  N9  UNL     1      26.908 -22.678   8.641  1.00  0.00    -0.064 NA
ATOM     43  H82 UNL     1      28.356 -21.556  11.332  1.00  0.00     0.158 HD
ATOM     44  H81 UNL     1      27.226 -22.901  11.128  1.00  0.00     0.158 HD
HETATM   45  C31 UNL     1      28.297 -18.488   8.265  1.00  0.00     0.026 C 
ENDBRANCH  34  35
ENDBRANCH  32  34
ENDBRANCH   7  30
BRANCH   1  46
HETATM   46  C4  UNL     1      27.020 -16.622   4.326  1.00  0.00     0.224 C 
HETATM   47  N1  UNL     1      26.044 -15.639   4.589  1.00  0.00    -0.357 N 
ATOM     48  H1  UNL     1      26.352 -14.670   4.664  1.00  0.00     0.162 HD
HETATM   49  O1  UNL     1      26.643 -17.818   4.231  1.00  0.00    -0.273 OA
BRANCH  47  50
HETATM   50  C3  UNL     1      24.628 -15.918   4.758  1.00  0.00     0.149 C 
BRANCH  50  51
HETATM   51  C2  UNL     1      23.840 -15.418   3.609  1.00  0.00    -0.018 C 
HETATM   52  C1  UNL     1      24.395 -14.574   2.762  1.00  0.00     0.008 C 
ENDBRANCH  50  51
ENDBRANCH  47  50
ENDBRANCH   1  46
TORSDOF 14
ENDMDL
MODEL 5
REMARK VINA RESULT: -8.628966913      4.976      9.911
REMARK  14 active torsions:
REMARK  status: ('A' for Active; 'I' for Inactive)
REMARK    1  A    between atoms: C2_2  and  C3_3 
REMARK    2  A    between atoms: C3_3  and  N1_4 
REMARK       I    between atoms: N1_4  and  C4_6 
REMARK    3  A    between atoms: C4_6  and  C5_8 
REMARK       I    between atoms: N2_11  and  C8_12 
REMARK    4  A    between atoms: C8_12  and  C9_14 
REMARK    5  A    between atoms: C9_14  and  N3_16 
REMARK       I    between atoms: N3_16  and  C11_18 
REMARK    6  A    between atoms: C11_18  and  C12_20 
REMARK    7  A    between atoms: N4_26  and  C18_27 
REMARK    8  A    between atoms: C18_27  and  O4_28 
REMARK    9  A    between atoms: C18_27  and  N5_30 
REMARK   10  A    between atoms: N5_30  and  C19_32 
REMARK   11  A    between atoms: C19_32  and  C20_33 
REMARK   12  A    between atoms: C23_36  and  C24_37 
REMARK       I    between atoms: C24_37  and  N6_39 
REMARK   13  A    between atoms: N6_39  and  C25_41 
REMARK   14  A    between atoms: C25_41  and  C26_42 
REMARK       I    between atoms: N7_45  and  C29_46 
ROOT
HETATM    1  C5  UNL     1      30.190 -10.289  -2.623  1.00  0.00     0.111 C 
HETATM    2  C6  UNL     1      29.153  -9.832  -3.645  1.00  0.00     0.036 C 
HETATM    3  C7  UNL     1      28.862  -8.428  -3.099  1.00  0.00     0.128 C 
HETATM    4  N2  UNL     1      28.672  -8.820  -1.665  1.00  0.00    -0.336 N 
HETATM    5  C8  UNL     1      27.486  -8.424  -1.012  1.00  0.00     0.243 C 
HETATM    6  O2  UNL     1      27.257  -8.755   0.165  1.00  0.00    -0.271 OA
HETATM    7  C23 UNL     1      29.852  -9.518  -1.330  1.00  0.00     0.192 C 
ENDROOT
BRANCH   5   8
HETATM    8  C9  UNL     1      26.447  -7.598  -1.667  1.00  0.00     0.172 C 
HETATM    9  C10 UNL     1      25.758  -8.422  -2.774  1.00  0.00     0.042 C 
BRANCH   8  10
HETATM   10  N3  UNL     1      26.984  -6.405  -2.285  1.00  0.00    -0.346 N 
HETATM   11  C11 UNL     1      27.209  -5.252  -1.523  1.00  0.00     0.241 C 
HETATM   12  O3  UNL     1      26.937  -5.253  -0.303  1.00  0.00    -0.271 OA
ATOM     13  H3  UNL     1      27.201  -6.404  -3.281  1.00  0.00     0.163 HD
BRANCH  11  14
HETATM   14  C12 UNL     1      27.759  -4.011  -2.109  1.00  0.00     0.180 C 
HETATM   15  C13 UNL     1      28.164  -4.109  -3.538  1.00  0.00     0.035 C 
HETATM   16  C14 UNL     1      28.175  -2.703  -4.144  1.00  0.00     0.004 C 
HETATM   17  C15 UNL     1      26.724  -2.265  -4.340  1.00  0.00     0.025 C 
HETATM   18  C16 UNL     1      25.914  -2.802  -3.145  1.00  0.00     0.084 C 
HETATM   19  C17 UNL     1      24.624  -2.116  -3.091  1.00  0.00     0.032 C 
HETATM   20  N4  UNL     1      26.761  -2.885  -1.999  1.00  0.00    -0.330 N 
BRANCH  20  21
HETATM   21  C18 UNL     1      26.776  -2.061  -0.881  1.00  0.00     0.216 C 
BRANCH  21  22
HETATM   22  O4  UNL     1      27.007  -0.803  -1.147  1.00  0.00    -0.333 OA
ATOM     23  H4  UNL     1      26.225  -0.293  -1.324  1.00  0.00     0.220 HD
ENDBRANCH  21  22
BRANCH  21  24
HETATM   24  N5  UNL     1      26.588  -2.325   0.475  1.00  0.00    -0.356 N 
ATOM     25  H5  UNL     1      27.184  -3.022   0.920  1.00  0.00     0.163 HD
BRANCH  24  26
HETATM   26  C19 UNL     1      25.571  -1.647   1.298  1.00  0.00     0.128 C 
BRANCH  26  27
HETATM   27  C20 UNL     1      26.256  -1.100   2.525  1.00  0.00     0.003 A 
HETATM   28  C21 UNL     1      27.008  -2.028   3.418  1.00  0.00     0.007 A 
HETATM   29  C22 UNL     1      25.625  -1.554   3.850  1.00  0.00     0.007 A 
ENDBRANCH  26  27
ENDBRANCH  24  26
ENDBRANCH  21  24
ENDBRANCH  20  21
ENDBRANCH  11  14
ENDBRANCH   8  10
ENDBRANCH   5   8
BRANCH   7  30
HETATM   30  C24 UNL     1      29.840 -10.486  -0.239  1.00  0.00     0.241 C 
HETATM   31  O5  UNL     1      30.758 -10.653   0.625  1.00  0.00    -0.271 OA
HETATM   32  N6  UNL     1      28.688 -11.345  -0.112  1.00  0.00    -0.359 N 
ATOM     33  H6  UNL     1      27.926 -11.231  -0.780  1.00  0.00     0.162 HD
BRANCH  32  34
HETATM   34  C25 UNL     1      28.555 -12.352   0.904  1.00  0.00     0.127 C 
BRANCH  34  35
HETATM   35  C26 UNL     1      28.031 -13.659   0.350  1.00  0.00     0.006 C 
HETATM   36  C27 UNL     1      28.168 -14.774   1.374  1.00  0.00     0.026 C 
HETATM   37  C28 UNL     1      29.621 -14.999   1.734  1.00  0.00     0.126 C 
HETATM   38  N7  UNL     1      30.518 -15.012   0.634  1.00  0.00    -0.356 N 
HETATM   39  C29 UNL     1      31.653 -15.903   0.632  1.00  0.00     0.183 C 
HETATM   40  C30 UNL     1      30.340 -14.144  -0.499  1.00  0.00     0.126 C 
HETATM   41  N8  UNL     1      31.508 -17.149   0.924  1.00  0.00    -0.374 N 
HETATM   42  N9  UNL     1      32.935 -15.419   0.311  1.00  0.00    -0.064 NA
ATOM     43  H82 UNL     1      30.579 -17.501   1.157  1.00  0.00     0.158 HD
ATOM     44  H81 UNL     1      32.310 -17.779   0.923  1.00  0.00     0.158 HD
HETATM   45  C31 UNL     1      28.883 -14.040  -0.834  1.00  0.00     0.026 C 
ENDBRANCH  34  35
ENDBRANCH  32  34
ENDBRANCH   7  30
BRANCH   1  46
HETATM   46  C4  UNL     1      31.544  -9.977  -3.113  1.00  0.00     0.224 C 
HETATM   47  N1  UNL     1      31.720  -9.516  -4.433  1.00  0.00    -0.357 N 
ATOM     48  H1  UNL     1      30.890  -9.411  -5.016  1.00  0.00     0.162 HD
HETATM   49  O1  UNL     1      32.566 -10.107  -2.391  1.00  0.00    -0.273 OA
BRANCH  47  50
HETATM   50  C3  UNL     1      33.007  -9.179  -5.017  1.00  0.00     0.149 C 
BRANCH  50  51
HETATM   51  C2  UNL     1      33.232  -7.716  -5.018  1.00  0.00    -0.018 C 
HETATM   52  C1  UNL     1      32.257  -6.912  -4.641  1.00  0.00     0.008 C 
ENDBRANCH  50  51
ENDBRANCH  47  50
ENDBRANCH   1  46
TORSDOF 14
ENDMDL
