MODEL 1
REMARK VINA RESULT: -8.142178467      0.000      0.000
REMARK  19 active torsions:
REMARK  status: ('A' for Active; 'I' for Inactive)
REMARK    1  A    between atoms: O1_2  and  C2_3 
REMARK    2  A    between atoms: C2_3  and  C3_5 
REMARK    3  A    between atoms: C5_8  and  O4_9 
REMARK    4  A    between atoms: C5_8  and  O5_11 
REMARK    5  A    between atoms: O5_11  and  C6_12 
REMARK    6  A    between atoms: N3_20  and  N4_21 
REMARK    7  A    between atoms: C9_24  and  N5_25 
REMARK    8  A    between atoms: N5_25  and  C10_27 
REMARK    9  A    between atoms: C10_27  and  O9_28 
REMARK   10  A    between atoms: C10_27  and  N6_30 
REMARK   11  A    between atoms: N6_30  and  C11_32 
REMARK   12  A    between atoms: C13_34  and  O10_36 
REMARK   13  A    between atoms: C15_38  and  O11_39 
REMARK   14  A    between atoms: C18_43  and  O12_44 
REMARK   15  A    between atoms: O12_44  and  C19_45 
REMARK   16  A    between atoms: C19_45  and  C20_47 
REMARK   17  A    between atoms: C20_47  and  O14_48 
REMARK   18  A    between atoms: C20_47  and  C21_50 
REMARK   19  A    between atoms: C21_50  and  O15_51 
ROOT
HETATM    1  N5  UNL     1      -7.664  -3.538  10.312  1.00  0.00    -0.357 N 
ATOM      2  H5  UNL     1      -6.906  -2.955   9.957  1.00  0.00     0.159 HD
ENDROOT
BRANCH   1   3
HETATM    3  C9  UNL     1      -8.990  -3.376   9.826  1.00  0.00     0.247 C 
HETATM    4  C7  UNL     1      -9.944  -2.774  10.790  1.00  0.00     0.325 C 
HETATM    5  C5  UNL     1     -11.093  -3.787  10.979  1.00  0.00     0.326 C 
HETATM    6  N2  UNL     1     -10.488  -1.580  10.227  1.00  0.00    -0.032 N 
HETATM    7  O3  UNL     1     -11.485  -4.243   9.706  1.00  0.00    -0.300 OA
HETATM    8  C4  UNL     1     -11.928  -3.428   8.652  1.00  0.00     0.158 C 
HETATM    9  C3  UNL     1     -11.428  -2.290   8.205  1.00  0.00     0.090 C 
HETATM   10  C8  UNL     1     -10.207  -1.656   8.807  1.00  0.00     0.351 C 
HETATM   11  N3  UNL     1      -9.061  -2.514   8.663  1.00  0.00    -0.207 N 
ATOM     12  H22 UNL     1     -11.475  -1.438  10.443  1.00  0.00     0.281 HD
ATOM     13  H21 UNL     1     -10.145  -0.727  10.668  1.00  0.00     0.281 HD
BRANCH   5  14
HETATM   14  O4  UNL     1     -10.549  -4.832  11.728  1.00  0.00    -0.341 OA
ATOM     15  H4  UNL     1      -9.921  -4.499  12.359  1.00  0.00     0.215 HD
ENDBRANCH   5  14
BRANCH   5  16
HETATM   16  O5  UNL     1     -12.138  -3.196  11.724  1.00  0.00    -0.240 OA
BRANCH  16  17
HETATM   17  C6  UNL     1     -12.629  -3.863  12.820  1.00  0.00     0.377 C 
HETATM   18  N1  UNL     1     -13.406  -5.047  12.754  1.00  0.00    -0.032 NA
HETATM   19  O6  UNL     1     -12.379  -3.398  13.961  1.00  0.00    -0.242 OA
ENDBRANCH  16  17
ENDBRANCH   5  16
BRANCH   9  20
HETATM   20  C2  UNL     1     -12.072  -1.621   7.087  1.00  0.00     0.294 C 
HETATM   21  O2  UNL     1     -11.469  -1.554   5.988  1.00  0.00    -0.259 OA
BRANCH  20  22
HETATM   22  O1  UNL     1     -13.327  -1.056   7.190  1.00  0.00    -0.323 OA
HETATM   23  C1  UNL     1     -13.591   0.321   7.131  1.00  0.00     0.213 C 
ENDBRANCH  20  22
ENDBRANCH   9  20
BRANCH  11  24
HETATM   24  N4  UNL     1      -8.171  -2.531   7.602  1.00  0.00    -0.037 N 
HETATM   25  O7  UNL     1      -8.189  -1.631   6.743  1.00  0.00    -0.516 OA
HETATM   26  O8  UNL     1      -7.247  -3.538   7.470  1.00  0.00    -0.516 OA
ENDBRANCH  11  24
ENDBRANCH   1   3
BRANCH   1  27
HETATM   27  C10 UNL     1      -7.417  -4.521  11.298  1.00  0.00     0.319 C 
BRANCH  27  28
HETATM   28  O9  UNL     1      -7.044  -5.771  10.872  1.00  0.00    -0.360 OA
ATOM     29  H9  UNL     1      -7.456  -6.520  11.287  1.00  0.00     0.214 HD
ENDBRANCH  27  28
BRANCH  27  30
HETATM   30  N6  UNL     1      -6.480  -3.976  12.263  1.00  0.00    -0.374 N 
ATOM     31  H6  UNL     1      -5.471  -4.068  12.144  1.00  0.00     0.158 HD
BRANCH  30  32
HETATM   32  C11 UNL     1      -7.039  -3.310  13.379  1.00  0.00     0.113 C 
HETATM   33  C12 UNL     1      -8.376  -3.719  13.849  1.00  0.00     0.067 C 
HETATM   34  C13 UNL     1      -8.734  -3.347  15.245  1.00  0.00     0.082 C 
HETATM   35  C14 UNL     1      -9.473  -4.519  15.876  1.00  0.00     0.049 C 
HETATM   36  C15 UNL     1      -7.665  -2.921  16.157  1.00  0.00     0.158 C 
HETATM   37  C16 UNL     1      -6.436  -2.351  15.493  1.00  0.00     0.045 C 
HETATM   38  C17 UNL     1      -5.408  -2.105  16.564  1.00  0.00     0.015 C 
HETATM   39  C18 UNL     1      -5.991  -3.414  14.504  1.00  0.00     0.160 C 
BRANCH  34  40
HETATM   40  O10 UNL     1      -9.688  -2.301  15.205  1.00  0.00    -0.388 OA
ATOM     41  H10 UNL     1      -9.320  -1.538  15.635  1.00  0.00     0.210 HD
ENDBRANCH  34  40
BRANCH  36  42
HETATM   42  O11 UNL     1      -8.102  -1.949  17.072  1.00  0.00    -0.392 OA
ATOM     43  H11 UNL     1      -7.465  -1.788  17.758  1.00  0.00     0.210 HD
ENDBRANCH  36  42
BRANCH  39  44
HETATM   44  O12 UNL     1      -6.169  -4.654  15.147  1.00  0.00    -0.311 OA
BRANCH  44  45
HETATM   45  C19 UNL     1      -5.399  -5.781  14.909  1.00  0.00     0.290 C 
HETATM   46  O13 UNL     1      -4.292  -5.846  15.503  1.00  0.00    -0.262 OA
BRANCH  45  47
HETATM   47  C20 UNL     1      -5.830  -6.875  14.007  1.00  0.00     0.241 C 
BRANCH  47  48
HETATM   48  O14 UNL     1      -7.212  -6.878  13.855  1.00  0.00    -0.383 OA
ATOM     49  H14 UNL     1      -7.624  -7.427  14.513  1.00  0.00     0.210 HD
ENDBRANCH  47  48
BRANCH  47  50
HETATM   50  C21 UNL     1      -5.416  -8.231  14.534  1.00  0.00     0.206 C 
BRANCH  50  51
HETATM   51  O15 UNL     1      -4.599  -8.904  13.627  1.00  0.00    -0.398 OA
ATOM     52  H15 UNL     1      -3.954  -9.441  14.071  1.00  0.00     0.209 HD
ENDBRANCH  50  51
ENDBRANCH  47  50
ENDBRANCH  45  47
ENDBRANCH  44  45
ENDBRANCH  39  44
ENDBRANCH  30  32
ENDBRANCH  27  30
ENDBRANCH   1  27
TORSDOF 19
ENDMDL
MODEL 2
REMARK VINA RESULT: -8.123036882      0.986      1.163
REMARK  19 active torsions:
REMARK  status: ('A' for Active; 'I' for Inactive)
REMARK    1  A    between atoms: O1_2  and  C2_3 
REMARK    2  A    between atoms: C2_3  and  C3_5 
REMARK    3  A    between atoms: C5_8  and  O4_9 
REMARK    4  A    between atoms: C5_8  and  O5_11 
REMARK    5  A    between atoms: O5_11  and  C6_12 
REMARK    6  A    between atoms: N3_20  and  N4_21 
REMARK    7  A    between atoms: C9_24  and  N5_25 
REMARK    8  A    between atoms: N5_25  and  C10_27 
REMARK    9  A    between atoms: C10_27  and  O9_28 
REMARK   10  A    between atoms: C10_27  and  N6_30 
REMARK   11  A    between atoms: N6_30  and  C11_32 
REMARK   12  A    between atoms: C13_34  and  O10_36 
REMARK   13  A    between atoms: C15_38  and  O11_39 
REMARK   14  A    between atoms: C18_43  and  O12_44 
REMARK   15  A    between atoms: O12_44  and  C19_45 
REMARK   16  A    between atoms: C19_45  and  C20_47 
REMARK   17  A    between atoms: C20_47  and  O14_48 
REMARK   18  A    between atoms: C20_47  and  C21_50 
REMARK   19  A    between atoms: C21_50  and  O15_51 
ROOT
HETATM    1  N5  UNL     1      -7.400  -2.726  10.788  1.00  0.00    -0.357 N 
ATOM      2  H5  UNL     1      -7.183  -1.834  11.232  1.00  0.00     0.159 HD
ENDROOT
BRANCH   1   3
HETATM    3  C9  UNL     1      -8.616  -2.902  10.072  1.00  0.00     0.247 C 
HETATM    4  C7  UNL     1      -9.845  -2.553  10.825  1.00  0.00     0.325 C 
HETATM    5  C5  UNL     1     -10.726  -3.819  10.861  1.00  0.00     0.326 C 
HETATM    6  N2  UNL     1     -10.554  -1.534  10.118  1.00  0.00    -0.032 N 
HETATM    7  O3  UNL     1     -10.759  -4.364   9.563  1.00  0.00    -0.300 OA
HETATM    8  C4  UNL     1     -11.190  -3.690   8.410  1.00  0.00     0.158 C 
HETATM    9  C3  UNL     1     -10.911  -2.465   8.001  1.00  0.00     0.090 C 
HETATM   10  C8  UNL     1     -10.011  -1.544   8.774  1.00  0.00     0.351 C 
HETATM   11  N3  UNL     1      -8.684  -2.091   8.873  1.00  0.00    -0.207 N 
ATOM     12  H22 UNL     1     -11.568  -1.642  10.152  1.00  0.00     0.281 HD
ATOM     13  H21 UNL     1     -10.514  -0.620  10.569  1.00  0.00     0.281 HD
BRANCH   5  14
HETATM   14  O4  UNL     1     -10.088  -4.692  11.744  1.00  0.00    -0.341 OA
ATOM     15  H4  UNL     1      -9.545  -4.210  12.357  1.00  0.00     0.215 HD
ENDBRANCH   5  14
BRANCH   5  16
HETATM   16  O5  UNL     1     -12.001  -3.504  11.383  1.00  0.00    -0.240 OA
BRANCH  16  17
HETATM   17  C6  UNL     1     -12.342  -3.975  12.628  1.00  0.00     0.377 C 
HETATM   18  N1  UNL     1     -12.042  -3.311  13.843  1.00  0.00    -0.032 NA
HETATM   19  O6  UNL     1     -12.958  -5.068  12.703  1.00  0.00    -0.242 OA
ENDBRANCH  16  17
ENDBRANCH   5  16
BRANCH   9  20
HETATM   20  C2  UNL     1     -11.486  -1.983   6.756  1.00  0.00     0.294 C 
HETATM   21  O2  UNL     1     -10.936  -2.291   5.671  1.00  0.00    -0.259 OA
BRANCH  20  22
HETATM   22  O1  UNL     1     -12.620  -1.195   6.725  1.00  0.00    -0.323 OA
HETATM   23  C1  UNL     1     -12.626   0.202   6.841  1.00  0.00     0.213 C 
ENDBRANCH  20  22
ENDBRANCH   9  20
BRANCH  11  24
HETATM   24  N4  UNL     1      -7.640  -1.890   7.986  1.00  0.00    -0.037 N 
HETATM   25  O7  UNL     1      -7.342  -0.744   7.604  1.00  0.00    -0.516 OA
HETATM   26  O8  UNL     1      -6.908  -2.946   7.504  1.00  0.00    -0.516 OA
ENDBRANCH  11  24
ENDBRANCH   1   3
BRANCH   1  27
HETATM   27  C10 UNL     1      -6.498  -3.812  10.874  1.00  0.00     0.319 C 
BRANCH  27  28
HETATM   28  O9  UNL     1      -5.161  -3.543  10.729  1.00  0.00    -0.360 OA
ATOM     29  H9  UNL     1      -4.667  -4.077  10.118  1.00  0.00     0.214 HD
ENDBRANCH  27  28
BRANCH  27  30
HETATM   30  N6  UNL     1      -6.775  -4.541  12.098  1.00  0.00    -0.374 N 
ATOM     31  H6  UNL     1      -6.736  -5.559  12.138  1.00  0.00     0.158 HD
BRANCH  30  32
HETATM   32  C11 UNL     1      -7.102  -3.765  13.235  1.00  0.00     0.113 C 
HETATM   33  C12 UNL     1      -8.420  -3.958  13.867  1.00  0.00     0.067 C 
HETATM   34  C13 UNL     1      -8.560  -3.495  15.275  1.00  0.00     0.082 C 
HETATM   35  C14 UNL     1      -9.382  -4.524  16.037  1.00  0.00     0.049 C 
HETATM   36  C15 UNL     1      -7.344  -3.203  16.043  1.00  0.00     0.158 C 
HETATM   37  C16 UNL     1      -6.130  -2.841  15.224  1.00  0.00     0.045 C 
HETATM   38  C17 UNL     1      -4.962  -2.715  16.164  1.00  0.00     0.015 C 
HETATM   39  C18 UNL     1      -5.958  -3.988  14.244  1.00  0.00     0.160 C 
BRANCH  34  40
HETATM   40  O10 UNL     1      -9.353  -2.321  15.289  1.00  0.00    -0.388 OA
ATOM     41  H10 UNL     1      -9.313  -1.938  16.157  1.00  0.00     0.210 HD
ENDBRANCH  34  40
BRANCH  36  42
HETATM   42  O11 UNL     1      -7.531  -2.148  16.954  1.00  0.00    -0.392 OA
ATOM     43  H11 UNL     1      -6.708  -1.825  17.303  1.00  0.00     0.210 HD
ENDBRANCH  36  42
BRANCH  39  44
HETATM   44  O12 UNL     1      -6.237  -5.167  14.961  1.00  0.00    -0.311 OA
BRANCH  44  45
HETATM   45  C19 UNL     1      -5.396  -6.267  15.021  1.00  0.00     0.290 C 
HETATM   46  O13 UNL     1      -4.207  -6.053  15.370  1.00  0.00    -0.262 OA
BRANCH  45  47
HETATM   47  C20 UNL     1      -5.846  -7.642  14.698  1.00  0.00     0.241 C 
BRANCH  47  48
HETATM   48  O14 UNL     1      -4.883  -8.319  13.958  1.00  0.00    -0.383 OA
ATOM     49  H14 UNL     1      -4.746  -9.195  14.298  1.00  0.00     0.210 HD
ENDBRANCH  47  48
BRANCH  47  50
HETATM   50  C21 UNL     1      -7.130  -7.639  13.899  1.00  0.00     0.206 C 
BRANCH  50  51
HETATM   51  O15 UNL     1      -6.904  -7.282  12.571  1.00  0.00    -0.398 OA
ATOM     52  H15 UNL     1      -7.022  -8.022  11.987  1.00  0.00     0.209 HD
ENDBRANCH  50  51
ENDBRANCH  47  50
ENDBRANCH  45  47
ENDBRANCH  44  45
ENDBRANCH  39  44
ENDBRANCH  30  32
ENDBRANCH  27  30
ENDBRANCH   1  27
TORSDOF 19
ENDMDL
MODEL 3
REMARK VINA RESULT: -7.848543226      2.916      5.891
REMARK  19 active torsions:
REMARK  status: ('A' for Active; 'I' for Inactive)
REMARK    1  A    between atoms: O1_2  and  C2_3 
REMARK    2  A    between atoms: C2_3  and  C3_5 
REMARK    3  A    between atoms: C5_8  and  O4_9 
REMARK    4  A    between atoms: C5_8  and  O5_11 
REMARK    5  A    between atoms: O5_11  and  C6_12 
REMARK    6  A    between atoms: N3_20  and  N4_21 
REMARK    7  A    between atoms: C9_24  and  N5_25 
REMARK    8  A    between atoms: N5_25  and  C10_27 
REMARK    9  A    between atoms: C10_27  and  O9_28 
REMARK   10  A    between atoms: C10_27  and  N6_30 
REMARK   11  A    between atoms: N6_30  and  C11_32 
REMARK   12  A    between atoms: C13_34  and  O10_36 
REMARK   13  A    between atoms: C15_38  and  O11_39 
REMARK   14  A    between atoms: C18_43  and  O12_44 
REMARK   15  A    between atoms: O12_44  and  C19_45 
REMARK   16  A    between atoms: C19_45  and  C20_47 
REMARK   17  A    between atoms: C20_47  and  O14_48 
REMARK   18  A    between atoms: C20_47  and  C21_50 
REMARK   19  A    between atoms: C21_50  and  O15_51 
ROOT
HETATM    1  N5  UNL     1     -10.228  -4.576  13.927  1.00  0.00    -0.357 N 
ATOM      2  H5  UNL     1     -11.031  -4.917  13.399  1.00  0.00     0.159 HD
ENDROOT
BRANCH   1   3
HETATM    3  C9  UNL     1      -8.940  -4.517  13.328  1.00  0.00     0.247 C 
HETATM    4  C7  UNL     1      -8.291  -5.832  13.100  1.00  0.00     0.325 C 
HETATM    5  C5  UNL     1      -6.952  -5.813  13.865  1.00  0.00     0.326 C 
HETATM    6  N2  UNL     1      -8.009  -5.978  11.707  1.00  0.00    -0.032 N 
HETATM    7  O3  UNL     1      -6.309  -4.590  13.590  1.00  0.00    -0.300 OA
HETATM    8  C4  UNL     1      -5.969  -4.122  12.312  1.00  0.00     0.158 C 
HETATM    9  C3  UNL     1      -6.688  -4.113  11.203  1.00  0.00     0.090 C 
HETATM   10  C8  UNL     1      -8.092  -4.642  11.151  1.00  0.00     0.351 C 
HETATM   11  N3  UNL     1      -8.955  -3.890  12.022  1.00  0.00    -0.207 N 
ATOM     12  H22 UNL     1      -7.123  -6.447  11.516  1.00  0.00     0.281 HD
ATOM     13  H21 UNL     1      -8.608  -6.656  11.238  1.00  0.00     0.281 HD
BRANCH   5  14
HETATM   14  O4  UNL     1      -7.294  -5.893  15.217  1.00  0.00    -0.341 OA
ATOM     15  H4  UNL     1      -6.602  -6.316  15.712  1.00  0.00     0.215 HD
ENDBRANCH   5  14
BRANCH   5  16
HETATM   16  O5  UNL     1      -6.187  -6.951  13.526  1.00  0.00    -0.240 OA
BRANCH  16  17
HETATM   17  C6  UNL     1      -5.234  -7.397  14.411  1.00  0.00     0.377 C 
HETATM   18  N1  UNL     1      -4.578  -6.573  15.360  1.00  0.00    -0.032 NA
HETATM   19  O6  UNL     1      -4.916  -8.612  14.381  1.00  0.00    -0.242 OA
ENDBRANCH  16  17
ENDBRANCH   5  16
BRANCH   9  20
HETATM   20  C2  UNL     1      -6.111  -3.569   9.985  1.00  0.00     0.294 C 
HETATM   21  O2  UNL     1      -5.051  -2.901  10.059  1.00  0.00    -0.259 OA
BRANCH  20  22
HETATM   22  O1  UNL     1      -6.688  -3.761   8.746  1.00  0.00    -0.323 OA
HETATM   23  C1  UNL     1      -7.262  -2.747   7.965  1.00  0.00     0.213 C 
ENDBRANCH  20  22
ENDBRANCH   9  20
BRANCH  11  24
HETATM   24  N4  UNL     1      -9.682  -2.758  11.689  1.00  0.00    -0.037 N 
HETATM   25  O7  UNL     1     -10.183  -2.043  12.575  1.00  0.00    -0.516 OA
HETATM   26  O8  UNL     1      -9.868  -2.397  10.378  1.00  0.00    -0.516 OA
ENDBRANCH  11  24
ENDBRANCH   1   3
BRANCH   1  27
HETATM   27  C10 UNL     1     -10.374  -4.155  15.269  1.00  0.00     0.319 C 
BRANCH  27  28
HETATM   28  O9  UNL     1     -10.313  -5.113  16.249  1.00  0.00    -0.360 OA
ATOM     29  H9  UNL     1      -9.457  -5.338  16.593  1.00  0.00     0.214 HD
ENDBRANCH  27  28
BRANCH  27  30
HETATM   30  N6  UNL     1      -9.441  -3.070  15.512  1.00  0.00    -0.374 N 
ATOM     31  H6  UNL     1      -8.473  -3.113  15.195  1.00  0.00     0.158 HD
BRANCH  30  32
HETATM   32  C11 UNL     1      -9.944  -1.949  16.214  1.00  0.00     0.113 C 
HETATM   33  C12 UNL     1      -9.806  -1.914  17.682  1.00  0.00     0.067 C 
HETATM   34  C13 UNL     1      -9.913  -0.578  18.330  1.00  0.00     0.082 C 
HETATM   35  C14 UNL     1      -8.865  -0.497  19.431  1.00  0.00     0.049 C 
HETATM   36  C15 UNL     1      -9.807   0.621  17.492  1.00  0.00     0.158 C 
HETATM   37  C16 UNL     1     -10.171   0.432  16.040  1.00  0.00     0.045 C 
HETATM   38  C17 UNL     1      -9.870   1.718  15.319  1.00  0.00     0.015 C 
HETATM   39  C18 UNL     1      -9.298  -0.713  15.559  1.00  0.00     0.160 C 
BRANCH  34  40
HETATM   40  O10 UNL     1     -11.153  -0.503  19.010  1.00  0.00    -0.388 OA
ATOM     41  H10 UNL     1     -11.296   0.396  19.282  1.00  0.00     0.210 HD
ENDBRANCH  34  40
BRANCH  36  42
HETATM   42  O11 UNL     1     -10.612   1.673  17.963  1.00  0.00    -0.392 OA
ATOM     43  H11 UNL     1     -11.260   1.944  17.323  1.00  0.00     0.210 HD
ENDBRANCH  36  42
BRANCH  39  44
HETATM   44  O12 UNL     1      -8.034  -0.523  16.149  1.00  0.00    -0.311 OA
BRANCH  44  45
HETATM   45  C19 UNL     1      -6.826  -0.706  15.495  1.00  0.00     0.290 C 
HETATM   46  O13 UNL     1      -6.526   0.137  14.611  1.00  0.00    -0.262 OA
BRANCH  45  47
HETATM   47  C20 UNL     1      -5.908  -1.830  15.800  1.00  0.00     0.241 C 
BRANCH  47  48
HETATM   48  O14 UNL     1      -6.621  -2.983  16.111  1.00  0.00    -0.383 OA
ATOM     49  H14 UNL     1      -6.113  -3.761  15.909  1.00  0.00     0.210 HD
ENDBRANCH  47  48
BRANCH  47  50
HETATM   50  C21 UNL     1      -5.003  -1.513  16.970  1.00  0.00     0.206 C 
BRANCH  50  51
HETATM   51  O15 UNL     1      -5.391  -0.339  17.612  1.00  0.00    -0.398 OA
ATOM     52  H15 UNL     1      -4.739   0.345  17.512  1.00  0.00     0.209 HD
ENDBRANCH  50  51
ENDBRANCH  47  50
ENDBRANCH  45  47
ENDBRANCH  44  45
ENDBRANCH  39  44
ENDBRANCH  30  32
ENDBRANCH  27  30
ENDBRANCH   1  27
TORSDOF 19
ENDMDL
MODEL 4
REMARK VINA RESULT: -7.694335916      4.474      8.617
REMARK  19 active torsions:
REMARK  status: ('A' for Active; 'I' for Inactive)
REMARK    1  A    between atoms: O1_2  and  C2_3 
REMARK    2  A    between atoms: C2_3  and  C3_5 
REMARK    3  A    between atoms: C5_8  and  O4_9 
REMARK    4  A    between atoms: C5_8  and  O5_11 
REMARK    5  A    between atoms: O5_11  and  C6_12 
REMARK    6  A    between atoms: N3_20  and  N4_21 
REMARK    7  A    between atoms: C9_24  and  N5_25 
REMARK    8  A    between atoms: N5_25  and  C10_27 
REMARK    9  A    between atoms: C10_27  and  O9_28 
REMARK   10  A    between atoms: C10_27  and  N6_30 
REMARK   11  A    between atoms: N6_30  and  C11_32 
REMARK   12  A    between atoms: C13_34  and  O10_36 
REMARK   13  A    between atoms: C15_38  and  O11_39 
REMARK   14  A    between atoms: C18_43  and  O12_44 
REMARK   15  A    between atoms: O12_44  and  C19_45 
REMARK   16  A    between atoms: C19_45  and  C20_47 
REMARK   17  A    between atoms: C20_47  and  O14_48 
REMARK   18  A    between atoms: C20_47  and  C21_50 
REMARK   19  A    between atoms: C21_50  and  O15_51 
ROOT
HETATM    1  N5  UNL     1      -7.517  -1.046  15.772  1.00  0.00    -0.357 N 
ATOM      2  H5  UNL     1      -7.920  -0.614  14.941  1.00  0.00     0.159 HD
ENDROOT
BRANCH   1   3
HETATM    3  C9  UNL     1      -7.942  -0.653  17.071  1.00  0.00     0.247 C 
HETATM    4  C7  UNL     1      -7.681   0.766  17.416  1.00  0.00     0.325 C 
HETATM    5  C5  UNL     1      -6.798   0.768  18.680  1.00  0.00     0.326 C 
HETATM    6  N2  UNL     1      -8.918   1.406  17.733  1.00  0.00    -0.032 N 
HETATM    7  O3  UNL     1      -7.347  -0.148  19.598  1.00  0.00    -0.300 OA
HETATM    8  C4  UNL     1      -8.655  -0.104  20.104  1.00  0.00     0.158 C 
HETATM    9  C3  UNL     1      -9.795   0.103  19.467  1.00  0.00     0.090 C 
HETATM   10  C8  UNL     1      -9.858   0.331  17.985  1.00  0.00     0.351 C 
HETATM   11  N3  UNL     1      -9.368  -0.817  17.269  1.00  0.00    -0.207 N 
ATOM     12  H22 UNL     1      -8.848   2.077  18.498  1.00  0.00     0.281 HD
ATOM     13  H21 UNL     1      -9.231   2.066  17.021  1.00  0.00     0.281 HD
BRANCH   5  14
HETATM   14  O4  UNL     1      -5.538   0.340  18.255  1.00  0.00    -0.341 OA
ATOM     15  H4  UNL     1      -5.334   0.701  17.400  1.00  0.00     0.215 HD
ENDBRANCH   5  14
BRANCH   5  16
HETATM   16  O5  UNL     1      -6.680   2.083  19.184  1.00  0.00    -0.240 OA
BRANCH  16  17
HETATM   17  C6  UNL     1      -5.464   2.500  19.670  1.00  0.00     0.377 C 
HETATM   18  N1  UNL     1      -4.555   3.317  18.952  1.00  0.00    -0.032 NA
HETATM   19  O6  UNL     1      -5.128   2.135  20.825  1.00  0.00    -0.242 OA
ENDBRANCH  16  17
ENDBRANCH   5  16
BRANCH   9  20
HETATM   20  C2  UNL     1     -11.039   0.105  20.219  1.00  0.00     0.294 C 
HETATM   21  O2  UNL     1     -12.124  -0.031  19.602  1.00  0.00    -0.259 OA
BRANCH  20  22
HETATM   22  O1  UNL     1     -11.070   0.251  21.591  1.00  0.00    -0.323 OA
HETATM   23  C1  UNL     1     -12.238   0.253  22.369  1.00  0.00     0.213 C 
ENDBRANCH  20  22
ENDBRANCH   9  20
BRANCH  11  24
HETATM   24  N4  UNL     1     -10.114  -1.901  16.838  1.00  0.00    -0.037 N 
HETATM   25  O7  UNL     1     -10.183  -2.183  15.628  1.00  0.00    -0.516 OA
HETATM   26  O8  UNL     1     -10.795  -2.691  17.730  1.00  0.00    -0.516 OA
ENDBRANCH  11  24
ENDBRANCH   1   3
BRANCH   1  27
HETATM   27  C10 UNL     1      -6.523  -2.046  15.655  1.00  0.00     0.319 C 
BRANCH  27  28
HETATM   28  O9  UNL     1      -5.380  -1.899  16.399  1.00  0.00    -0.360 OA
ATOM     29  H9  UNL     1      -5.449  -2.006  17.340  1.00  0.00     0.214 HD
ENDBRANCH  27  28
BRANCH  27  30
HETATM   30  N6  UNL     1      -7.148  -3.338  15.869  1.00  0.00    -0.374 N 
ATOM     31  H6  UNL     1      -7.417  -3.657  16.800  1.00  0.00     0.158 HD
BRANCH  30  32
HETATM   32  C11 UNL     1      -7.363  -4.134  14.720  1.00  0.00     0.113 C 
HETATM   33  C12 UNL     1      -7.149  -3.530  13.392  1.00  0.00     0.067 C 
HETATM   34  C13 UNL     1      -6.934  -4.470  12.258  1.00  0.00     0.082 C 
HETATM   35  C14 UNL     1      -5.841  -3.899  11.365  1.00  0.00     0.049 C 
HETATM   36  C15 UNL     1      -6.613  -5.870  12.555  1.00  0.00     0.158 C 
HETATM   37  C16 UNL     1      -7.080  -6.371  13.900  1.00  0.00     0.045 C 
HETATM   38  C17 UNL     1      -6.544  -7.764  14.083  1.00  0.00     0.015 C 
HETATM   39  C18 UNL     1      -6.498  -5.396  14.909  1.00  0.00     0.160 C 
BRANCH  34  40
HETATM   40  O10 UNL     1      -8.095  -4.472  11.446  1.00  0.00    -0.388 OA
ATOM     41  H10 UNL     1      -7.920  -4.989  10.668  1.00  0.00     0.210 HD
ENDBRANCH  34  40
BRANCH  36  42
HETATM   42  O11 UNL     1      -7.149  -6.753  11.602  1.00  0.00    -0.392 OA
ATOM     43  H11 UNL     1      -7.890  -7.243  11.941  1.00  0.00     0.210 HD
ENDBRANCH  36  42
BRANCH  39  44
HETATM   44  O12 UNL     1      -5.196  -5.097  14.466  1.00  0.00    -0.311 OA
BRANCH  44  45
HETATM   45  C19 UNL     1      -4.043  -5.330  15.199  1.00  0.00     0.290 C 
HETATM   46  O13 UNL     1      -4.023  -6.368  15.908  1.00  0.00    -0.262 OA
BRANCH  45  47
HETATM   47  C20 UNL     1      -2.873  -4.420  15.171  1.00  0.00     0.241 C 
BRANCH  47  48
HETATM   48  O14 UNL     1      -1.734  -5.088  14.736  1.00  0.00    -0.383 OA
ATOM     49  H14 UNL     1      -1.098  -4.479  14.380  1.00  0.00     0.210 HD
ENDBRANCH  47  48
BRANCH  47  50
HETATM   50  C21 UNL     1      -2.580  -3.841  16.538  1.00  0.00     0.206 C 
BRANCH  50  51
HETATM   51  O15 UNL     1      -2.509  -2.450  16.499  1.00  0.00    -0.398 OA
ATOM     52  H15 UNL     1      -2.532  -2.076  17.373  1.00  0.00     0.209 HD
ENDBRANCH  50  51
ENDBRANCH  47  50
ENDBRANCH  45  47
ENDBRANCH  44  45
ENDBRANCH  39  44
ENDBRANCH  30  32
ENDBRANCH  27  30
ENDBRANCH   1  27
TORSDOF 19
ENDMDL
MODEL 5
REMARK VINA RESULT: -7.514419439      2.963      6.183
REMARK  19 active torsions:
REMARK  status: ('A' for Active; 'I' for Inactive)
REMARK    1  A    between atoms: O1_2  and  C2_3 
REMARK    2  A    between atoms: C2_3  and  C3_5 
REMARK    3  A    between atoms: C5_8  and  O4_9 
REMARK    4  A    between atoms: C5_8  and  O5_11 
REMARK    5  A    between atoms: O5_11  and  C6_12 
REMARK    6  A    between atoms: N3_20  and  N4_21 
REMARK    7  A    between atoms: C9_24  and  N5_25 
REMARK    8  A    between atoms: N5_25  and  C10_27 
REMARK    9  A    between atoms: C10_27  and  O9_28 
REMARK   10  A    between atoms: C10_27  and  N6_30 
REMARK   11  A    between atoms: N6_30  and  C11_32 
REMARK   12  A    between atoms: C13_34  and  O10_36 
REMARK   13  A    between atoms: C15_38  and  O11_39 
REMARK   14  A    between atoms: C18_43  and  O12_44 
REMARK   15  A    between atoms: O12_44  and  C19_45 
REMARK   16  A    between atoms: C19_45  and  C20_47 
REMARK   17  A    between atoms: C20_47  and  O14_48 
REMARK   18  A    between atoms: C20_47  and  C21_50 
REMARK   19  A    between atoms: C21_50  and  O15_51 
ROOT
HETATM    1  N5  UNL     1     -10.196  -4.714  13.373  1.00  0.00    -0.357 N 
ATOM      2  H5  UNL     1     -10.897  -5.197  12.810  1.00  0.00     0.159 HD
ENDROOT
BRANCH   1   3
HETATM    3  C9  UNL     1      -8.864  -4.566  12.900  1.00  0.00     0.247 C 
HETATM    4  C7  UNL     1      -8.094  -5.829  12.782  1.00  0.00     0.325 C 
HETATM    5  C5  UNL     1      -6.843  -5.679  13.672  1.00  0.00     0.326 C 
HETATM    6  N2  UNL     1      -7.664  -5.991  11.430  1.00  0.00    -0.032 N 
HETATM    7  O3  UNL     1      -6.275  -4.416  13.417  1.00  0.00    -0.300 OA
HETATM    8  C4  UNL     1      -5.848  -3.957  12.161  1.00  0.00     0.158 C 
HETATM    9  C3  UNL     1      -6.452  -4.039  10.989  1.00  0.00     0.090 C 
HETATM   10  C8  UNL     1      -7.797  -4.683  10.820  1.00  0.00     0.351 C 
HETATM   11  N3  UNL     1      -8.799  -3.979  11.576  1.00  0.00    -0.207 N 
ATOM     12  H22 UNL     1      -6.730  -6.391  11.342  1.00  0.00     0.281 HD
ATOM     13  H21 UNL     1      -8.159  -6.729  10.929  1.00  0.00     0.281 HD
BRANCH   5  14
HETATM   14  O4  UNL     1      -7.311  -5.750  14.987  1.00  0.00    -0.341 OA
ATOM     15  H4  UNL     1      -7.151  -6.612  15.352  1.00  0.00     0.215 HD
ENDBRANCH   5  14
BRANCH   5  16
HETATM   16  O5  UNL     1      -5.961  -6.760  13.450  1.00  0.00    -0.240 OA
BRANCH  16  17
HETATM   17  C6  UNL     1      -5.122  -7.150  14.466  1.00  0.00     0.377 C 
HETATM   18  N1  UNL     1      -4.988  -8.485  14.924  1.00  0.00    -0.032 NA
HETATM   19  O6  UNL     1      -4.425  -6.271  15.033  1.00  0.00    -0.242 OA
ENDBRANCH  16  17
ENDBRANCH   5  16
BRANCH   9  20
HETATM   20  C2  UNL     1      -5.801  -3.484   9.814  1.00  0.00     0.294 C 
HETATM   21  O2  UNL     1      -4.698  -2.898   9.947  1.00  0.00    -0.259 OA
BRANCH  20  22
HETATM   22  O1  UNL     1      -6.353  -3.578   8.552  1.00  0.00    -0.323 OA
HETATM   23  C1  UNL     1      -7.005  -2.530   7.885  1.00  0.00     0.213 C 
ENDBRANCH  20  22
ENDBRANCH   9  20
BRANCH  11  24
HETATM   24  N4  UNL     1      -9.576  -2.921  11.134  1.00  0.00    -0.037 N 
HETATM   25  O7  UNL     1     -10.061  -2.109  11.942  1.00  0.00    -0.516 OA
HETATM   26  O8  UNL     1      -9.830  -2.740   9.798  1.00  0.00    -0.516 OA
ENDBRANCH  11  24
ENDBRANCH   1   3
BRANCH   1  27
HETATM   27  C10 UNL     1     -10.532  -4.180  14.639  1.00  0.00     0.319 C 
BRANCH  27  28
HETATM   28  O9  UNL     1     -10.821  -5.064  15.647  1.00  0.00    -0.360 OA
ATOM     29  H9  UNL     1     -10.611  -4.804  16.536  1.00  0.00     0.214 HD
ENDBRANCH  27  28
BRANCH  27  30
HETATM   30  N6  UNL     1      -9.500  -3.236  15.025  1.00  0.00    -0.374 N 
ATOM     31  H6  UNL     1      -8.558  -3.281  14.638  1.00  0.00     0.158 HD
BRANCH  30  32
HETATM   32  C11 UNL     1      -9.869  -2.248  15.968  1.00  0.00     0.113 C 
HETATM   33  C12 UNL     1      -9.101  -2.148  17.224  1.00  0.00     0.067 C 
HETATM   34  C13 UNL     1      -9.197  -0.860  17.964  1.00  0.00     0.082 C 
HETATM   35  C14 UNL     1      -7.814  -0.512  18.496  1.00  0.00     0.049 C 
HETATM   36  C15 UNL     1      -9.741   0.312  17.268  1.00  0.00     0.158 C 
HETATM   37  C16 UNL     1     -10.663   0.011  16.113  1.00  0.00     0.045 C 
HETATM   38  C17 UNL     1     -11.004   1.315  15.445  1.00  0.00     0.015 C 
HETATM   39  C18 UNL     1      -9.869  -0.910  15.203  1.00  0.00     0.160 C 
BRANCH  34  40
HETATM   40  O10 UNL     1      -9.987  -1.060  19.122  1.00  0.00    -0.388 OA
ATOM     41  H10 UNL     1      -9.436  -1.418  19.808  1.00  0.00     0.210 HD
ENDBRANCH  34  40
BRANCH  36  42
HETATM   42  O11 UNL     1     -10.459   1.158  18.132  1.00  0.00    -0.392 OA
ATOM     43  H11 UNL     1     -11.399   1.085  18.008  1.00  0.00     0.210 HD
ENDBRANCH  36  42
BRANCH  39  44
HETATM   44  O12 UNL     1      -8.551  -0.417  15.193  1.00  0.00    -0.311 OA
BRANCH  44  45
HETATM   45  C19 UNL     1      -7.813  -0.169  14.046  1.00  0.00     0.290 C 
HETATM   46  O13 UNL     1      -7.382  -1.172  13.422  1.00  0.00    -0.262 OA
BRANCH  45  47
HETATM   47  C20 UNL     1      -7.530   1.200  13.551  1.00  0.00     0.241 C 
BRANCH  47  48
HETATM   48  O14 UNL     1      -7.438   2.100  14.607  1.00  0.00    -0.383 OA
ATOM     49  H14 UNL     1      -8.170   1.998  15.205  1.00  0.00     0.210 HD
ENDBRANCH  47  48
BRANCH  47  50
HETATM   50  C21 UNL     1      -8.609   1.691  12.612  1.00  0.00     0.206 C 
BRANCH  50  51
HETATM   51  O15 UNL     1      -9.447   0.653  12.211  1.00  0.00    -0.398 OA
ATOM     52  H15 UNL     1      -9.851   0.836  11.370  1.00  0.00     0.209 HD
ENDBRANCH  50  51
ENDBRANCH  47  50
ENDBRANCH  45  47
ENDBRANCH  44  45
ENDBRANCH  39  44
ENDBRANCH  30  32
ENDBRANCH  27  30
ENDBRANCH   1  27
TORSDOF 19
ENDMDL
