MODEL 1
REMARK VINA RESULT: -8.822945565      0.000      0.000
REMARK  16 active torsions:
REMARK  status: ('A' for Active; 'I' for Inactive)
REMARK    1  A    between atoms: N2_7  and  C4_8 
REMARK    2  A    between atoms: C5_10  and  O2_11 
REMARK    3  A    between atoms: O2_11  and  C6_12 
REMARK    4  A    between atoms: C6_12  and  N3_13 
REMARK    5  A    between atoms: C6_12  and  C7_17 
REMARK    6  A    between atoms: C7_17  and  O3_18 
REMARK    7  A    between atoms: C7_17  and  C8_20 
REMARK    8  A    between atoms: C9_24  and  S1_25 
REMARK    9  A    between atoms: S1_25  and  C10_26 
REMARK   10  A    between atoms: C11_27  and  C12_28 
REMARK   11  A    between atoms: C13_29  and  O7_30 
REMARK   12  A    between atoms: C14_32  and  O8_33 
REMARK   13  A    between atoms: C15_35  and  N4_36 
REMARK   14  A    between atoms: C18_44  and  N7_45 
REMARK   15  A    between atoms: C19_48  and  O11_49 
REMARK   16  A    between atoms: C20_51  and  O12_52 
ROOT
HETATM    1  S1  UNL     1     -11.363  -3.899  10.180  1.00  0.00    -0.082 SA
ENDROOT
BRANCH   1   2
HETATM    2  C9  UNL     1     -11.083  -2.630   8.942  1.00  0.00     0.339 C 
HETATM    3  O6  UNL     1     -10.252  -3.130   7.942  1.00  0.00    -0.298 OA
HETATM    4  C5  UNL     1     -10.073  -2.209   6.913  1.00  0.00     0.422 C 
HETATM    5  O1  UNL     1     -10.662  -1.018   7.296  1.00  0.00    -0.288 OA
HETATM    6  C4  UNL     1     -12.034  -1.258   7.395  1.00  0.00     0.399 C 
HETATM    7  O13 UNL     1     -12.292  -2.163   8.423  1.00  0.00    -0.302 OA
BRANCH   4   8
HETATM    8  O2  UNL     1      -8.762  -2.093   6.512  1.00  0.00    -0.302 OA
BRANCH   8   9
HETATM    9  C6  UNL     1      -7.918  -1.528   7.433  1.00  0.00     0.362 C 
BRANCH   9  10
HETATM   10  N3  UNL     1      -7.325  -0.286   6.999  1.00  0.00    -0.050 N 
ATOM     11  H33 UNL     1      -6.756  -0.432   6.165  1.00  0.00     0.277 HD
ATOM     12  H32 UNL     1      -8.037   0.335   6.613  1.00  0.00     0.277 HD
ATOM     13  H31 UNL     1      -6.787   0.190   7.722  1.00  0.00     0.277 HD
ENDBRANCH   9  10
BRANCH   9  14
HETATM   14  C7  UNL     1      -6.819  -2.461   7.889  1.00  0.00     0.274 C 
BRANCH  14  15
HETATM   15  O3  UNL     1      -7.092  -3.781   7.558  1.00  0.00    -0.381 OA
ATOM     16  H3  UNL     1      -6.818  -4.380   8.242  1.00  0.00     0.210 HD
ENDBRANCH  14  15
BRANCH  14  17
HETATM   17  C8  UNL     1      -6.713  -2.389   9.375  1.00  0.00     0.207 C 
HETATM   18  O4  UNL     1      -7.655  -1.815   9.983  1.00  0.00    -0.646 OA
HETATM   19  O5  UNL     1      -5.666  -2.906  10.092  1.00  0.00    -0.646 OA
ENDBRANCH  14  17
ENDBRANCH   9  14
ENDBRANCH   8   9
ENDBRANCH   4   8
BRANCH   6  20
HETATM   20  N2  UNL     1     -12.784  -0.029   7.531  1.00  0.00    -0.248 N 
HETATM   21  C3  UNL     1     -14.086   0.159   7.764  1.00  0.00     0.119 A 
HETATM   22  C2  UNL     1     -14.355   1.511   7.814  1.00  0.00     0.068 A 
HETATM   23  C1  UNL     1     -13.140   2.137   7.598  1.00  0.00     0.115 A 
HETATM   24  N1  UNL     1     -12.884   3.396   7.554  1.00  0.00    -0.384 N 
HETATM   25  N8  UNL     1     -12.240   1.166   7.436  1.00  0.00    -0.280 N 
ATOM     26  H12 UNL     1     -13.572   4.139   7.679  1.00  0.00     0.157 HD
ATOM     27  H11 UNL     1     -11.988   3.858   7.395  1.00  0.00     0.157 HD
ATOM     28  H8  UNL     1     -11.249   1.331   7.259  1.00  0.00     0.189 HD
ENDBRANCH   6  20
ENDBRANCH   1   2
BRANCH   1  29
HETATM   29  C10 UNL     1     -11.108  -3.257  11.822  1.00  0.00     0.046 C 
HETATM   30  C11 UNL     1      -9.969  -3.437  12.489  1.00  0.00    -0.010 C 
BRANCH  30  31
HETATM   31  C12 UNL     1      -9.776  -2.901  13.841  1.00  0.00     0.071 C 
HETATM   32  C13 UNL     1      -9.498  -4.021  14.792  1.00  0.00     0.159 C 
HETATM   33  C14 UNL     1      -8.042  -4.454  14.588  1.00  0.00     0.175 C 
HETATM   34  C15 UNL     1      -7.209  -3.299  15.053  1.00  0.00     0.172 C 
HETATM   35  C19 UNL     1      -7.361  -2.239  13.950  1.00  0.00     0.175 C 
HETATM   36  C20 UNL     1      -8.798  -1.756  13.915  1.00  0.00     0.159 C 
BRANCH  32  37
HETATM   37  O7  UNL     1     -10.376  -5.047  14.562  1.00  0.00    -0.392 OA
ATOM     38  H7  UNL     1     -11.080  -4.743  14.001  1.00  0.00     0.210 HD
ENDBRANCH  32  37
BRANCH  33  39
HETATM   39  O8  UNL     1      -7.758  -5.663  15.169  1.00  0.00    -0.391 OA
ATOM     40  H8  UNL     1      -8.327  -5.863  15.903  1.00  0.00     0.210 HD
ENDBRANCH  33  39
BRANCH  34  41
HETATM   41  N4  UNL     1      -5.852  -3.575  15.350  1.00  0.00    -0.260 N 
HETATM   42  N5  UNL     1      -5.130  -4.596  14.919  1.00  0.00    -0.281 N 
HETATM   43  C16 UNL     1      -3.872  -4.560  15.390  1.00  0.00     0.117 A 
ATOM     44  H5  UNL     1      -5.486  -5.325  14.301  1.00  0.00     0.189 HD
HETATM   45  N6  UNL     1      -2.932  -5.427  15.139  1.00  0.00    -0.384 N 
HETATM   46  C17 UNL     1      -3.791  -3.439  16.174  1.00  0.00     0.105 A 
ATOM     47  H62 UNL     1      -2.993  -6.260  14.555  1.00  0.00     0.157 HD
ATOM     48  H61 UNL     1      -1.977  -5.400  15.497  1.00  0.00     0.157 HD
HETATM   49  C18 UNL     1      -5.050  -2.830  16.137  1.00  0.00     0.194 A 
BRANCH  49  50
HETATM   50  N7  UNL     1      -5.311  -1.627  16.855  1.00  0.00    -0.096 N 
HETATM   51  O9  UNL     1      -4.379  -0.792  17.068  1.00  0.00    -0.530 OA
HETATM   52  O10 UNL     1      -6.523  -1.263  17.361  1.00  0.00    -0.530 OA
ENDBRANCH  49  50
ENDBRANCH  34  41
BRANCH  35  53
HETATM   53  O11 UNL     1      -7.067  -2.834  12.750  1.00  0.00    -0.391 OA
ATOM     54  H11 UNL     1      -7.848  -3.283  12.447  1.00  0.00     0.210 HD
ENDBRANCH  35  53
BRANCH  36  55
HETATM   55  O12 UNL     1      -8.947  -1.000  12.752  1.00  0.00    -0.392 OA
ATOM     56  H12 UNL     1      -8.077  -0.768  12.449  1.00  0.00     0.210 HD
ENDBRANCH  36  55
ENDBRANCH  30  31
ENDBRANCH   1  29
TORSDOF 16
ENDMDL
MODEL 2
REMARK VINA RESULT: -8.243300381      2.585      3.365
REMARK  16 active torsions:
REMARK  status: ('A' for Active; 'I' for Inactive)
REMARK    1  A    between atoms: N2_7  and  C4_8 
REMARK    2  A    between atoms: C5_10  and  O2_11 
REMARK    3  A    between atoms: O2_11  and  C6_12 
REMARK    4  A    between atoms: C6_12  and  N3_13 
REMARK    5  A    between atoms: C6_12  and  C7_17 
REMARK    6  A    between atoms: C7_17  and  O3_18 
REMARK    7  A    between atoms: C7_17  and  C8_20 
REMARK    8  A    between atoms: C9_24  and  S1_25 
REMARK    9  A    between atoms: S1_25  and  C10_26 
REMARK   10  A    between atoms: C11_27  and  C12_28 
REMARK   11  A    between atoms: C13_29  and  O7_30 
REMARK   12  A    between atoms: C14_32  and  O8_33 
REMARK   13  A    between atoms: C15_35  and  N4_36 
REMARK   14  A    between atoms: C18_44  and  N7_45 
REMARK   15  A    between atoms: C19_48  and  O11_49 
REMARK   16  A    between atoms: C20_51  and  O12_52 
ROOT
HETATM    1  S1  UNL     1     -11.098   0.966  14.006  1.00  0.00    -0.082 SA
ENDROOT
BRANCH   1   2
HETATM    2  C9  UNL     1     -10.883   0.505  12.284  1.00  0.00     0.339 C 
HETATM    3  O6  UNL     1     -10.167  -0.687  12.207  1.00  0.00    -0.298 OA
HETATM    4  C5  UNL     1     -10.048  -1.131  10.892  1.00  0.00     0.422 C 
HETATM    5  O1  UNL     1     -10.553  -0.149  10.060  1.00  0.00    -0.288 OA
HETATM    6  C4  UNL     1     -11.918  -0.050  10.335  1.00  0.00     0.399 C 
HETATM    7  O13 UNL     1     -12.116   0.410  11.636  1.00  0.00    -0.302 OA
BRANCH   4   8
HETATM    8  O2  UNL     1      -8.775  -1.548  10.576  1.00  0.00    -0.302 OA
BRANCH   8   9
HETATM    9  C6  UNL     1      -8.708  -2.627   9.732  1.00  0.00     0.362 C 
BRANCH   9  10
HETATM   10  N3  UNL     1      -8.346  -3.860  10.388  1.00  0.00    -0.050 N 
ATOM     11  H33 UNL     1      -7.567  -3.711  11.029  1.00  0.00     0.277 HD
ATOM     12  H32 UNL     1      -9.067  -4.135  11.056  1.00  0.00     0.277 HD
ATOM     13  H31 UNL     1      -8.141  -4.626   9.746  1.00  0.00     0.277 HD
ENDBRANCH   9  10
BRANCH   9  14
HETATM   14  C7  UNL     1      -7.783  -2.410   8.556  1.00  0.00     0.274 C 
BRANCH  14  15
HETATM   15  O3  UNL     1      -8.325  -2.901   7.376  1.00  0.00    -0.381 OA
ATOM     16  H3  UNL     1      -9.216  -2.601   7.245  1.00  0.00     0.210 HD
ENDBRANCH  14  15
BRANCH  14  17
HETATM   17  C8  UNL     1      -6.512  -3.151   8.802  1.00  0.00     0.207 C 
HETATM   18  O4  UNL     1      -6.324  -4.196   8.125  1.00  0.00    -0.646 OA
HETATM   19  O5  UNL     1      -5.561  -2.757   9.708  1.00  0.00    -0.646 OA
ENDBRANCH  14  17
ENDBRANCH   9  14
ENDBRANCH   8   9
ENDBRANCH   4   8
BRANCH   6  20
HETATM   20  N2  UNL     1     -12.606   0.754   9.348  1.00  0.00    -0.248 N 
HETATM   21  C3  UNL     1     -13.724   0.499   8.663  1.00  0.00     0.119 A 
HETATM   22  C2  UNL     1     -14.005   1.560   7.829  1.00  0.00     0.068 A 
HETATM   23  C1  UNL     1     -12.992   2.478   8.044  1.00  0.00     0.115 A 
HETATM   24  N1  UNL     1     -12.822   3.627   7.494  1.00  0.00    -0.384 N 
HETATM   25  N8  UNL     1     -12.187   1.941   8.962  1.00  0.00    -0.280 N 
ATOM     26  H12 UNL     1     -13.438   4.038   6.792  1.00  0.00     0.157 HD
ATOM     27  H11 UNL     1     -12.075   4.304   7.653  1.00  0.00     0.157 HD
ATOM     28  H8  UNL     1     -11.348   2.396   9.321  1.00  0.00     0.189 HD
ENDBRANCH   6  20
ENDBRANCH   1   2
BRANCH   1  29
HETATM   29  C10 UNL     1      -9.765   0.336  15.007  1.00  0.00     0.046 C 
HETATM   30  C11 UNL     1      -9.375  -0.937  14.956  1.00  0.00    -0.010 C 
BRANCH  30  31
HETATM   31  C12 UNL     1      -8.276  -1.439  15.787  1.00  0.00     0.071 C 
HETATM   32  C13 UNL     1      -8.735  -2.631  16.564  1.00  0.00     0.159 C 
HETATM   33  C14 UNL     1      -8.763  -3.828  15.607  1.00  0.00     0.175 C 
HETATM   34  C15 UNL     1      -7.333  -4.092  15.249  1.00  0.00     0.172 C 
HETATM   35  C19 UNL     1      -6.954  -2.953  14.289  1.00  0.00     0.175 C 
HETATM   36  C20 UNL     1      -6.980  -1.636  15.040  1.00  0.00     0.159 C 
BRANCH  32  37
HETATM   37  O7  UNL     1      -9.966  -2.378  17.108  1.00  0.00    -0.392 OA
ATOM     38  H7  UNL     1     -10.529  -3.133  16.985  1.00  0.00     0.210 HD
ENDBRANCH  32  37
BRANCH  33  39
HETATM   39  O8  UNL     1      -9.457  -4.897  16.110  1.00  0.00    -0.391 OA
ATOM     40  H8  UNL     1      -9.502  -5.628  15.504  1.00  0.00     0.210 HD
ENDBRANCH  33  39
BRANCH  34  41
HETATM   41  N4  UNL     1      -7.040  -5.369  14.711  1.00  0.00    -0.260 N 
HETATM   42  N5  UNL     1      -7.868  -6.177  14.071  1.00  0.00    -0.281 N 
HETATM   43  C16 UNL     1      -7.269  -7.317  13.688  1.00  0.00     0.117 A 
ATOM     44  H5  UNL     1      -8.849  -5.961  13.888  1.00  0.00     0.189 HD
HETATM   45  N6  UNL     1      -7.827  -8.301  13.042  1.00  0.00    -0.384 N 
HETATM   46  C17 UNL     1      -5.970  -7.226  14.117  1.00  0.00     0.105 A 
ATOM     47  H62 UNL     1      -8.794  -8.368  12.723  1.00  0.00     0.157 HD
ATOM     48  H61 UNL     1      -7.372  -9.166  12.752  1.00  0.00     0.157 HD
HETATM   49  C18 UNL     1      -5.844  -5.989  14.759  1.00  0.00     0.194 A 
BRANCH  49  50
HETATM   50  N7  UNL     1      -4.605  -5.575  15.328  1.00  0.00    -0.096 N 
HETATM   51  O9  UNL     1      -3.895  -6.394  15.987  1.00  0.00    -0.530 OA
HETATM   52  O10 UNL     1      -4.078  -4.321  15.229  1.00  0.00    -0.530 OA
ENDBRANCH  49  50
ENDBRANCH  34  41
BRANCH  35  53
HETATM   53  O11 UNL     1      -7.895  -2.910  13.292  1.00  0.00    -0.391 OA
ATOM     54  H11 UNL     1      -7.924  -2.022  12.955  1.00  0.00     0.210 HD
ENDBRANCH  35  53
BRANCH  36  55
HETATM   55  O12 UNL     1      -6.885  -0.621  14.088  1.00  0.00    -0.392 OA
ATOM     56  H12 UNL     1      -6.278  -0.913  13.419  1.00  0.00     0.210 HD
ENDBRANCH  36  55
ENDBRANCH  30  31
ENDBRANCH   1  29
TORSDOF 16
ENDMDL
MODEL 3
REMARK VINA RESULT: -8.147781178      2.058      3.407
REMARK  16 active torsions:
REMARK  status: ('A' for Active; 'I' for Inactive)
REMARK    1  A    between atoms: N2_7  and  C4_8 
REMARK    2  A    between atoms: C5_10  and  O2_11 
REMARK    3  A    between atoms: O2_11  and  C6_12 
REMARK    4  A    between atoms: C6_12  and  N3_13 
REMARK    5  A    between atoms: C6_12  and  C7_17 
REMARK    6  A    between atoms: C7_17  and  O3_18 
REMARK    7  A    between atoms: C7_17  and  C8_20 
REMARK    8  A    between atoms: C9_24  and  S1_25 
REMARK    9  A    between atoms: S1_25  and  C10_26 
REMARK   10  A    between atoms: C11_27  and  C12_28 
REMARK   11  A    between atoms: C13_29  and  O7_30 
REMARK   12  A    between atoms: C14_32  and  O8_33 
REMARK   13  A    between atoms: C15_35  and  N4_36 
REMARK   14  A    between atoms: C18_44  and  N7_45 
REMARK   15  A    between atoms: C19_48  and  O11_49 
REMARK   16  A    between atoms: C20_51  and  O12_52 
ROOT
HETATM    1  S1  UNL     1     -11.135  -0.603  11.695  1.00  0.00    -0.082 SA
ENDROOT
BRANCH   1   2
HETATM    2  C9  UNL     1     -11.480   0.093  10.076  1.00  0.00     0.339 C 
HETATM    3  O6  UNL     1     -11.625  -0.936   9.149  1.00  0.00    -0.298 OA
HETATM    4  C5  UNL     1     -11.978  -0.450   7.892  1.00  0.00     0.422 C 
HETATM    5  O1  UNL     1     -11.920   0.931   7.935  1.00  0.00    -0.288 OA
HETATM    6  C4  UNL     1     -12.908   1.350   8.828  1.00  0.00     0.399 C 
HETATM    7  O13 UNL     1     -12.609   0.914  10.117  1.00  0.00    -0.302 OA
BRANCH   4   8
HETATM    8  O2  UNL     1     -11.257  -1.020   6.869  1.00  0.00    -0.302 OA
BRANCH   8   9
HETATM    9  C6  UNL     1      -9.896  -0.889   6.971  1.00  0.00     0.362 C 
BRANCH   9  10
HETATM   10  N3  UNL     1      -9.301  -0.120   5.905  1.00  0.00    -0.050 N 
ATOM     11  H33 UNL     1      -9.278  -0.661   5.041  1.00  0.00     0.277 HD
ATOM     12  H32 UNL     1      -9.924   0.635   5.618  1.00  0.00     0.277 HD
ATOM     13  H31 UNL     1      -8.374   0.244   6.126  1.00  0.00     0.277 HD
ENDBRANCH   9  10
BRANCH   9  14
HETATM   14  C7  UNL     1      -9.174  -2.213   7.080  1.00  0.00     0.274 C 
BRANCH  14  15
HETATM   15  O3  UNL     1      -9.835  -3.094   7.924  1.00  0.00    -0.381 OA
ATOM     16  H3  UNL     1      -9.994  -3.931   7.506  1.00  0.00     0.210 HD
ENDBRANCH  14  15
BRANCH  14  17
HETATM   17  C8  UNL     1      -7.820  -1.975   7.659  1.00  0.00     0.207 C 
HETATM   18  O4  UNL     1      -7.683  -0.950   8.379  1.00  0.00    -0.646 OA
HETATM   19  O5  UNL     1      -6.745  -2.799   7.452  1.00  0.00    -0.646 OA
ENDBRANCH  14  17
ENDBRANCH   9  14
ENDBRANCH   8   9
ENDBRANCH   4   8
BRANCH   6  20
HETATM   20  N2  UNL     1     -13.120   2.780   8.757  1.00  0.00    -0.248 N 
HETATM   21  C3  UNL     1     -13.431   3.649   9.724  1.00  0.00     0.119 A 
HETATM   22  C2  UNL     1     -13.534   4.915   9.188  1.00  0.00     0.068 A 
HETATM   23  C1  UNL     1     -13.269   4.769   7.838  1.00  0.00     0.115 A 
HETATM   24  N1  UNL     1     -13.247   5.671   6.923  1.00  0.00    -0.384 N 
HETATM   25  N8  UNL     1     -13.029   3.472   7.641  1.00  0.00    -0.280 N 
ATOM     26  H12 UNL     1     -13.430   6.663   7.074  1.00  0.00     0.157 HD
ATOM     27  H11 UNL     1     -13.051   5.563   5.928  1.00  0.00     0.157 HD
ATOM     28  H8  UNL     1     -12.801   3.065   6.733  1.00  0.00     0.189 HD
ENDBRANCH   6  20
ENDBRANCH   1   2
BRANCH   1  29
HETATM   29  C10 UNL     1     -10.656  -2.314  11.566  1.00  0.00     0.046 C 
HETATM   30  C11 UNL     1      -9.577  -2.800  12.178  1.00  0.00    -0.010 C 
BRANCH  30  31
HETATM   31  C12 UNL     1      -9.197  -4.213  12.060  1.00  0.00     0.071 C 
HETATM   32  C13 UNL     1      -7.868  -4.323  11.385  1.00  0.00     0.159 C 
HETATM   33  C14 UNL     1      -6.792  -3.958  12.414  1.00  0.00     0.175 C 
HETATM   34  C15 UNL     1      -6.827  -5.050  13.438  1.00  0.00     0.172 C 
HETATM   35  C19 UNL     1      -8.110  -4.787  14.245  1.00  0.00     0.175 C 
HETATM   36  C20 UNL     1      -9.315  -4.991  13.347  1.00  0.00     0.159 C 
BRANCH  32  37
HETATM   37  O7  UNL     1      -7.837  -3.495  10.294  1.00  0.00    -0.392 OA
ATOM     38  H7  UNL     1      -6.942  -3.401   9.991  1.00  0.00     0.210 HD
ENDBRANCH  32  37
BRANCH  33  39
HETATM   39  O8  UNL     1      -5.568  -3.718  11.844  1.00  0.00    -0.391 OA
ATOM     40  H8  UNL     1      -4.850  -3.803  12.460  1.00  0.00     0.210 HD
ENDBRANCH  33  39
BRANCH  34  41
HETATM   41  N4  UNL     1      -5.687  -5.177  14.269  1.00  0.00    -0.260 N 
HETATM   42  N5  UNL     1      -4.943  -4.201  14.762  1.00  0.00    -0.281 N 
HETATM   43  C16 UNL     1      -3.933  -4.667  15.516  1.00  0.00     0.117 A 
ATOM     44  H5  UNL     1      -5.116  -3.210  14.591  1.00  0.00     0.189 HD
HETATM   45  N6  UNL     1      -3.037  -3.947  16.131  1.00  0.00    -0.384 N 
HETATM   46  C17 UNL     1      -4.043  -6.033  15.498  1.00  0.00     0.105 A 
ATOM     47  H62 UNL     1      -2.956  -2.931  16.144  1.00  0.00     0.157 HD
ATOM     48  H61 UNL     1      -2.270  -4.301  16.703  1.00  0.00     0.157 HD
HETATM   49  C18 UNL     1      -5.156  -6.336  14.707  1.00  0.00     0.194 A 
BRANCH  49  50
HETATM   50  N7  UNL     1      -5.555  -7.685  14.479  1.00  0.00    -0.096 N 
HETATM   51  O9  UNL     1      -4.711  -8.628  14.568  1.00  0.00    -0.530 OA
HETATM   52  O10 UNL     1      -6.819  -8.086  14.161  1.00  0.00    -0.530 OA
ENDBRANCH  49  50
ENDBRANCH  34  41
BRANCH  35  53
HETATM   53  O11 UNL     1      -8.086  -3.481  14.661  1.00  0.00    -0.391 OA
ATOM     54  H11 UNL     1      -7.324  -3.364  15.217  1.00  0.00     0.210 HD
ENDBRANCH  35  53
BRANCH  36  55
HETATM   55  O12 UNL     1     -10.424  -4.499  14.036  1.00  0.00    -0.392 OA
ATOM     56  H12 UNL     1     -10.621  -3.639  13.683  1.00  0.00     0.210 HD
ENDBRANCH  36  55
ENDBRANCH  30  31
ENDBRANCH   1  29
TORSDOF 16
ENDMDL
MODEL 4
REMARK VINA RESULT: -8.095161996      3.071      8.309
REMARK  16 active torsions:
REMARK  status: ('A' for Active; 'I' for Inactive)
REMARK    1  A    between atoms: N2_7  and  C4_8 
REMARK    2  A    between atoms: C5_10  and  O2_11 
REMARK    3  A    between atoms: O2_11  and  C6_12 
REMARK    4  A    between atoms: C6_12  and  N3_13 
REMARK    5  A    between atoms: C6_12  and  C7_17 
REMARK    6  A    between atoms: C7_17  and  O3_18 
REMARK    7  A    between atoms: C7_17  and  C8_20 
REMARK    8  A    between atoms: C9_24  and  S1_25 
REMARK    9  A    between atoms: S1_25  and  C10_26 
REMARK   10  A    between atoms: C11_27  and  C12_28 
REMARK   11  A    between atoms: C13_29  and  O7_30 
REMARK   12  A    between atoms: C14_32  and  O8_33 
REMARK   13  A    between atoms: C15_35  and  N4_36 
REMARK   14  A    between atoms: C18_44  and  N7_45 
REMARK   15  A    between atoms: C19_48  and  O11_49 
REMARK   16  A    between atoms: C20_51  and  O12_52 
ROOT
HETATM    1  S1  UNL     1     -10.533  -3.041  16.344  1.00  0.00    -0.082 SA
ENDROOT
BRANCH   1   2
HETATM    2  C9  UNL     1      -8.757  -2.800  16.432  1.00  0.00     0.339 C 
HETATM    3  O6  UNL     1      -8.154  -3.359  15.308  1.00  0.00    -0.298 OA
HETATM    4  C5  UNL     1      -6.782  -3.123  15.288  1.00  0.00     0.422 C 
HETATM    5  O1  UNL     1      -6.431  -2.533  16.489  1.00  0.00    -0.288 OA
HETATM    6  C4  UNL     1      -7.060  -1.286  16.524  1.00  0.00     0.399 C 
HETATM    7  O13 UNL     1      -8.444  -1.445  16.565  1.00  0.00    -0.302 OA
BRANCH   4   8
HETATM    8  O2  UNL     1      -6.045  -4.240  14.965  1.00  0.00    -0.302 OA
BRANCH   8   9
HETATM    9  C6  UNL     1      -6.757  -5.263  14.393  1.00  0.00     0.362 C 
BRANCH   9  10
HETATM   10  N3  UNL     1      -6.944  -6.401  15.261  1.00  0.00    -0.050 N 
ATOM     11  H33 UNL     1      -6.045  -6.813  15.512  1.00  0.00     0.277 HD
ATOM     12  H32 UNL     1      -7.258  -6.100  16.184  1.00  0.00     0.277 HD
ATOM     13  H31 UNL     1      -7.571  -7.111  14.882  1.00  0.00     0.277 HD
ENDBRANCH   9  10
BRANCH   9  14
HETATM   14  C7  UNL     1      -6.173  -5.739  13.082  1.00  0.00     0.274 C 
BRANCH  14  15
HETATM   15  O3  UNL     1      -5.837  -4.678  12.253  1.00  0.00    -0.381 OA
ATOM     16  H3  UNL     1      -5.759  -4.950  11.346  1.00  0.00     0.210 HD
ENDBRANCH  14  15
BRANCH  14  17
HETATM   17  C8  UNL     1      -7.198  -6.553  12.368  1.00  0.00     0.207 C 
HETATM   18  O4  UNL     1      -7.513  -6.178  11.207  1.00  0.00    -0.646 OA
HETATM   19  O5  UNL     1      -7.800  -7.664  12.901  1.00  0.00    -0.646 OA
ENDBRANCH  14  17
ENDBRANCH   9  14
ENDBRANCH   8   9
ENDBRANCH   4   8
BRANCH   6  20
HETATM   20  N2  UNL     1      -6.560  -0.466  17.606  1.00  0.00    -0.248 N 
HETATM   21  C3  UNL     1      -7.213   0.363  18.426  1.00  0.00     0.119 A 
HETATM   22  C2  UNL     1      -6.321   0.934  19.309  1.00  0.00     0.068 A 
HETATM   23  C1  UNL     1      -5.085   0.406  18.981  1.00  0.00     0.115 A 
HETATM   24  N1  UNL     1      -3.944   0.638  19.525  1.00  0.00    -0.384 N 
HETATM   25  N8  UNL     1      -5.291  -0.424  17.957  1.00  0.00    -0.280 N 
ATOM     26  H12 UNL     1      -3.786   1.272  20.308  1.00  0.00     0.157 HD
ATOM     27  H11 UNL     1      -3.033   0.248  19.283  1.00  0.00     0.157 HD
ATOM     28  H8  UNL     1      -4.554  -0.962  17.501  1.00  0.00     0.189 HD
ENDBRANCH   6  20
ENDBRANCH   1   2
BRANCH   1  29
HETATM   29  C10 UNL     1     -11.088  -3.095  14.651  1.00  0.00     0.046 C 
HETATM   30  C11 UNL     1     -10.849  -2.106  13.792  1.00  0.00    -0.010 C 
BRANCH  30  31
HETATM   31  C12 UNL     1     -11.313  -2.167  12.401  1.00  0.00     0.071 C 
HETATM   32  C13 UNL     1     -10.767  -1.004  11.635  1.00  0.00     0.159 C 
HETATM   33  C14 UNL     1      -9.297  -1.303  11.321  1.00  0.00     0.175 C 
HETATM   34  C15 UNL     1      -9.315  -2.456  10.366  1.00  0.00     0.172 C 
HETATM   35  C19 UNL     1      -9.687  -3.673  11.229  1.00  0.00     0.175 C 
HETATM   36  C20 UNL     1     -11.105  -3.507  11.741  1.00  0.00     0.159 C 
BRANCH  32  37
HETATM   37  O7  UNL     1     -10.912   0.140  12.374  1.00  0.00    -0.392 OA
ATOM     38  H7  UNL     1     -10.502   0.866  11.920  1.00  0.00     0.210 HD
ENDBRANCH  32  37
BRANCH  33  39
HETATM   39  O8  UNL     1      -8.605  -0.196  10.904  1.00  0.00    -0.391 OA
ATOM     40  H8  UNL     1      -8.190   0.273  11.619  1.00  0.00     0.210 HD
ENDBRANCH  33  39
BRANCH  34  41
HETATM   41  N4  UNL     1      -8.136  -2.673   9.611  1.00  0.00    -0.260 N 
HETATM   42  N5  UNL     1      -6.960  -3.075  10.062  1.00  0.00    -0.281 N 
HETATM   43  C16 UNL     1      -6.051  -3.181   9.079  1.00  0.00     0.117 A 
ATOM     44  H5  UNL     1      -6.765  -3.280  11.043  1.00  0.00     0.189 HD
HETATM   45  N6  UNL     1      -4.809  -3.553   9.216  1.00  0.00    -0.384 N 
HETATM   46  C17 UNL     1      -6.694  -2.820   7.924  1.00  0.00     0.105 A 
ATOM     47  H62 UNL     1      -4.331  -3.822  10.076  1.00  0.00     0.157 HD
ATOM     48  H61 UNL     1      -4.119  -3.634   8.470  1.00  0.00     0.157 HD
HETATM   49  C18 UNL     1      -8.010  -2.503   8.280  1.00  0.00     0.194 A 
BRANCH  49  50
HETATM   50  N7  UNL     1      -8.959  -2.084   7.303  1.00  0.00    -0.096 N 
HETATM   51  O9  UNL     1      -8.819  -0.972   6.708  1.00  0.00    -0.530 OA
HETATM   52  O10 UNL     1     -10.058  -2.795   6.922  1.00  0.00    -0.530 OA
ENDBRANCH  49  50
ENDBRANCH  34  41
BRANCH  35  53
HETATM   53  O11 UNL     1      -8.833  -3.707  12.300  1.00  0.00    -0.391 OA
ATOM     54  H11 UNL     1      -8.213  -4.414  12.158  1.00  0.00     0.210 HD
ENDBRANCH  35  53
BRANCH  36  55
HETATM   55  O12 UNL     1     -11.306  -4.489  12.712  1.00  0.00    -0.392 OA
ATOM     56  H12 UNL     1     -11.881  -4.123  13.374  1.00  0.00     0.210 HD
ENDBRANCH  36  55
ENDBRANCH  30  31
ENDBRANCH   1  29
TORSDOF 16
ENDMDL
MODEL 5
REMARK VINA RESULT: -7.974356283      2.336      8.746
REMARK  16 active torsions:
REMARK  status: ('A' for Active; 'I' for Inactive)
REMARK    1  A    between atoms: N2_7  and  C4_8 
REMARK    2  A    between atoms: C5_10  and  O2_11 
REMARK    3  A    between atoms: O2_11  and  C6_12 
REMARK    4  A    between atoms: C6_12  and  N3_13 
REMARK    5  A    between atoms: C6_12  and  C7_17 
REMARK    6  A    between atoms: C7_17  and  O3_18 
REMARK    7  A    between atoms: C7_17  and  C8_20 
REMARK    8  A    between atoms: C9_24  and  S1_25 
REMARK    9  A    between atoms: S1_25  and  C10_26 
REMARK   10  A    between atoms: C11_27  and  C12_28 
REMARK   11  A    between atoms: C13_29  and  O7_30 
REMARK   12  A    between atoms: C14_32  and  O8_33 
REMARK   13  A    between atoms: C15_35  and  N4_36 
REMARK   14  A    between atoms: C18_44  and  N7_45 
REMARK   15  A    between atoms: C19_48  and  O11_49 
REMARK   16  A    between atoms: C20_51  and  O12_52 
ROOT
HETATM    1  S1  UNL     1      -9.342  -4.583  15.355  1.00  0.00    -0.082 SA
ENDROOT
BRANCH   1   2
HETATM    2  C9  UNL     1      -7.736  -4.583  14.554  1.00  0.00     0.339 C 
HETATM    3  O6  UNL     1      -7.850  -4.025  13.282  1.00  0.00    -0.298 OA
HETATM    4  C5  UNL     1      -6.612  -3.925  12.651  1.00  0.00     0.422 C 
HETATM    5  O1  UNL     1      -5.675  -4.564  13.443  1.00  0.00    -0.288 OA
HETATM    6  C4  UNL     1      -5.587  -3.838  14.632  1.00  0.00     0.399 C 
HETATM    7  O13 UNL     1      -6.792  -3.909  15.330  1.00  0.00    -0.302 OA
BRANCH   4   8
HETATM    8  O2  UNL     1      -6.637  -4.347  11.342  1.00  0.00    -0.302 OA
BRANCH   8   9
HETATM    9  C6  UNL     1      -7.254  -3.493  10.465  1.00  0.00     0.362 C 
BRANCH   9  10
HETATM   10  N3  UNL     1      -8.665  -3.747  10.298  1.00  0.00    -0.050 N 
ATOM     11  H33 UNL     1      -9.036  -4.256  11.101  1.00  0.00     0.277 HD
ATOM     12  H32 UNL     1      -9.197  -2.881  10.383  1.00  0.00     0.277 HD
ATOM     13  H31 UNL     1      -8.898  -4.228   9.429  1.00  0.00     0.277 HD
ENDBRANCH   9  10
BRANCH   9  14
HETATM   14  C7  UNL     1      -6.599  -3.457   9.103  1.00  0.00     0.274 C 
BRANCH  14  15
HETATM   15  O3  UNL     1      -5.309  -2.949   9.164  1.00  0.00    -0.381 OA
ATOM     16  H3  UNL     1      -4.742  -3.348   8.515  1.00  0.00     0.210 HD
ENDBRANCH  14  15
BRANCH  14  17
HETATM   17  C8  UNL     1      -7.389  -2.556   8.214  1.00  0.00     0.207 C 
HETATM   18  O4  UNL     1      -7.926  -3.084   7.205  1.00  0.00    -0.646 OA
HETATM   19  O5  UNL     1      -7.553  -1.214   8.439  1.00  0.00    -0.646 OA
ENDBRANCH  14  17
ENDBRANCH   9  14
ENDBRANCH   8   9
ENDBRANCH   4   8
BRANCH   6  20
HETATM   20  N2  UNL     1      -4.454  -4.252  15.429  1.00  0.00    -0.248 N 
HETATM   21  C3  UNL     1      -3.970  -5.476  15.660  1.00  0.00     0.119 A 
HETATM   22  C2  UNL     1      -2.869  -5.388  16.486  1.00  0.00     0.068 A 
HETATM   23  C1  UNL     1      -2.709  -4.038  16.746  1.00  0.00     0.115 A 
HETATM   24  N1  UNL     1      -1.816  -3.461  17.468  1.00  0.00    -0.384 N 
HETATM   25  N8  UNL     1      -3.684  -3.411  16.088  1.00  0.00    -0.280 N 
ATOM     26  H12 UNL     1      -1.070  -3.941  17.972  1.00  0.00     0.157 HD
ATOM     27  H11 UNL     1      -1.698  -2.466  17.660  1.00  0.00     0.157 HD
ATOM     28  H8  UNL     1      -3.818  -2.399  16.094  1.00  0.00     0.189 HD
ENDBRANCH   6  20
ENDBRANCH   1   2
BRANCH   1  29
HETATM   29  C10 UNL     1     -10.285  -3.142  14.896  1.00  0.00     0.046 C 
HETATM   30  C11 UNL     1     -10.621  -2.882  13.633  1.00  0.00    -0.010 C 
BRANCH  30  31
HETATM   31  C12 UNL     1     -11.398  -1.691  13.273  1.00  0.00     0.071 C 
HETATM   32  C13 UNL     1     -10.502  -0.680  12.631  1.00  0.00     0.159 C 
HETATM   33  C14 UNL     1     -10.242  -1.136  11.191  1.00  0.00     0.175 C 
HETATM   34  C15 UNL     1     -11.561  -1.026  10.490  1.00  0.00     0.172 C 
HETATM   35  C19 UNL     1     -12.390  -2.204  11.029  1.00  0.00     0.175 C 
HETATM   36  C20 UNL     1     -12.661  -1.989  12.505  1.00  0.00     0.159 C 
BRANCH  32  37
HETATM   37  O7  UNL     1      -9.343  -0.571  13.353  1.00  0.00    -0.392 OA
ATOM     38  H7  UNL     1      -9.304   0.284  13.765  1.00  0.00     0.210 HD
ENDBRANCH  32  37
BRANCH  33  39
HETATM   39  O8  UNL     1      -9.198  -0.473  10.602  1.00  0.00    -0.391 OA
ATOM     40  H8  UNL     1      -8.468  -0.331  11.194  1.00  0.00     0.210 HD
ENDBRANCH  33  39
BRANCH  34  41
HETATM   41  N4  UNL     1     -11.525  -0.999   9.074  1.00  0.00    -0.260 N 
HETATM   42  N5  UNL     1     -10.806  -1.770   8.276  1.00  0.00    -0.281 N 
HETATM   43  C16 UNL     1     -11.007  -1.483   6.979  1.00  0.00     0.117 A 
ATOM     44  H5  UNL     1     -10.172  -2.498   8.606  1.00  0.00     0.189 HD
HETATM   45  N6  UNL     1     -10.440  -2.072   5.964  1.00  0.00    -0.384 N 
HETATM   46  C17 UNL     1     -11.915  -0.457   6.952  1.00  0.00     0.105 A 
ATOM     47  H62 UNL     1      -9.764  -2.835   5.985  1.00  0.00     0.157 HD
ATOM     48  H61 UNL     1     -10.592  -1.854   4.980  1.00  0.00     0.157 HD
HETATM   49  C18 UNL     1     -12.231  -0.166   8.284  1.00  0.00     0.194 A 
BRANCH  49  50
HETATM   50  N7  UNL     1     -13.160   0.864   8.614  1.00  0.00    -0.096 N 
HETATM   51  O9  UNL     1     -12.835   2.085   8.495  1.00  0.00    -0.530 OA
HETATM   52  O10 UNL     1     -14.429   0.659   9.069  1.00  0.00    -0.530 OA
ENDBRANCH  49  50
ENDBRANCH  34  41
BRANCH  35  53
HETATM   53  O11 UNL     1     -11.647  -3.347  10.879  1.00  0.00    -0.391 OA
ATOM     54  H11 UNL     1     -10.730  -3.114  10.974  1.00  0.00     0.210 HD
ENDBRANCH  35  53
BRANCH  36  55
HETATM   55  O12 UNL     1     -13.183  -3.183  13.002  1.00  0.00    -0.392 OA
ATOM     56  H12 UNL     1     -12.870  -3.886  12.445  1.00  0.00     0.210 HD
ENDBRANCH  36  55
ENDBRANCH  30  31
ENDBRANCH   1  29
TORSDOF 16
ENDMDL
