MODEL 1
REMARK VINA RESULT: -5.502474313      0.000      0.000
REMARK  3 active torsions:
REMARK  status: ('A' for Active; 'I' for Inactive)
REMARK    1  A    between atoms: N1_1  and  N2_4 
REMARK    2  A    between atoms: N3_7  and  C3_8 
REMARK    3  A    between atoms: C3_8  and  C4_9 
ROOT
HETATM    1  N2  UNL     1      25.614  -4.301  15.256  1.00  0.00    -0.232 NA
HETATM    2  C1  UNL     1      25.482  -5.717  15.530  1.00  0.00     0.133 C 
HETATM    3  C2  UNL     1      26.597  -6.402  14.860  1.00  0.00     0.143 C 
HETATM    4  N3  UNL     1      27.316  -5.671  13.826  1.00  0.00    -0.370 N 
HETATM    5  C8  UNL     1      26.549  -4.762  13.087  1.00  0.00     0.079 C 
HETATM    6  C9  UNL     1      25.355  -4.197  13.834  1.00  0.00     0.157 C 
ENDROOT
BRANCH   4   7
HETATM    7  C3  UNL     1      28.264  -6.482  13.194  1.00  0.00     0.079 C 
BRANCH   7   8
HETATM    8  C4  UNL     1      27.972  -6.796  11.767  1.00  0.00     0.095 C 
HETATM    9  C5  UNL     1      29.293  -7.105  11.020  1.00  0.00     0.094 C 
HETATM   10  S1  UNL     1      28.819  -6.924   9.254  1.00  0.00    -0.167 SA
HETATM   11  C6  UNL     1      27.289  -7.906   8.974  1.00  0.00     0.084 C 
HETATM   12  C7  UNL     1      27.254  -9.007  10.018  1.00  0.00     0.084 C 
HETATM   13  S2  UNL     1      26.919  -8.274  11.647  1.00  0.00    -0.157 SA
ENDBRANCH   7   8
ENDBRANCH   4   7
BRANCH   1  14
HETATM   14  N1  UNL     1      24.748  -3.591  16.052  1.00  0.00    -0.363 NA
ATOM     15  H12 UNL     1      24.165  -4.162  16.663  1.00  0.00     0.171 HD
ATOM     16  H11 UNL     1      25.276  -3.001  16.695  1.00  0.00     0.171 HD
ENDBRANCH   1  14
TORSDOF 3
ENDMDL
MODEL 2
REMARK VINA RESULT: -5.321119422      4.642      5.665
REMARK  3 active torsions:
REMARK  status: ('A' for Active; 'I' for Inactive)
REMARK    1  A    between atoms: N1_1  and  N2_4 
REMARK    2  A    between atoms: N3_7  and  C3_8 
REMARK    3  A    between atoms: C3_8  and  C4_9 
ROOT
HETATM    1  N2  UNL     1      29.227   0.626  15.385  1.00  0.00    -0.232 NA
HETATM    2  C1  UNL     1      29.261   0.637  13.937  1.00  0.00     0.133 C 
HETATM    3  C2  UNL     1      29.166  -0.758  13.483  1.00  0.00     0.143 C 
HETATM    4  N3  UNL     1      29.436  -1.806  14.457  1.00  0.00    -0.370 N 
HETATM    5  C8  UNL     1      30.380  -1.486  15.441  1.00  0.00     0.079 C 
HETATM    6  C9  UNL     1      30.478  -0.005  15.757  1.00  0.00     0.157 C 
ENDROOT
BRANCH   4   7
HETATM    7  C3  UNL     1      29.431  -3.071  13.860  1.00  0.00     0.079 C 
BRANCH   7   8
HETATM    8  C4  UNL     1      28.324  -3.967  14.295  1.00  0.00     0.095 C 
HETATM    9  C5  UNL     1      27.147  -3.869  13.293  1.00  0.00     0.094 C 
HETATM   10  S1  UNL     1      25.739  -4.569  14.241  1.00  0.00    -0.167 SA
HETATM   11  C6  UNL     1      26.279  -6.178  14.953  1.00  0.00     0.084 C 
HETATM   12  C7  UNL     1      27.394  -6.716  14.076  1.00  0.00     0.084 C 
HETATM   13  S2  UNL     1      28.882  -5.698  14.312  1.00  0.00    -0.157 SA
ENDBRANCH   7   8
ENDBRANCH   4   7
BRANCH   1  14
HETATM   14  N1  UNL     1      29.066   1.906  15.855  1.00  0.00    -0.363 NA
ATOM     15  H12 UNL     1      28.096   2.205  15.957  1.00  0.00     0.171 HD
ATOM     16  H11 UNL     1      29.445   1.976  16.800  1.00  0.00     0.171 HD
ENDBRANCH   1  14
TORSDOF 3
ENDMDL
MODEL 3
REMARK VINA RESULT: -5.315949180      4.019      5.172
REMARK  3 active torsions:
REMARK  status: ('A' for Active; 'I' for Inactive)
REMARK    1  A    between atoms: N1_1  and  N2_4 
REMARK    2  A    between atoms: N3_7  and  C3_8 
REMARK    3  A    between atoms: C3_8  and  C4_9 
ROOT
HETATM    1  N2  UNL     1      25.872  -6.675  15.054  1.00  0.00    -0.232 NA
HETATM    2  C1  UNL     1      26.771  -7.557  14.339  1.00  0.00     0.133 C 
HETATM    3  C2  UNL     1      28.098  -6.922  14.329  1.00  0.00     0.143 C 
HETATM    4  N3  UNL     1      28.170  -5.503  14.645  1.00  0.00    -0.370 N 
HETATM    5  C8  UNL     1      27.061  -4.741  14.255  1.00  0.00     0.079 C 
HETATM    6  C9  UNL     1      25.759  -5.518  14.189  1.00  0.00     0.157 C 
ENDROOT
BRANCH   4   7
HETATM    7  C3  UNL     1      29.468  -5.009  14.479  1.00  0.00     0.079 C 
BRANCH   7   8
HETATM    8  C4  UNL     1      29.561  -3.533  14.301  1.00  0.00     0.095 C 
HETATM    9  C5  UNL     1      30.375  -2.917  15.465  1.00  0.00     0.094 C 
HETATM   10  S1  UNL     1      29.929  -1.137  15.383  1.00  0.00    -0.167 SA
HETATM   11  C6  UNL     1      30.143  -0.578  13.644  1.00  0.00     0.084 C 
HETATM   12  C7  UNL     1      31.167  -1.489  12.993  1.00  0.00     0.084 C 
HETATM   13  S2  UNL     1      30.434  -3.136  12.755  1.00  0.00    -0.157 SA
ENDBRANCH   7   8
ENDBRANCH   4   7
BRANCH   1  14
HETATM   14  N1  UNL     1      24.688  -7.323  15.305  1.00  0.00    -0.363 NA
ATOM     15  H12 UNL     1      24.769  -8.141  15.908  1.00  0.00     0.171 HD
ATOM     16  H11 UNL     1      24.057  -6.704  15.815  1.00  0.00     0.171 HD
ENDBRANCH   1  14
TORSDOF 3
ENDMDL
MODEL 4
REMARK VINA RESULT: -5.315502267      2.587      3.112
REMARK  3 active torsions:
REMARK  status: ('A' for Active; 'I' for Inactive)
REMARK    1  A    between atoms: N1_1  and  N2_4 
REMARK    2  A    between atoms: N3_7  and  C3_8 
REMARK    3  A    between atoms: C3_8  and  C4_9 
ROOT
HETATM    1  N2  UNL     1      25.958  -3.456  15.569  1.00  0.00    -0.232 NA
HETATM    2  C1  UNL     1      25.975  -4.024  14.237  1.00  0.00     0.133 C 
HETATM    3  C2  UNL     1      27.378  -4.295  13.891  1.00  0.00     0.143 C 
HETATM    4  N3  UNL     1      28.408  -3.645  14.688  1.00  0.00    -0.370 N 
HETATM    5  C8  UNL     1      28.076  -2.379  15.188  1.00  0.00     0.079 C 
HETATM    6  C9  UNL     1      26.590  -2.162  15.405  1.00  0.00     0.157 C 
ENDROOT
BRANCH   4   7
HETATM    7  C3  UNL     1      29.685  -3.894  14.173  1.00  0.00     0.079 C 
BRANCH   7   8
HETATM    8  C4  UNL     1      29.707  -4.526  12.825  1.00  0.00     0.095 C 
HETATM    9  C5  UNL     1      30.548  -3.660  11.854  1.00  0.00     0.094 C 
HETATM   10  S1  UNL     1      30.022  -4.265  10.202  1.00  0.00    -0.167 SA
HETATM   11  C6  UNL     1      30.131  -6.102  10.209  1.00  0.00     0.084 C 
HETATM   12  C7  UNL     1      31.161  -6.495  11.252  1.00  0.00     0.084 C 
HETATM   13  S2  UNL     1      30.489  -6.166  12.909  1.00  0.00    -0.157 SA
ENDBRANCH   7   8
ENDBRANCH   4   7
BRANCH   1  14
HETATM   14  N1  UNL     1      24.668  -3.411  16.038  1.00  0.00    -0.363 NA
ATOM     15  H12 UNL     1      24.113  -4.244  15.844  1.00  0.00     0.171 HD
ATOM     16  H11 UNL     1      24.673  -3.351  17.057  1.00  0.00     0.171 HD
ENDBRANCH   1  14
TORSDOF 3
ENDMDL
MODEL 5
REMARK VINA RESULT: -5.257642732      4.513      5.830
REMARK  3 active torsions:
REMARK  status: ('A' for Active; 'I' for Inactive)
REMARK    1  A    between atoms: N1_1  and  N2_4 
REMARK    2  A    between atoms: N3_7  and  C3_8 
REMARK    3  A    between atoms: C3_8  and  C4_9 
ROOT
HETATM    1  N2  UNL     1      26.133  -5.238  15.163  1.00  0.00    -0.232 NA
HETATM    2  C1  UNL     1      27.272  -5.970  14.649  1.00  0.00     0.133 C 
HETATM    3  C2  UNL     1      28.145  -5.006  13.964  1.00  0.00     0.143 C 
HETATM    4  N3  UNL     1      27.578  -3.712  13.612  1.00  0.00    -0.370 N 
HETATM    5  C8  UNL     1      26.212  -3.717  13.299  1.00  0.00     0.079 C 
HETATM    6  C9  UNL     1      25.420  -4.822  13.972  1.00  0.00     0.157 C 
ENDROOT
BRANCH   4   7
HETATM    7  C3  UNL     1      28.477  -2.947  12.862  1.00  0.00     0.079 C 
BRANCH   7   8
HETATM    8  C4  UNL     1      29.259  -1.949  13.643  1.00  0.00     0.095 C 
HETATM    9  C5  UNL     1      30.428  -1.412  12.782  1.00  0.00     0.094 C 
HETATM   10  S1  UNL     1      31.547  -0.661  14.030  1.00  0.00    -0.167 SA
HETATM   11  C6  UNL     1      30.541   0.445  15.102  1.00  0.00     0.084 C 
HETATM   12  C7  UNL     1      29.331   0.885  14.298  1.00  0.00     0.084 C 
HETATM   13  S2  UNL     1      28.210  -0.530  14.084  1.00  0.00    -0.157 SA
ENDBRANCH   7   8
ENDBRANCH   4   7
BRANCH   1  14
HETATM   14  N1  UNL     1      25.413  -6.037  16.016  1.00  0.00    -0.363 NA
ATOM     15  H12 UNL     1      25.047  -6.891  15.594  1.00  0.00     0.171 HD
ATOM     16  H11 UNL     1      26.016  -6.373  16.767  1.00  0.00     0.171 HD
ENDBRANCH   1  14
TORSDOF 3
ENDMDL
