MODEL 1
REMARK VINA RESULT: -6.430175239      0.000      0.000
REMARK  3 active torsions:
REMARK  status: ('A' for Active; 'I' for Inactive)
REMARK    1  A    between atoms: O1_2  and  C2_3 
REMARK    2  A    between atoms: C4_6  and  O3_7 
REMARK    3  A    between atoms: C10_15  and  O5_16 
ROOT
HETATM    1  C2  UNL     1      27.617  -7.056  14.732  1.00  0.00     0.269 C 
HETATM    2  O2  UNL     1      26.537  -6.682  15.531  1.00  0.00    -0.350 OA
HETATM    3  C3  UNL     1      25.924  -5.609  14.955  1.00  0.00     0.194 C 
HETATM    4  C4  UNL     1      25.222  -5.839  13.643  1.00  0.00     0.182 C 
HETATM    5  C5  UNL     1      26.150  -4.792  13.026  1.00  0.00     0.191 C 
HETATM    6  O4  UNL     1      26.875  -5.261  11.960  1.00  0.00    -0.369 OA
HETATM    7  C6  UNL     1      27.941  -6.009  12.443  1.00  0.00     0.065 C 
HETATM    8  C7  UNL     1      29.199  -5.333  11.862  1.00  0.00     0.046 C 
HETATM    9  C8  UNL     1      27.897  -7.361  11.824  1.00  0.00     0.046 C 
HETATM   10  C9  UNL     1      28.007  -5.913  13.897  1.00  0.00     0.114 C 
HETATM   11  C10 UNL     1      26.985  -4.856  14.243  1.00  0.00     0.128 C 
ENDROOT
BRANCH   1  12
HETATM   12  O1  UNL     1      28.630  -7.414  15.631  1.00  0.00    -0.365 OA
HETATM   13  C1  UNL     1      29.883  -7.010  15.182  1.00  0.00     0.204 C 
ENDBRANCH   1  12
BRANCH  11  14
HETATM   14  O5  UNL     1      27.473  -3.711  14.801  1.00  0.00    -0.379 OA
HETATM   15  C11 UNL     1      28.830  -3.574  14.774  1.00  0.00     0.202 C 
ENDBRANCH  11  14
BRANCH   4  16
HETATM   16  O3  UNL     1      23.893  -5.416  13.635  1.00  0.00    -0.390 OA
ATOM     17  H3  UNL     1      23.771  -4.541  13.286  1.00  0.00     0.210 HD
ENDBRANCH   4  16
TORSDOF 3
ENDMDL
MODEL 2
REMARK VINA RESULT: -6.107129930      1.365      3.050
REMARK  3 active torsions:
REMARK  status: ('A' for Active; 'I' for Inactive)
REMARK    1  A    between atoms: O1_2  and  C2_3 
REMARK    2  A    between atoms: C4_6  and  O3_7 
REMARK    3  A    between atoms: C10_15  and  O5_16 
ROOT
HETATM    1  C2  UNL     1      26.879  -5.683  11.944  1.00  0.00     0.269 C 
HETATM    2  O2  UNL     1      25.535  -6.048  12.032  1.00  0.00    -0.350 OA
HETATM    3  C3  UNL     1      25.090  -5.759  13.288  1.00  0.00     0.194 C 
HETATM    4  C4  UNL     1      25.000  -4.305  13.669  1.00  0.00     0.182 C 
HETATM    5  C5  UNL     1      25.975  -4.600  14.808  1.00  0.00     0.191 C 
HETATM    6  O4  UNL     1      27.112  -3.833  14.769  1.00  0.00    -0.369 OA
HETATM    7  C6  UNL     1      27.972  -4.362  13.815  1.00  0.00     0.065 C 
HETATM    8  C7  UNL     1      29.275  -4.671  14.578  1.00  0.00     0.046 C 
HETATM    9  C8  UNL     1      28.327  -3.292  12.845  1.00  0.00     0.046 C 
HETATM   10  C9  UNL     1      27.442  -5.619  13.299  1.00  0.00     0.114 C 
HETATM   11  C10 UNL     1      26.257  -5.912  14.189  1.00  0.00     0.128 C 
ENDROOT
BRANCH   1  12
HETATM   12  O1  UNL     1      27.481  -6.689  11.177  1.00  0.00    -0.365 OA
HETATM   13  C1  UNL     1      28.862  -6.700  11.338  1.00  0.00     0.204 C 
ENDBRANCH   1  12
BRANCH  11  14
HETATM   14  O5  UNL     1      26.353  -7.029  14.966  1.00  0.00    -0.379 OA
HETATM   15  C11 UNL     1      27.358  -7.891  14.636  1.00  0.00     0.202 C 
ENDBRANCH  11  14
BRANCH   4  16
HETATM   16  O3  UNL     1      23.746  -3.927  14.151  1.00  0.00    -0.390 OA
ATOM     17  H3  UNL     1      23.534  -3.014  13.993  1.00  0.00     0.210 HD
ENDBRANCH   4  16
TORSDOF 3
ENDMDL
MODEL 3
REMARK VINA RESULT: -6.043810002      1.494      1.868
REMARK  3 active torsions:
REMARK  status: ('A' for Active; 'I' for Inactive)
REMARK    1  A    between atoms: O1_2  and  C2_3 
REMARK    2  A    between atoms: C4_6  and  O3_7 
REMARK    3  A    between atoms: C10_15  and  O5_16 
ROOT
HETATM    1  C2  UNL     1      27.847  -7.274  14.453  1.00  0.00     0.269 C 
HETATM    2  O2  UNL     1      26.664  -8.000  14.596  1.00  0.00    -0.350 OA
HETATM    3  C3  UNL     1      25.739  -7.494  13.732  1.00  0.00     0.194 C 
HETATM    4  C4  UNL     1      25.995  -7.684  12.260  1.00  0.00     0.182 C 
HETATM    5  C5  UNL     1      25.977  -6.162  12.117  1.00  0.00     0.191 C 
HETATM    6  O4  UNL     1      27.127  -5.648  11.573  1.00  0.00    -0.369 OA
HETATM    7  C6  UNL     1      28.104  -5.603  12.560  1.00  0.00     0.065 C 
HETATM    8  C7  UNL     1      28.533  -4.125  12.631  1.00  0.00     0.046 C 
HETATM    9  C8  UNL     1      29.303  -6.341  12.079  1.00  0.00     0.046 C 
HETATM   10  C9  UNL     1      27.534  -5.972  13.851  1.00  0.00     0.114 C 
HETATM   11  C10 UNL     1      26.048  -6.051  13.588  1.00  0.00     0.128 C 
ENDROOT
BRANCH   1  12
HETATM   12  O1  UNL     1      28.352  -7.140  15.752  1.00  0.00    -0.365 OA
HETATM   13  C1  UNL     1      29.702  -7.468  15.815  1.00  0.00     0.204 C 
ENDBRANCH   1  12
BRANCH  11  14
HETATM   14  O5  UNL     1      25.275  -5.139  14.245  1.00  0.00    -0.379 OA
HETATM   15  C11 UNL     1      25.954  -4.204  14.971  1.00  0.00     0.202 C 
ENDBRANCH  11  14
BRANCH   4  16
HETATM   16  O3  UNL     1      24.933  -8.277  11.576  1.00  0.00    -0.390 OA
ATOM     17  H3  UNL     1      24.894  -8.046  10.656  1.00  0.00     0.210 HD
ENDBRANCH   4  16
TORSDOF 3
ENDMDL
MODEL 4
REMARK VINA RESULT: -6.042459383      4.146      6.556
REMARK  3 active torsions:
REMARK  status: ('A' for Active; 'I' for Inactive)
REMARK    1  A    between atoms: O1_2  and  C2_3 
REMARK    2  A    between atoms: C4_6  and  O3_7 
REMARK    3  A    between atoms: C10_15  and  O5_16 
ROOT
HETATM    1  C2  UNL     1      31.763  -0.935  14.121  1.00  0.00     0.269 C 
HETATM    2  O2  UNL     1      31.561   0.427  13.893  1.00  0.00    -0.350 OA
HETATM    3  C3  UNL     1      30.240   0.705  14.082  1.00  0.00     0.194 C 
HETATM    4  C4  UNL     1      29.704   0.584  15.484  1.00  0.00     0.182 C 
HETATM    5  C5  UNL     1      28.719  -0.460  14.958  1.00  0.00     0.191 C 
HETATM    6  O4  UNL     1      28.808  -1.670  15.599  1.00  0.00    -0.369 OA
HETATM    7  C6  UNL     1      29.903  -2.360  15.095  1.00  0.00     0.065 C 
HETATM    8  C7  UNL     1      29.328  -3.688  14.564  1.00  0.00     0.046 C 
HETATM    9  C8  UNL     1      30.792  -2.738  16.226  1.00  0.00     0.046 C 
HETATM   10  C9  UNL     1      30.482  -1.636  13.969  1.00  0.00     0.114 C 
HETATM   11  C10 UNL     1      29.497  -0.521  13.704  1.00  0.00     0.128 C 
ENDROOT
BRANCH   1  12
HETATM   12  O1  UNL     1      32.693  -1.333  13.152  1.00  0.00    -0.365 OA
HETATM   13  C1  UNL     1      33.640  -0.343  12.912  1.00  0.00     0.204 C 
ENDBRANCH   1  12
BRANCH  11  14
HETATM   14  O5  UNL     1      28.856  -0.563  12.501  1.00  0.00    -0.379 OA
HETATM   15  C11 UNL     1      29.331  -1.481  11.611  1.00  0.00     0.202 C 
ENDBRANCH  11  14
BRANCH   4  16
HETATM   16  O3  UNL     1      29.046   1.729  15.935  1.00  0.00    -0.390 OA
ATOM     17  H3  UNL     1      29.283   2.518  15.462  1.00  0.00     0.210 HD
ENDBRANCH   4  16
TORSDOF 3
ENDMDL
MODEL 5
REMARK VINA RESULT: -6.028290154      1.350      3.058
REMARK  3 active torsions:
REMARK  status: ('A' for Active; 'I' for Inactive)
REMARK    1  A    between atoms: O1_2  and  C2_3 
REMARK    2  A    between atoms: C4_6  and  O3_7 
REMARK    3  A    between atoms: C10_15  and  O5_16 
ROOT
HETATM    1  C2  UNL     1      27.066  -6.398  12.361  1.00  0.00     0.269 C 
HETATM    2  O2  UNL     1      26.603  -7.677  12.672  1.00  0.00    -0.350 OA
HETATM    3  C3  UNL     1      26.291  -7.713  13.998  1.00  0.00     0.194 C 
HETATM    4  C4  UNL     1      25.119  -6.883  14.453  1.00  0.00     0.182 C 
HETATM    5  C5  UNL     1      26.077  -6.142  15.385  1.00  0.00     0.191 C 
HETATM    6  O4  UNL     1      26.105  -4.786  15.177  1.00  0.00    -0.369 OA
HETATM    7  C6  UNL     1      26.891  -4.523  14.062  1.00  0.00     0.065 C 
HETATM    8  C7  UNL     1      27.994  -3.573  14.566  1.00  0.00     0.046 C 
HETATM    9  C8  UNL     1      26.093  -3.725  13.093  1.00  0.00     0.046 C 
HETATM   10  C9  UNL     1      27.528  -5.749  13.594  1.00  0.00     0.114 C 
HETATM   11  C10 UNL     1      27.210  -6.762  14.669  1.00  0.00     0.128 C 
ENDROOT
BRANCH   1  12
HETATM   12  O1  UNL     1      28.115  -6.601  11.454  1.00  0.00    -0.365 OA
HETATM   13  C1  UNL     1      28.927  -5.477  11.350  1.00  0.00     0.204 C 
ENDBRANCH   1  12
BRANCH  11  14
HETATM   14  O5  UNL     1      28.276  -7.251  15.365  1.00  0.00    -0.379 OA
HETATM   15  C11 UNL     1      29.503  -6.847  14.925  1.00  0.00     0.202 C 
ENDBRANCH  11  14
BRANCH   4  16
HETATM   16  O3  UNL     1      24.163  -7.605  15.168  1.00  0.00    -0.390 OA
ATOM     17  H3  UNL     1      24.341  -7.658  16.100  1.00  0.00     0.210 HD
ENDBRANCH   4  16
TORSDOF 3
ENDMDL
