MODEL 1
REMARK VINA RESULT: -8.637830398      0.000      0.000
REMARK  5 active torsions:
REMARK  status: ('A' for Active; 'I' for Inactive)
REMARK    1  A    between atoms: C2_2  and  C3_3 
REMARK    2  A    between atoms: C3_3  and  C4_4 
REMARK    3  A    between atoms: C4_4  and  C5_5 
REMARK       I    between atoms: N3_15  and  C11_16 
REMARK       I    between atoms: C11_16  and  N4_18 
REMARK    4  A    between atoms: N4_18  and  C12_20 
REMARK    5  A    between atoms: C12_20  and  C13_21 
ROOT
HETATM    1  C13 UNL     1      21.301   4.965  11.475  1.00  0.00    -0.003 C 
HETATM    2  C14 UNL     1      22.160   3.785  11.010  1.00  0.00     0.018 C 
HETATM    3  C15 UNL     1      22.576   4.703   9.850  1.00  0.00    -0.008 C 
HETATM    4  C16 UNL     1      21.496   4.694   8.777  1.00  0.00     0.011 C 
HETATM    5  C17 UNL     1      20.462   5.602   9.380  1.00  0.00     0.005 C 
HETATM    6  C18 UNL     1      21.365   6.725   9.917  1.00  0.00     0.012 C 
HETATM    7  C19 UNL     1      22.262   5.857  10.773  1.00  0.00     0.001 C 
HETATM    8  C20 UNL     1      20.007   4.984  10.680  1.00  0.00     0.107 C 
HETATM    9  C21 UNL     1      19.447   3.659  10.519  1.00  0.00     0.065 C 
HETATM   10  N5  UNL     1      18.981   2.608  10.391  1.00  0.00    -0.197 NA
ENDROOT
BRANCH   1  11
HETATM   11  C12 UNL     1      21.132   5.093  12.937  1.00  0.00     0.135 C 
BRANCH  11  12
HETATM   12  N4  UNL     1      22.359   5.483  13.591  1.00  0.00    -0.342 N 
HETATM   13  C11 UNL     1      22.396   5.847  14.950  1.00  0.00     0.318 C 
HETATM   14  N3  UNL     1      23.588   6.229  15.595  1.00  0.00    -0.334 N 
HETATM   15  O1  UNL     1      21.299   5.826  15.608  1.00  0.00    -0.247 OA
HETATM   16  C10 UNL     1      24.879   6.289  14.962  1.00  0.00     0.127 C 
HETATM   17  C22 UNL     1      23.595   6.608  17.017  1.00  0.00     0.137 C 
HETATM   18  C9  UNL     1      25.279   7.759  14.979  1.00  0.00     0.021 C 
HETATM   19  C8  UNL     1      25.354   8.278  16.395  1.00  0.00     0.013 C 
HETATM   20  C3  UNL     1      24.085   8.032  17.179  1.00  0.00    -0.019 C 
ATOM     21  H4  UNL     1      23.225   5.494  13.052  1.00  0.00     0.164 HD
BRANCH  20  22
HETATM   22  C2  UNL     1      23.082   9.042  16.752  1.00  0.00     0.007 C 
HETATM   23  C1  UNL     1      21.723   8.876  17.391  1.00  0.00     0.006 C 
ENDBRANCH  20  22
BRANCH  20  24
HETATM   24  C4  UNL     1      24.430   8.206  18.632  1.00  0.00     0.069 C 
BRANCH  24  25
HETATM   25  C5  UNL     1      24.777   6.916  19.305  1.00  0.00     0.026 A 
HETATM   26  C6  UNL     1      25.996   6.295  19.318  1.00  0.00     0.114 A 
HETATM   27  N1  UNL     1      25.887   5.164  20.028  1.00  0.00    -0.360 N 
HETATM   28  C7  UNL     1      24.616   5.087  20.448  1.00  0.00     0.180 A 
ATOM     29  H1  UNL     1      26.629   4.489  20.214  1.00  0.00     0.166 HD
HETATM   30  N2  UNL     1      23.932   6.149  20.014  1.00  0.00    -0.355 N 
ATOM     31  H2  UNL     1      22.946   6.342  20.189  1.00  0.00     0.166 HD
ENDBRANCH  24  25
ENDBRANCH  20  24
ENDBRANCH  11  12
ENDBRANCH   1  11
TORSDOF 5
ENDMDL
MODEL 2
REMARK VINA RESULT: -8.590146285      0.941      1.160
REMARK  5 active torsions:
REMARK  status: ('A' for Active; 'I' for Inactive)
REMARK    1  A    between atoms: C2_2  and  C3_3 
REMARK    2  A    between atoms: C3_3  and  C4_4 
REMARK    3  A    between atoms: C4_4  and  C5_5 
REMARK       I    between atoms: N3_15  and  C11_16 
REMARK       I    between atoms: C11_16  and  N4_18 
REMARK    4  A    between atoms: N4_18  and  C12_20 
REMARK    5  A    between atoms: C12_20  and  C13_21 
ROOT
HETATM    1  C13 UNL     1      21.420   5.135  11.429  1.00  0.00    -0.003 C 
HETATM    2  C14 UNL     1      20.783   3.897  10.791  1.00  0.00     0.018 C 
HETATM    3  C15 UNL     1      21.980   3.927   9.828  1.00  0.00    -0.008 C 
HETATM    4  C16 UNL     1      21.731   4.956   8.735  1.00  0.00     0.011 C 
HETATM    5  C17 UNL     1      22.029   6.241   9.453  1.00  0.00     0.005 C 
HETATM    6  C18 UNL     1      23.305   5.840  10.213  1.00  0.00     0.012 C 
HETATM    7  C19 UNL     1      22.730   4.638  10.931  1.00  0.00     0.001 C 
HETATM    8  C20 UNL     1      21.062   6.360  10.606  1.00  0.00     0.107 C 
HETATM    9  C21 UNL     1      19.674   6.353  10.193  1.00  0.00     0.065 C 
HETATM   10  N5  UNL     1      18.566   6.366   9.864  1.00  0.00    -0.197 NA
ENDROOT
BRANCH   1  11
HETATM   11  C12 UNL     1      21.209   5.282  12.884  1.00  0.00     0.135 C 
BRANCH  11  12
HETATM   12  N4  UNL     1      22.435   5.594  13.580  1.00  0.00    -0.342 N 
HETATM   13  C11 UNL     1      22.448   5.963  14.938  1.00  0.00     0.318 C 
HETATM   14  N3  UNL     1      23.640   6.270  15.623  1.00  0.00    -0.334 N 
HETATM   15  O1  UNL     1      21.330   6.018  15.557  1.00  0.00    -0.247 OA
HETATM   16  C10 UNL     1      24.953   6.242  15.036  1.00  0.00     0.127 C 
HETATM   17  C22 UNL     1      23.622   6.657  17.043  1.00  0.00     0.137 C 
HETATM   18  C9  UNL     1      25.448   7.682  15.062  1.00  0.00     0.021 C 
HETATM   19  C8  UNL     1      25.507   8.204  16.478  1.00  0.00     0.013 C 
HETATM   20  C3  UNL     1      24.198   8.046  17.218  1.00  0.00    -0.019 C 
ATOM     21  H4  UNL     1      23.318   5.546  13.072  1.00  0.00     0.164 HD
BRANCH  20  22
HETATM   22  C2  UNL     1      23.279   9.117  16.752  1.00  0.00     0.007 C 
HETATM   23  C1  UNL     1      21.893   9.050  17.349  1.00  0.00     0.006 C 
ENDBRANCH  20  22
BRANCH  20  24
HETATM   24  C4  UNL     1      24.503   8.206  18.681  1.00  0.00     0.069 C 
BRANCH  24  25
HETATM   25  C5  UNL     1      24.816   6.908  19.354  1.00  0.00     0.026 A 
HETATM   26  C6  UNL     1      26.027   6.271  19.396  1.00  0.00     0.114 A 
HETATM   27  N1  UNL     1      25.884   5.137  20.095  1.00  0.00    -0.360 N 
HETATM   28  C7  UNL     1      24.601   5.072  20.479  1.00  0.00     0.180 A 
ATOM     29  H1  UNL     1      26.613   4.452  20.296  1.00  0.00     0.166 HD
HETATM   30  N2  UNL     1      23.943   6.146  20.033  1.00  0.00    -0.355 N 
ATOM     31  H2  UNL     1      22.954   6.349  20.182  1.00  0.00     0.166 HD
ENDBRANCH  24  25
ENDBRANCH  20  24
ENDBRANCH  11  12
ENDBRANCH   1  11
TORSDOF 5
ENDMDL
MODEL 3
REMARK VINA RESULT: -8.569656274      2.647      8.517
REMARK  5 active torsions:
REMARK  status: ('A' for Active; 'I' for Inactive)
REMARK    1  A    between atoms: C2_2  and  C3_3 
REMARK    2  A    between atoms: C3_3  and  C4_4 
REMARK    3  A    between atoms: C4_4  and  C5_5 
REMARK       I    between atoms: N3_15  and  C11_16 
REMARK       I    between atoms: C11_16  and  N4_18 
REMARK    4  A    between atoms: N4_18  and  C12_20 
REMARK    5  A    between atoms: C12_20  and  C13_21 
ROOT
HETATM    1  C13 UNL     1      23.910   7.692  16.587  1.00  0.00    -0.003 C 
HETATM    2  C14 UNL     1      23.346   8.719  17.573  1.00  0.00     0.018 C 
HETATM    3  C15 UNL     1      24.308   8.089  18.592  1.00  0.00    -0.008 C 
HETATM    4  C16 UNL     1      23.697   6.811  19.149  1.00  0.00     0.011 C 
HETATM    5  C17 UNL     1      23.943   5.842  18.028  1.00  0.00     0.005 C 
HETATM    6  C18 UNL     1      25.390   6.212  17.660  1.00  0.00     0.012 C 
HETATM    7  C19 UNL     1      25.152   7.685  17.405  1.00  0.00     0.001 C 
HETATM    8  C20 UNL     1      23.219   6.358  16.807  1.00  0.00     0.107 C 
HETATM    9  C21 UNL     1      21.794   6.509  17.007  1.00  0.00     0.065 C 
HETATM   10  N5  UNL     1      20.652   6.612  17.157  1.00  0.00    -0.197 NA
ENDROOT
BRANCH   1  11
HETATM   11  C12 UNL     1      23.976   8.131  15.178  1.00  0.00     0.135 C 
BRANCH  11  12
HETATM   12  N4  UNL     1      23.980   7.014  14.262  1.00  0.00    -0.342 N 
HETATM   13  C11 UNL     1      23.749   7.179  12.884  1.00  0.00     0.318 C 
HETATM   14  N3  UNL     1      23.750   6.095  11.985  1.00  0.00    -0.334 N 
HETATM   15  O1  UNL     1      23.532   8.363  12.449  1.00  0.00    -0.247 OA
HETATM   16  C10 UNL     1      23.983   4.725  12.355  1.00  0.00     0.127 C 
HETATM   17  C22 UNL     1      23.501   6.299  10.549  1.00  0.00     0.137 C 
HETATM   18  C9  UNL     1      22.678   3.992  12.071  1.00  0.00     0.021 C 
HETATM   19  C8  UNL     1      22.312   4.096  10.609  1.00  0.00     0.013 C 
HETATM   20  C3  UNL     1      22.276   5.524  10.112  1.00  0.00    -0.019 C 
ATOM     21  H4  UNL     1      24.154   6.078  14.626  1.00  0.00     0.164 HD
BRANCH  20  22
HETATM   22  C2  UNL     1      21.006   6.136  10.579  1.00  0.00     0.007 C 
HETATM   23  C1  UNL     1      19.762   5.407  10.127  1.00  0.00     0.006 C 
ENDBRANCH  20  22
BRANCH  20  24
HETATM   24  C4  UNL     1      22.317   5.463   8.611  1.00  0.00     0.069 C 
BRANCH  24  25
HETATM   25  C5  UNL     1      22.695   6.768   7.986  1.00  0.00     0.026 A 
HETATM   26  C6  UNL     1      21.902   7.873   7.841  1.00  0.00     0.114 A 
HETATM   27  N1  UNL     1      22.615   8.829   7.230  1.00  0.00    -0.360 N 
HETATM   28  C7  UNL     1      23.833   8.321   6.999  1.00  0.00     0.180 A 
ATOM     29  H1  UNL     1      22.292   9.765   6.987  1.00  0.00     0.166 HD
HETATM   30  N2  UNL     1      23.893   7.067   7.456  1.00  0.00    -0.355 N 
ATOM     31  H2  UNL     1      24.702   6.448   7.410  1.00  0.00     0.166 HD
ENDBRANCH  24  25
ENDBRANCH  20  24
ENDBRANCH  11  12
ENDBRANCH   1  11
TORSDOF 5
ENDMDL
MODEL 4
REMARK VINA RESULT: -8.555657141      2.522      8.495
REMARK  5 active torsions:
REMARK  status: ('A' for Active; 'I' for Inactive)
REMARK    1  A    between atoms: C2_2  and  C3_3 
REMARK    2  A    between atoms: C3_3  and  C4_4 
REMARK    3  A    between atoms: C4_4  and  C5_5 
REMARK       I    between atoms: N3_15  and  C11_16 
REMARK       I    between atoms: C11_16  and  N4_18 
REMARK    4  A    between atoms: N4_18  and  C12_20 
REMARK    5  A    between atoms: C12_20  and  C13_21 
ROOT
HETATM    1  C13 UNL     1      23.295   7.542  15.792  1.00  0.00    -0.003 C 
HETATM    2  C14 UNL     1      23.081   8.206  17.156  1.00  0.00     0.018 C 
HETATM    3  C15 UNL     1      24.331   9.031  16.814  1.00  0.00    -0.008 C 
HETATM    4  C16 UNL     1      25.581   8.211  17.103  1.00  0.00     0.011 C 
HETATM    5  C17 UNL     1      25.624   7.294  15.914  1.00  0.00     0.005 C 
HETATM    6  C18 UNL     1      25.287   8.288  14.790  1.00  0.00     0.012 C 
HETATM    7  C19 UNL     1      23.980   8.791  15.364  1.00  0.00     0.001 C 
HETATM    8  C20 UNL     1      24.361   6.467  15.923  1.00  0.00     0.107 C 
HETATM    9  C21 UNL     1      24.198   5.682  17.128  1.00  0.00     0.065 C 
HETATM   10  N5  UNL     1      24.075   5.040  18.082  1.00  0.00    -0.197 NA
ENDROOT
BRANCH   1  11
HETATM   11  C12 UNL     1      22.066   7.115  15.092  1.00  0.00     0.135 C 
BRANCH  11  12
HETATM   12  N4  UNL     1      22.345   6.161  14.043  1.00  0.00    -0.342 N 
HETATM   13  C11 UNL     1      22.476   6.551  12.697  1.00  0.00     0.318 C 
HETATM   14  N3  UNL     1      22.746   5.627  11.669  1.00  0.00    -0.334 N 
HETATM   15  O1  UNL     1      22.339   7.791  12.415  1.00  0.00    -0.247 OA
HETATM   16  C10 UNL     1      22.921   4.213  11.864  1.00  0.00     0.127 C 
HETATM   17  C22 UNL     1      22.873   6.064  10.269  1.00  0.00     0.137 C 
HETATM   18  C9  UNL     1      21.760   3.549  11.134  1.00  0.00     0.021 C 
HETATM   19  C8  UNL     1      21.784   3.893   9.664  1.00  0.00     0.013 C 
HETATM   20  C3  UNL     1      21.831   5.383   9.409  1.00  0.00    -0.019 C 
ATOM     21  H4  UNL     1      22.450   5.177  14.286  1.00  0.00     0.164 HD
BRANCH  20  22
HETATM   22  C2  UNL     1      20.463   5.923   9.618  1.00  0.00     0.007 C 
HETATM   23  C1  UNL     1      19.423   5.362   8.676  1.00  0.00     0.006 C 
ENDBRANCH  20  22
BRANCH  20  24
HETATM   24  C4  UNL     1      22.263   5.566   7.981  1.00  0.00     0.069 C 
BRANCH  24  25
HETATM   25  C5  UNL     1      22.855   6.915   7.722  1.00  0.00     0.026 A 
HETATM   26  C6  UNL     1      22.180   8.070   7.431  1.00  0.00     0.114 A 
HETATM   27  N1  UNL     1      23.075   9.053   7.267  1.00  0.00    -0.360 N 
HETATM   28  C7  UNL     1      24.288   8.513   7.452  1.00  0.00     0.180 A 
ATOM     29  H1  UNL     1      22.873  10.027   7.043  1.00  0.00     0.166 HD
HETATM   30  N2  UNL     1      24.165   7.212   7.730  1.00  0.00    -0.355 N 
ATOM     31  H2  UNL     1      24.929   6.562   7.915  1.00  0.00     0.166 HD
ENDBRANCH  24  25
ENDBRANCH  20  24
ENDBRANCH  11  12
ENDBRANCH   1  11
TORSDOF 5
ENDMDL
MODEL 5
REMARK VINA RESULT: -8.442143626      1.453      1.907
REMARK  5 active torsions:
REMARK  status: ('A' for Active; 'I' for Inactive)
REMARK    1  A    between atoms: C2_2  and  C3_3 
REMARK    2  A    between atoms: C3_3  and  C4_4 
REMARK    3  A    between atoms: C4_4  and  C5_5 
REMARK       I    between atoms: N3_15  and  C11_16 
REMARK       I    between atoms: C11_16  and  N4_18 
REMARK    4  A    between atoms: N4_18  and  C12_20 
REMARK    5  A    between atoms: C12_20  and  C13_21 
ROOT
HETATM    1  C13 UNL     1      22.725   5.218  11.093  1.00  0.00    -0.003 C 
HETATM    2  C14 UNL     1      22.000   3.894  10.832  1.00  0.00     0.018 C 
HETATM    3  C15 UNL     1      21.697   4.475   9.442  1.00  0.00    -0.008 C 
HETATM    4  C16 UNL     1      20.510   5.423   9.531  1.00  0.00     0.011 C 
HETATM    5  C17 UNL     1      21.145   6.651  10.119  1.00  0.00     0.005 C 
HETATM    6  C18 UNL     1      22.443   6.707   9.296  1.00  0.00     0.012 C 
HETATM    7  C19 UNL     1      22.940   5.316   9.625  1.00  0.00     0.001 C 
HETATM    8  C20 UNL     1      21.705   6.278  11.470  1.00  0.00     0.107 C 
HETATM    9  C21 UNL     1      20.705   5.772  12.385  1.00  0.00     0.065 C 
HETATM   10  N5  UNL     1      19.903   5.384  13.125  1.00  0.00    -0.197 NA
ENDROOT
BRANCH   1  11
HETATM   11  C12 UNL     1      23.896   5.136  11.991  1.00  0.00     0.135 C 
BRANCH  11  12
HETATM   12  N4  UNL     1      24.046   6.328  12.793  1.00  0.00    -0.342 N 
HETATM   13  C11 UNL     1      24.414   6.271  14.150  1.00  0.00     0.318 C 
HETATM   14  N3  UNL     1      24.562   7.429  14.939  1.00  0.00    -0.334 N 
HETATM   15  O1  UNL     1      24.616   5.120  14.671  1.00  0.00    -0.247 OA
HETATM   16  C10 UNL     1      24.365   8.773  14.466  1.00  0.00     0.127 C 
HETATM   17  C22 UNL     1      24.944   7.337  16.358  1.00  0.00     0.137 C 
HETATM   18  C9  UNL     1      23.164   9.309  15.236  1.00  0.00     0.021 C 
HETATM   19  C8  UNL     1      23.431   9.299  16.722  1.00  0.00     0.013 C 
HETATM   20  C3  UNL     1      23.867   7.944  17.232  1.00  0.00    -0.019 C 
ATOM     21  H4  UNL     1      23.882   7.237  12.363  1.00  0.00     0.164 HD
BRANCH  20  22
HETATM   22  C2  UNL     1      22.657   7.088  17.340  1.00  0.00     0.007 C 
HETATM   23  C1  UNL     1      21.441   7.798  17.888  1.00  0.00     0.006 C 
ENDBRANCH  20  22
BRANCH  20  24
HETATM   24  C4  UNL     1      24.484   8.166  18.584  1.00  0.00     0.069 C 
BRANCH  24  25
HETATM   25  C5  UNL     1      24.812   6.889  19.291  1.00  0.00     0.026 A 
HETATM   26  C6  UNL     1      26.031   6.269  19.350  1.00  0.00     0.114 A 
HETATM   27  N1  UNL     1      25.901   5.151  20.077  1.00  0.00    -0.360 N 
HETATM   28  C7  UNL     1      24.619   5.080  20.461  1.00  0.00     0.180 A 
ATOM     29  H1  UNL     1      26.638   4.481  20.296  1.00  0.00     0.166 HD
HETATM   30  N2  UNL     1      23.948   6.134  19.988  1.00  0.00    -0.355 N 
ATOM     31  H2  UNL     1      22.957   6.329  20.131  1.00  0.00     0.166 HD
ENDBRANCH  24  25
ENDBRANCH  20  24
ENDBRANCH  11  12
ENDBRANCH   1  11
TORSDOF 5
ENDMDL
