MODEL 1
REMARK VINA RESULT: -8.332891921      0.000      0.000
REMARK  7 active torsions:
REMARK  status: ('A' for Active; 'I' for Inactive)
REMARK    1  A    between atoms: C2_2  and  N1_4 
REMARK       I    between atoms: N1_4  and  C4_6 
REMARK    2  A    between atoms: C4_6  and  C5_8 
REMARK    3  A    between atoms: C5_8  and  N2_11 
REMARK    4  A    between atoms: N2_11  and  C8_13 
REMARK    5  A    between atoms: C11_16  and  C12_17 
REMARK    6  A    between atoms: C12_17  and  C13_18 
REMARK    7  A    between atoms: C13_18  and  N3_19 
ROOT
HETATM    1  C8  UNL     1      23.445   6.079  14.243  1.00  0.00     0.077 C 
HETATM    2  C9  UNL     1      24.388   5.404  13.328  1.00  0.00     0.025 C 
HETATM    3  C10 UNL     1      23.880   5.025  11.974  1.00  0.00     0.007 C 
HETATM    4  C11 UNL     1      22.519   4.390  12.124  1.00  0.00    -0.010 C 
HETATM    5  C23 UNL     1      21.613   5.483  12.630  1.00  0.00     0.007 C 
HETATM    6  C24 UNL     1      21.991   5.958  14.004  1.00  0.00     0.025 C 
ENDROOT
BRANCH   4   7
HETATM    7  C12 UNL     1      21.950   3.969  10.769  1.00  0.00     0.049 C 
BRANCH   7   8
HETATM    8  C13 UNL     1      20.904   4.915  10.296  1.00  0.00     0.065 C 
BRANCH   8   9
HETATM    9  N3  UNL     1      21.329   5.726   9.241  1.00  0.00    -0.352 N 
HETATM   10  C14 UNL     1      20.955   7.103   9.324  1.00  0.00     0.132 C 
HETATM   11  C15 UNL     1      21.573   7.953   8.257  1.00  0.00     0.059 C 
HETATM   12  C16 UNL     1      22.967   7.397   8.042  1.00  0.00     0.077 C 
HETATM   13  C17 UNL     1      23.922   7.584   9.183  1.00  0.00     0.040 C 
HETATM   14  C19 UNL     1      23.818   8.331   7.233  1.00  0.00    -0.016 C 
HETATM   15  O2  UNL     1      22.923   6.142   7.535  1.00  0.00    -0.335 OA
HETATM   16  C18 UNL     1      24.970   8.038   8.166  1.00  0.00     0.015 C 
HETATM   17  C20 UNL     1      23.432   9.794   7.349  1.00  0.00     0.018 C 
HETATM   18  C21 UNL     1      24.070   7.896   5.815  1.00  0.00     0.018 C 
HETATM   19  C22 UNL     1      22.070   5.263   8.176  1.00  0.00     0.229 C 
ENDBRANCH   8   9
ENDBRANCH   7   8
ENDBRANCH   4   7
BRANCH   1  20
HETATM   20  N2  UNL     1      23.730   5.635  15.589  1.00  0.00    -0.401 N 
ATOM     21  H2  UNL     1      23.453   4.711  15.919  1.00  0.00     0.154 HD
BRANCH  20  22
HETATM   22  C5  UNL     1      24.406   6.539  16.419  1.00  0.00     0.100 C 
HETATM   23  C6  UNL     1      23.413   7.600  16.872  1.00  0.00     0.048 C 
HETATM   24  C7  UNL     1      25.523   7.287  15.699  1.00  0.00     0.048 C 
BRANCH  22  25
HETATM   25  C4  UNL     1      25.023   6.006  17.656  1.00  0.00     0.245 C 
HETATM   26  N1  UNL     1      25.696   7.005  18.460  1.00  0.00    -0.355 N 
ATOM     27  H1  UNL     1      25.696   7.974  18.142  1.00  0.00     0.162 HD
HETATM   28  O1  UNL     1      25.007   4.828  18.039  1.00  0.00    -0.271 OA
BRANCH  26  29
HETATM   29  C2  UNL     1      26.372   6.677  19.704  1.00  0.00     0.076 C 
HETATM   30  C1  UNL     1      27.142   7.876  20.228  1.00  0.00     0.032 C 
HETATM   31  C3  UNL     1      25.329   6.342  20.788  1.00  0.00     0.032 C 
ENDBRANCH  26  29
ENDBRANCH  22  25
ENDBRANCH  20  22
ENDBRANCH   1  20
TORSDOF 7
ENDMDL
MODEL 2
REMARK VINA RESULT: -8.259379085      0.957      1.186
REMARK  7 active torsions:
REMARK  status: ('A' for Active; 'I' for Inactive)
REMARK    1  A    between atoms: C2_2  and  N1_4 
REMARK       I    between atoms: N1_4  and  C4_6 
REMARK    2  A    between atoms: C4_6  and  C5_8 
REMARK    3  A    between atoms: C5_8  and  N2_11 
REMARK    4  A    between atoms: N2_11  and  C8_13 
REMARK    5  A    between atoms: C11_16  and  C12_17 
REMARK    6  A    between atoms: C12_17  and  C13_18 
REMARK    7  A    between atoms: C13_18  and  N3_19 
ROOT
HETATM    1  C8  UNL     1      23.428   6.484  13.995  1.00  0.00     0.077 C 
HETATM    2  C9  UNL     1      24.375   5.924  13.009  1.00  0.00     0.025 C 
HETATM    3  C10 UNL     1      23.795   5.290  11.785  1.00  0.00     0.007 C 
HETATM    4  C11 UNL     1      22.646   4.402  12.192  1.00  0.00    -0.010 C 
HETATM    5  C23 UNL     1      21.587   5.328  12.735  1.00  0.00     0.007 C 
HETATM    6  C24 UNL     1      22.021   6.029  13.991  1.00  0.00     0.025 C 
ENDROOT
BRANCH   4   7
HETATM    7  C12 UNL     1      22.018   3.715  10.980  1.00  0.00     0.049 C 
BRANCH   7   8
HETATM    8  C13 UNL     1      20.871   4.494  10.440  1.00  0.00     0.065 C 
BRANCH   8   9
HETATM    9  N3  UNL     1      21.225   5.342   9.389  1.00  0.00    -0.352 N 
HETATM   10  C14 UNL     1      20.769   6.692   9.496  1.00  0.00     0.132 C 
HETATM   11  C15 UNL     1      21.313   7.592   8.429  1.00  0.00     0.059 C 
HETATM   12  C16 UNL     1      22.734   7.126   8.182  1.00  0.00     0.077 C 
HETATM   13  C17 UNL     1      23.697   7.359   9.309  1.00  0.00     0.040 C 
HETATM   14  C19 UNL     1      23.511   8.121   7.370  1.00  0.00    -0.016 C 
HETATM   15  O2  UNL     1      22.759   5.877   7.660  1.00  0.00    -0.335 OA
HETATM   16  C18 UNL     1      24.696   7.889   8.279  1.00  0.00     0.015 C 
HETATM   17  C20 UNL     1      23.037   9.555   7.512  1.00  0.00     0.018 C 
HETATM   18  C21 UNL     1      23.763   7.719   5.943  1.00  0.00     0.018 C 
HETATM   19  C22 UNL     1      21.974   4.939   8.305  1.00  0.00     0.229 C 
ENDBRANCH   8   9
ENDBRANCH   7   8
ENDBRANCH   4   7
BRANCH   1  20
HETATM   20  N2  UNL     1      23.978   6.271  15.316  1.00  0.00    -0.401 N 
ATOM     21  H2  UNL     1      23.937   5.359  15.773  1.00  0.00     0.154 HD
BRANCH  20  22
HETATM   22  C5  UNL     1      24.568   7.378  15.938  1.00  0.00     0.100 C 
HETATM   23  C6  UNL     1      23.907   8.636  15.392  1.00  0.00     0.048 C 
HETATM   24  C7  UNL     1      26.055   7.514  15.624  1.00  0.00     0.048 C 
BRANCH  22  25
HETATM   25  C4  UNL     1      24.467   7.473  17.413  1.00  0.00     0.245 C 
HETATM   26  N1  UNL     1      25.368   6.592  18.126  1.00  0.00    -0.355 N 
ATOM     27  H1  UNL     1      25.996   5.993  17.591  1.00  0.00     0.162 HD
HETATM   28  O1  UNL     1      23.708   8.213  18.053  1.00  0.00    -0.271 OA
BRANCH  26  29
HETATM   29  C2  UNL     1      25.411   6.531  19.577  1.00  0.00     0.076 C 
HETATM   30  C1  UNL     1      24.753   5.258  20.080  1.00  0.00     0.032 C 
HETATM   31  C3  UNL     1      26.876   6.461  20.050  1.00  0.00     0.032 C 
ENDBRANCH  26  29
ENDBRANCH  22  25
ENDBRANCH  20  22
ENDBRANCH   1  20
TORSDOF 7
ENDMDL
MODEL 3
REMARK VINA RESULT: -8.127130552      1.748      9.394
REMARK  7 active torsions:
REMARK  status: ('A' for Active; 'I' for Inactive)
REMARK    1  A    between atoms: C2_2  and  N1_4 
REMARK       I    between atoms: N1_4  and  C4_6 
REMARK    2  A    between atoms: C4_6  and  C5_8 
REMARK    3  A    between atoms: C5_8  and  N2_11 
REMARK    4  A    between atoms: N2_11  and  C8_13 
REMARK    5  A    between atoms: C11_16  and  C12_17 
REMARK    6  A    between atoms: C12_17  and  C13_18 
REMARK    7  A    between atoms: C13_18  and  N3_19 
ROOT
HETATM    1  C8  UNL     1      22.013   5.765   9.193  1.00  0.00     0.077 C 
HETATM    2  C9  UNL     1      21.456   4.604   9.917  1.00  0.00     0.025 C 
HETATM    3  C10 UNL     1      21.836   4.444  11.354  1.00  0.00     0.007 C 
HETATM    4  C11 UNL     1      23.321   4.675  11.495  1.00  0.00    -0.010 C 
HETATM    5  C23 UNL     1      23.542   6.127  11.153  1.00  0.00     0.007 C 
HETATM    6  C24 UNL     1      23.219   6.439   9.720  1.00  0.00     0.025 C 
ENDROOT
BRANCH   4   7
HETATM    7  C12 UNL     1      23.773   4.514  12.946  1.00  0.00     0.049 C 
BRANCH   7   8
HETATM    8  C13 UNL     1      24.914   5.414  13.268  1.00  0.00     0.065 C 
BRANCH   8   9
HETATM    9  N3  UNL     1      24.717   6.160  14.432  1.00  0.00    -0.352 N 
HETATM   10  C14 UNL     1      23.364   6.271  14.880  1.00  0.00     0.132 C 
HETATM   11  C15 UNL     1      23.230   6.939  16.213  1.00  0.00     0.059 C 
HETATM   12  C16 UNL     1      24.425   6.481  17.026  1.00  0.00     0.077 C 
HETATM   13  C17 UNL     1      24.433   5.029  17.402  1.00  0.00     0.040 C 
HETATM   14  C19 UNL     1      24.266   6.813  18.481  1.00  0.00    -0.016 C 
HETATM   15  O2  UNL     1      25.584   6.939  16.498  1.00  0.00    -0.335 OA
HETATM   16  C18 UNL     1      24.825   5.450  18.820  1.00  0.00     0.015 C 
HETATM   17  C20 UNL     1      22.827   6.901  18.953  1.00  0.00     0.018 C 
HETATM   18  C21 UNL     1      25.121   7.950  18.971  1.00  0.00     0.018 C 
HETATM   19  C22 UNL     1      25.739   6.758  15.136  1.00  0.00     0.229 C 
ENDBRANCH   8   9
ENDBRANCH   7   8
ENDBRANCH   4   7
BRANCH   1  20
HETATM   20  N2  UNL     1      22.269   5.361   7.827  1.00  0.00    -0.401 N 
ATOM     21  H2  UNL     1      22.644   4.439   7.603  1.00  0.00     0.154 HD
BRANCH  20  22
HETATM   22  C5  UNL     1      21.978   6.299   6.829  1.00  0.00     0.100 C 
HETATM   23  C6  UNL     1      20.590   6.863   7.099  1.00  0.00     0.048 C 
HETATM   24  C7  UNL     1      21.920   5.686   5.434  1.00  0.00     0.048 C 
BRANCH  22  25
HETATM   25  C4  UNL     1      22.876   7.472   6.706  1.00  0.00     0.245 C 
HETATM   26  N1  UNL     1      24.206   7.152   6.234  1.00  0.00    -0.355 N 
ATOM     27  H1  UNL     1      24.431   6.182   6.016  1.00  0.00     0.162 HD
HETATM   28  O1  UNL     1      22.589   8.649   6.964  1.00  0.00    -0.271 OA
BRANCH  26  29
HETATM   29  C2  UNL     1      25.235   8.164   6.058  1.00  0.00     0.076 C 
HETATM   30  C1  UNL     1      26.207   8.149   7.224  1.00  0.00     0.032 C 
HETATM   31  C3  UNL     1      26.074   7.839   4.808  1.00  0.00     0.032 C 
ENDBRANCH  26  29
ENDBRANCH  22  25
ENDBRANCH  20  22
ENDBRANCH   1  20
TORSDOF 7
ENDMDL
MODEL 4
REMARK VINA RESULT: -8.059385850      1.787      9.853
REMARK  7 active torsions:
REMARK  status: ('A' for Active; 'I' for Inactive)
REMARK    1  A    between atoms: C2_2  and  N1_4 
REMARK       I    between atoms: N1_4  and  C4_6 
REMARK    2  A    between atoms: C4_6  and  C5_8 
REMARK    3  A    between atoms: C5_8  and  N2_11 
REMARK    4  A    between atoms: N2_11  and  C8_13 
REMARK    5  A    between atoms: C11_16  and  C12_17 
REMARK    6  A    between atoms: C12_17  and  C13_18 
REMARK    7  A    between atoms: C13_18  and  N3_19 
ROOT
HETATM    1  C8  UNL     1      22.204   5.891   9.122  1.00  0.00     0.077 C 
HETATM    2  C9  UNL     1      21.725   4.703   9.858  1.00  0.00     0.025 C 
HETATM    3  C10 UNL     1      22.114   4.584  11.297  1.00  0.00     0.007 C 
HETATM    4  C11 UNL     1      23.580   4.914  11.435  1.00  0.00    -0.010 C 
HETATM    5  C23 UNL     1      23.704   6.373  11.078  1.00  0.00     0.007 C 
HETATM    6  C24 UNL     1      23.362   6.649   9.642  1.00  0.00     0.025 C 
ENDROOT
BRANCH   4   7
HETATM    7  C12 UNL     1      24.041   4.798  12.888  1.00  0.00     0.049 C 
BRANCH   7   8
HETATM    8  C13 UNL     1      24.108   6.129  13.550  1.00  0.00     0.065 C 
BRANCH   8   9
HETATM    9  N3  UNL     1      24.649   6.080  14.837  1.00  0.00    -0.352 N 
HETATM   10  C14 UNL     1      25.237   7.292  15.313  1.00  0.00     0.132 C 
HETATM   11  C15 UNL     1      25.652   7.228  16.750  1.00  0.00     0.059 C 
HETATM   12  C16 UNL     1      24.598   6.390  17.447  1.00  0.00     0.077 C 
HETATM   13  C17 UNL     1      23.236   7.011  17.542  1.00  0.00     0.040 C 
HETATM   14  C19 UNL     1      24.703   6.497  18.941  1.00  0.00    -0.016 C 
HETATM   15  O2  UNL     1      24.613   5.112  17.002  1.00  0.00    -0.335 OA
HETATM   16  C18 UNL     1      23.195   6.578  19.009  1.00  0.00     0.015 C 
HETATM   17  C20 UNL     1      25.303   7.799  19.438  1.00  0.00     0.018 C 
HETATM   18  C21 UNL     1      25.269   5.284  19.627  1.00  0.00     0.018 C 
HETATM   19  C22 UNL     1      24.627   4.952  15.629  1.00  0.00     0.229 C 
ENDBRANCH   8   9
ENDBRANCH   7   8
ENDBRANCH   4   7
BRANCH   1  20
HETATM   20  N2  UNL     1      22.488   5.491   7.761  1.00  0.00    -0.401 N 
ATOM     21  H2  UNL     1      22.980   4.623   7.549  1.00  0.00     0.154 HD
BRANCH  20  22
HETATM   22  C5  UNL     1      22.053   6.356   6.748  1.00  0.00     0.100 C 
HETATM   23  C6  UNL     1      20.733   6.974   7.188  1.00  0.00     0.048 C 
HETATM   24  C7  UNL     1      21.764   5.636   5.435  1.00  0.00     0.048 C 
BRANCH  22  25
HETATM   25  C4  UNL     1      22.934   7.491   6.389  1.00  0.00     0.245 C 
HETATM   26  N1  UNL     1      24.004   7.145   5.477  1.00  0.00    -0.355 N 
ATOM     27  H1  UNL     1      24.075   6.184   5.145  1.00  0.00     0.162 HD
HETATM   28  O1  UNL     1      22.832   8.658   6.790  1.00  0.00    -0.271 OA
BRANCH  26  29
HETATM   29  C2  UNL     1      24.979   8.118   5.016  1.00  0.00     0.076 C 
HETATM   30  C1  UNL     1      26.386   7.684   5.385  1.00  0.00     0.032 C 
HETATM   31  C3  UNL     1      24.953   8.189   3.476  1.00  0.00     0.032 C 
ENDBRANCH  26  29
ENDBRANCH  22  25
ENDBRANCH  20  22
ENDBRANCH   1  20
TORSDOF 7
ENDMDL
MODEL 5
REMARK VINA RESULT: -8.054797431      2.846      4.655
REMARK  7 active torsions:
REMARK  status: ('A' for Active; 'I' for Inactive)
REMARK    1  A    between atoms: C2_2  and  N1_4 
REMARK       I    between atoms: N1_4  and  C4_6 
REMARK    2  A    between atoms: C4_6  and  C5_8 
REMARK    3  A    between atoms: C5_8  and  N2_11 
REMARK    4  A    between atoms: N2_11  and  C8_13 
REMARK    5  A    between atoms: C11_16  and  C12_17 
REMARK    6  A    between atoms: C12_17  and  C13_18 
REMARK    7  A    between atoms: C13_18  and  N3_19 
ROOT
HETATM    1  C8  UNL     1      24.257   6.736  13.723  1.00  0.00     0.077 C 
HETATM    2  C9  UNL     1      24.139   5.301  13.393  1.00  0.00     0.025 C 
HETATM    3  C10 UNL     1      23.817   4.947  11.976  1.00  0.00     0.007 C 
HETATM    4  C11 UNL     1      22.704   5.843  11.489  1.00  0.00    -0.010 C 
HETATM    5  C23 UNL     1      23.284   7.234  11.461  1.00  0.00     0.007 C 
HETATM    6  C24 UNL     1      23.641   7.740  12.830  1.00  0.00     0.025 C 
ENDROOT
BRANCH   4   7
HETATM    7  C12 UNL     1      22.322   5.520  10.045  1.00  0.00     0.049 C 
BRANCH   7   8
HETATM    8  C13 UNL     1      21.500   4.282   9.959  1.00  0.00     0.065 C 
BRANCH   8   9
HETATM    9  N3  UNL     1      20.159   4.530   9.657  1.00  0.00    -0.352 N 
HETATM   10  C14 UNL     1      19.749   4.203   8.327  1.00  0.00     0.132 C 
HETATM   11  C15 UNL     1      18.274   4.335   8.109  1.00  0.00     0.059 C 
HETATM   12  C16 UNL     1      17.623   3.883   9.402  1.00  0.00     0.077 C 
HETATM   13  C17 UNL     1      17.764   2.424   9.720  1.00  0.00     0.040 C 
HETATM   14  C19 UNL     1      16.149   3.660   9.232  1.00  0.00    -0.016 C 
HETATM   15  O2  UNL     1      17.922   4.721  10.422  1.00  0.00    -0.335 OA
HETATM   16  C18 UNL     1      16.274   2.409  10.071  1.00  0.00     0.015 C 
HETATM   17  C20 UNL     1      15.727   3.286   7.824  1.00  0.00     0.018 C 
HETATM   18  C21 UNL     1      15.271   4.712   9.853  1.00  0.00     0.018 C 
HETATM   19  C22 UNL     1      19.258   5.049  10.560  1.00  0.00     0.229 C 
ENDBRANCH   8   9
ENDBRANCH   7   8
ENDBRANCH   4   7
BRANCH   1  20
HETATM   20  N2  UNL     1      23.744   6.932  15.062  1.00  0.00    -0.401 N 
ATOM     21  H2  UNL     1      22.749   6.854  15.270  1.00  0.00     0.154 HD
BRANCH  20  22
HETATM   22  C5  UNL     1      24.683   7.234  16.057  1.00  0.00     0.100 C 
HETATM   23  C6  UNL     1      24.184   8.450  16.825  1.00  0.00     0.048 C 
HETATM   24  C7  UNL     1      26.045   7.623  15.492  1.00  0.00     0.048 C 
BRANCH  22  25
HETATM   25  C4  UNL     1      24.961   6.195  17.076  1.00  0.00     0.245 C 
HETATM   26  N1  UNL     1      25.670   6.683  18.240  1.00  0.00    -0.355 N 
ATOM     27  H1  UNL     1      25.916   7.672  18.287  1.00  0.00     0.162 HD
HETATM   28  O1  UNL     1      24.648   4.999  17.013  1.00  0.00    -0.271 OA
BRANCH  26  29
HETATM   29  C2  UNL     1      26.045   5.816  19.344  1.00  0.00     0.076 C 
HETATM   30  C1  UNL     1      27.071   6.493  20.234  1.00  0.00     0.032 C 
HETATM   31  C3  UNL     1      24.818   5.557  20.240  1.00  0.00     0.032 C 
ENDBRANCH  26  29
ENDBRANCH  22  25
ENDBRANCH  20  22
ENDBRANCH   1  20
TORSDOF 7
ENDMDL
