MODEL 1
REMARK VINA RESULT: -7.811031941      0.000      0.000
REMARK  6 active torsions:
REMARK  status: ('A' for Active; 'I' for Inactive)
REMARK    1  A    between atoms: C2_2  and  C3_3 
REMARK    2  A    between atoms: C2_2  and  N3_18 
REMARK       I    between atoms: C3_3  and  N1_5 
REMARK    3  A    between atoms: N1_5  and  C4_7 
REMARK    4  A    between atoms: N4_21  and  C15_22 
REMARK    5  A    between atoms: C15_22  and  C16_23 
REMARK    6  A    between atoms: C16_23  and  C17_24 
ROOT
HETATM    1  C1  UNL     1      22.821   4.111  12.034  1.00  0.00     0.042 C 
HETATM    2  C2  UNL     1      23.197   5.545  12.318  1.00  0.00     0.171 C 
ENDROOT
BRANCH   2   3
HETATM    3  C3  UNL     1      23.568   6.191  11.026  1.00  0.00     0.240 C 
HETATM    4  O1  UNL     1      24.699   6.734  10.973  1.00  0.00    -0.271 OA
HETATM    5  N1  UNL     1      22.699   6.197   9.911  1.00  0.00    -0.355 N 
ATOM      6  H1  UNL     1      21.794   5.740  10.024  1.00  0.00     0.162 HD
BRANCH   5   7
HETATM    7  C4  UNL     1      22.975   6.785   8.644  1.00  0.00     0.089 C 
HETATM    8  C5  UNL     1      22.731   8.302   8.657  1.00  0.00     0.055 C 
HETATM    9  C6  UNL     1      23.364   8.784   7.367  1.00  0.00     0.021 C 
HETATM   10  C7  UNL     1      24.842   8.486   7.333  1.00  0.00     0.037 C 
HETATM   11  C8  UNL     1      23.193  10.310   7.367  1.00  0.00     0.037 C 
HETATM   12  N2  UNL     1      22.630   8.285   6.280  1.00  0.00    -0.405 N 
HETATM   13  C9  UNL     1      22.067   7.006   6.307  1.00  0.00     0.021 C 
ATOM     14  H2  UNL     1      22.504   8.868   5.452  1.00  0.00     0.154 HD
HETATM   15  C10 UNL     1      20.547   7.170   6.124  1.00  0.00     0.037 C 
HETATM   16  C11 UNL     1      22.522   6.266   5.039  1.00  0.00     0.037 C 
HETATM   17  C12 UNL     1      22.286   6.149   7.484  1.00  0.00     0.055 C 
ENDBRANCH   5   7
ENDBRANCH   2   3
BRANCH   2  18
HETATM   18  N3  UNL     1      22.287   6.268  13.096  1.00  0.00    -0.374 N 
HETATM   19  C13 UNL     1      21.076   5.688  13.499  1.00  0.00     0.103 C 
HETATM   20  C14 UNL     1      20.833   5.757  15.000  1.00  0.00     0.107 C 
HETATM   21  N4  UNL     1      21.908   6.463  15.569  1.00  0.00    -0.367 N 
HETATM   22  C23 UNL     1      22.224   7.739  15.061  1.00  0.00     0.147 C 
HETATM   23  C24 UNL     1      22.633   7.536  13.593  1.00  0.00     0.143 C 
BRANCH  21  24
HETATM   24  C15 UNL     1      22.480   6.045  16.770  1.00  0.00     0.068 C 
BRANCH  24  25
HETATM   25  C16 UNL     1      22.536   7.040  17.894  1.00  0.00     0.078 C 
BRANCH  25  26
HETATM   26  C17 UNL     1      23.671   6.726  18.802  1.00  0.00    -0.079 C 
HETATM   27  C18 UNL     1      23.707   5.626  19.555  1.00  0.00    -0.024 C 
HETATM   28  C19 UNL     1      24.932   5.456  20.422  1.00  0.00     0.027 C 
HETATM   29  C20 UNL     1      26.154   5.597  19.535  1.00  0.00     0.004 C 
HETATM   30  C21 UNL     1      26.081   6.775  18.617  1.00  0.00     0.005 C 
HETATM   31  C22 UNL     1      24.846   7.632  18.921  1.00  0.00     0.034 C 
ENDBRANCH  25  26
ENDBRANCH  24  25
ENDBRANCH  21  24
ENDBRANCH   2  18
TORSDOF 6
ENDMDL
MODEL 2
REMARK VINA RESULT: -7.792008467      0.638      1.181
REMARK  6 active torsions:
REMARK  status: ('A' for Active; 'I' for Inactive)
REMARK    1  A    between atoms: C2_2  and  C3_3 
REMARK    2  A    between atoms: C2_2  and  N3_18 
REMARK       I    between atoms: C3_3  and  N1_5 
REMARK    3  A    between atoms: N1_5  and  C4_7 
REMARK    4  A    between atoms: N4_21  and  C15_22 
REMARK    5  A    between atoms: C15_22  and  C16_23 
REMARK    6  A    between atoms: C16_23  and  C17_24 
ROOT
HETATM    1  C1  UNL     1      22.983   4.135  12.169  1.00  0.00     0.042 C 
HETATM    2  C2  UNL     1      23.304   5.587  12.423  1.00  0.00     0.171 C 
ENDROOT
BRANCH   2   3
HETATM    3  C3  UNL     1      23.622   6.227  11.114  1.00  0.00     0.240 C 
HETATM    4  O1  UNL     1      24.738   6.795  11.022  1.00  0.00    -0.271 OA
HETATM    5  N1  UNL     1      22.721   6.200  10.024  1.00  0.00    -0.355 N 
ATOM      6  H1  UNL     1      21.831   5.724  10.169  1.00  0.00     0.162 HD
BRANCH   5   7
HETATM    7  C4  UNL     1      22.947   6.780   8.744  1.00  0.00     0.089 C 
HETATM    8  C5  UNL     1      22.642   8.285   8.741  1.00  0.00     0.055 C 
HETATM    9  C6  UNL     1      23.228   8.773   7.431  1.00  0.00     0.021 C 
HETATM   10  C7  UNL     1      24.715   8.534   7.369  1.00  0.00     0.037 C 
HETATM   11  C8  UNL     1      22.995  10.291   7.413  1.00  0.00     0.037 C 
HETATM   12  N2  UNL     1      22.491   8.229   6.367  1.00  0.00    -0.405 N 
HETATM   13  C9  UNL     1      21.981   6.929   6.424  1.00  0.00     0.021 C 
ATOM     14  H2  UNL     1      22.325   8.794   5.534  1.00  0.00     0.154 HD
HETATM   15  C10 UNL     1      20.452   7.029   6.271  1.00  0.00     0.037 C 
HETATM   16  C11 UNL     1      22.439   6.189   5.157  1.00  0.00     0.037 C 
HETATM   17  C12 UNL     1      22.260   6.099   7.608  1.00  0.00     0.055 C 
ENDBRANCH   5   7
ENDBRANCH   2   3
BRANCH   2  18
HETATM   18  N3  UNL     1      22.380   6.285  13.208  1.00  0.00    -0.374 N 
HETATM   19  C13 UNL     1      21.261   5.629  13.741  1.00  0.00     0.103 C 
HETATM   20  C14 UNL     1      21.110   5.799  15.246  1.00  0.00     0.107 C 
HETATM   21  N4  UNL     1      22.146   6.648  15.680  1.00  0.00    -0.367 N 
HETATM   22  C23 UNL     1      22.300   7.901  15.054  1.00  0.00     0.147 C 
HETATM   23  C24 UNL     1      22.630   7.616  13.580  1.00  0.00     0.143 C 
BRANCH  21  24
HETATM   24  C15 UNL     1      22.832   6.386  16.864  1.00  0.00     0.068 C 
BRANCH  24  25
HETATM   25  C16 UNL     1      24.172   5.715  16.755  1.00  0.00     0.078 C 
BRANCH  25  26
HETATM   26  C17 UNL     1      25.000   6.021  17.952  1.00  0.00    -0.079 C 
HETATM   27  C18 UNL     1      25.522   7.227  18.177  1.00  0.00    -0.024 C 
HETATM   28  C19 UNL     1      26.337   7.372  19.439  1.00  0.00     0.027 C 
HETATM   29  C20 UNL     1      25.494   6.875  20.598  1.00  0.00     0.004 C 
HETATM   30  C21 UNL     1      24.826   5.567  20.320  1.00  0.00     0.005 C 
HETATM   31  C22 UNL     1      25.293   4.985  18.979  1.00  0.00     0.034 C 
ENDBRANCH  25  26
ENDBRANCH  24  25
ENDBRANCH  21  24
ENDBRANCH   2  18
TORSDOF 6
ENDMDL
MODEL 3
REMARK VINA RESULT: -7.671493173      2.623      3.951
REMARK  6 active torsions:
REMARK  status: ('A' for Active; 'I' for Inactive)
REMARK    1  A    between atoms: C2_2  and  C3_3 
REMARK    2  A    between atoms: C2_2  and  N3_18 
REMARK       I    between atoms: C3_3  and  N1_5 
REMARK    3  A    between atoms: N1_5  and  C4_7 
REMARK    4  A    between atoms: N4_21  and  C15_22 
REMARK    5  A    between atoms: C15_22  and  C16_23 
REMARK    6  A    between atoms: C16_23  and  C17_24 
ROOT
HETATM    1  C1  UNL     1      21.674   6.150  15.626  1.00  0.00     0.042 C 
HETATM    2  C2  UNL     1      22.378   5.839  14.329  1.00  0.00     0.171 C 
ENDROOT
BRANCH   2   3
HETATM    3  C3  UNL     1      21.366   5.866  13.234  1.00  0.00     0.240 C 
HETATM    4  O1  UNL     1      20.239   6.338  13.522  1.00  0.00    -0.271 OA
HETATM    5  N1  UNL     1      21.650   5.389  11.934  1.00  0.00    -0.355 N 
ATOM      6  H1  UNL     1      22.585   5.016  11.770  1.00  0.00     0.162 HD
BRANCH   5   7
HETATM    7  C4  UNL     1      20.746   5.382  10.834  1.00  0.00     0.089 C 
HETATM    8  C5  UNL     1      20.083   4.008  10.653  1.00  0.00     0.055 C 
HETATM    9  C6  UNL     1      18.956   4.273   9.675  1.00  0.00     0.021 C 
HETATM   10  C7  UNL     1      17.968   5.269  10.230  1.00  0.00     0.037 C 
HETATM   11  C8  UNL     1      18.227   2.932   9.509  1.00  0.00     0.037 C 
HETATM   12  N2  UNL     1      19.500   4.607   8.425  1.00  0.00    -0.405 N 
HETATM   13  C9  UNL     1      20.666   5.369   8.318  1.00  0.00     0.021 C 
ATOM     14  H2  UNL     1      19.034   4.286   7.576  1.00  0.00     0.154 HD
HETATM   15  C10 UNL     1      21.701   4.522   7.556  1.00  0.00     0.037 C 
HETATM   16  C11 UNL     1      20.373   6.546   7.373  1.00  0.00     0.037 C 
HETATM   17  C12 UNL     1      21.312   5.871   9.544  1.00  0.00     0.055 C 
ENDBRANCH   5   7
ENDBRANCH   2   3
BRANCH   2  18
HETATM   18  N3  UNL     1      23.538   6.579  14.076  1.00  0.00    -0.374 N 
HETATM   19  C13 UNL     1      23.458   7.842  13.471  1.00  0.00     0.103 C 
HETATM   20  C14 UNL     1      24.168   8.940  14.250  1.00  0.00     0.107 C 
HETATM   21  N4  UNL     1      24.775   8.338  15.368  1.00  0.00    -0.367 N 
HETATM   22  C23 UNL     1      25.638   7.242  15.162  1.00  0.00     0.147 C 
HETATM   23  C24 UNL     1      24.782   6.125  14.542  1.00  0.00     0.143 C 
BRANCH  21  24
HETATM   24  C15 UNL     1      24.747   8.960  16.615  1.00  0.00     0.068 C 
BRANCH  24  25
HETATM   25  C16 UNL     1      23.629   8.593  17.548  1.00  0.00     0.078 C 
BRANCH  25  26
HETATM   26  C17 UNL     1      24.095   7.587  18.539  1.00  0.00    -0.079 C 
HETATM   27  C18 UNL     1      23.307   6.617  19.004  1.00  0.00    -0.024 C 
HETATM   28  C19 UNL     1      23.934   5.676  20.005  1.00  0.00     0.027 C 
HETATM   29  C20 UNL     1      25.221   5.145  19.403  1.00  0.00     0.004 C 
HETATM   30  C21 UNL     1      26.069   6.214  18.791  1.00  0.00     0.005 C 
HETATM   31  C22 UNL     1      25.485   7.605  19.070  1.00  0.00     0.034 C 
ENDBRANCH  25  26
ENDBRANCH  24  25
ENDBRANCH  21  24
ENDBRANCH   2  18
TORSDOF 6
ENDMDL
MODEL 4
REMARK VINA RESULT: -7.632773682      2.078      8.541
REMARK  6 active torsions:
REMARK  status: ('A' for Active; 'I' for Inactive)
REMARK    1  A    between atoms: C2_2  and  C3_3 
REMARK    2  A    between atoms: C2_2  and  N3_18 
REMARK       I    between atoms: C3_3  and  N1_5 
REMARK    3  A    between atoms: N1_5  and  C4_7 
REMARK    4  A    between atoms: N4_21  and  C15_22 
REMARK    5  A    between atoms: C15_22  and  C16_23 
REMARK    6  A    between atoms: C16_23  and  C17_24 
ROOT
HETATM    1  C1  UNL     1      22.304   3.780  11.124  1.00  0.00     0.042 C 
HETATM    2  C2  UNL     1      21.302   4.692  11.789  1.00  0.00     0.171 C 
ENDROOT
BRANCH   2   3
HETATM    3  C3  UNL     1      22.052   5.664  12.637  1.00  0.00     0.240 C 
HETATM    4  O1  UNL     1      22.613   6.615  12.040  1.00  0.00    -0.271 OA
HETATM    5  N1  UNL     1      22.132   5.531  14.042  1.00  0.00    -0.355 N 
ATOM      6  H1  UNL     1      21.655   4.734  14.462  1.00  0.00     0.162 HD
BRANCH   5   7
HETATM    7  C4  UNL     1      22.821   6.413  14.923  1.00  0.00     0.089 C 
HETATM    8  C5  UNL     1      24.337   6.391  14.676  1.00  0.00     0.055 C 
HETATM    9  C6  UNL     1      24.850   7.585  15.456  1.00  0.00     0.021 C 
HETATM   10  C7  UNL     1      24.249   8.873  14.950  1.00  0.00     0.037 C 
HETATM   11  C8  UNL     1      26.361   7.636  15.189  1.00  0.00     0.037 C 
HETATM   12  N2  UNL     1      24.679   7.346  16.829  1.00  0.00    -0.405 N 
HETATM   13  C9  UNL     1      23.561   6.665  17.315  1.00  0.00     0.021 C 
ATOM     14  H2  UNL     1      25.387   7.677  17.484  1.00  0.00     0.154 HD
HETATM   15  C10 UNL     1      24.071   5.418  18.060  1.00  0.00     0.037 C 
HETATM   16  C11 UNL     1      22.927   7.530  18.417  1.00  0.00     0.037 C 
HETATM   17  C12 UNL     1      22.518   6.228  16.371  1.00  0.00     0.055 C 
ENDBRANCH   5   7
ENDBRANCH   2   3
BRANCH   2  18
HETATM   18  N3  UNL     1      20.349   5.266  10.941  1.00  0.00    -0.374 N 
HETATM   19  C13 UNL     1      19.437   6.212  11.432  1.00  0.00     0.103 C 
HETATM   20  C14 UNL     1      19.414   7.510  10.639  1.00  0.00     0.107 C 
HETATM   21  N4  UNL     1      20.307   7.362   9.562  1.00  0.00    -0.367 N 
HETATM   22  C23 UNL     1      20.154   6.256   8.703  1.00  0.00     0.147 C 
HETATM   23  C24 UNL     1      20.378   5.001   9.563  1.00  0.00     0.143 C 
BRANCH  21  24
HETATM   24  C15 UNL     1      21.151   8.406   9.188  1.00  0.00     0.068 C 
BRANCH  24  25
HETATM   25  C16 UNL     1      21.658   8.415   7.773  1.00  0.00     0.078 C 
BRANCH  25  26
HETATM   26  C17 UNL     1      23.097   8.041   7.740  1.00  0.00    -0.079 C 
HETATM   27  C18 UNL     1      23.933   8.479   6.797  1.00  0.00    -0.024 C 
HETATM   28  C19 UNL     1      25.362   8.007   6.908  1.00  0.00     0.027 C 
HETATM   29  C20 UNL     1      25.849   8.319   8.310  1.00  0.00     0.004 C 
HETATM   30  C21 UNL     1      24.876   7.919   9.372  1.00  0.00     0.005 C 
HETATM   31  C22 UNL     1      23.693   7.149   8.772  1.00  0.00     0.034 C 
ENDBRANCH  25  26
ENDBRANCH  24  25
ENDBRANCH  21  24
ENDBRANCH   2  18
TORSDOF 6
ENDMDL
MODEL 5
REMARK VINA RESULT: -7.618863206      1.893      8.911
REMARK  6 active torsions:
REMARK  status: ('A' for Active; 'I' for Inactive)
REMARK    1  A    between atoms: C2_2  and  C3_3 
REMARK    2  A    between atoms: C2_2  and  N3_18 
REMARK       I    between atoms: C3_3  and  N1_5 
REMARK    3  A    between atoms: N1_5  and  C4_7 
REMARK    4  A    between atoms: N4_21  and  C15_22 
REMARK    5  A    between atoms: C15_22  and  C16_23 
REMARK    6  A    between atoms: C16_23  and  C17_24 
ROOT
HETATM    1  C1  UNL     1      23.057   3.550  11.859  1.00  0.00     0.042 C 
HETATM    2  C2  UNL     1      22.023   4.614  12.138  1.00  0.00     0.171 C 
ENDROOT
BRANCH   2   3
HETATM    3  C3  UNL     1      22.631   5.622  13.053  1.00  0.00     0.240 C 
HETATM    4  O1  UNL     1      23.487   6.392  12.553  1.00  0.00    -0.271 OA
HETATM    5  N1  UNL     1      22.270   5.715  14.417  1.00  0.00    -0.355 N 
ATOM      6  H1  UNL     1      21.571   5.057  14.759  1.00  0.00     0.162 HD
BRANCH   5   7
HETATM    7  C4  UNL     1      22.797   6.647  15.356  1.00  0.00     0.089 C 
HETATM    8  C5  UNL     1      23.787   5.981  16.322  1.00  0.00     0.055 C 
HETATM    9  C6  UNL     1      24.464   7.148  17.014  1.00  0.00     0.021 C 
HETATM   10  C7  UNL     1      25.195   8.023  16.027  1.00  0.00     0.037 C 
HETATM   11  C8  UNL     1      25.508   6.525  17.952  1.00  0.00     0.037 C 
HETATM   12  N2  UNL     1      23.526   7.812  17.819  1.00  0.00    -0.405 N 
HETATM   13  C9  UNL     1      22.195   7.957  17.419  1.00  0.00     0.021 C 
ATOM     14  H2  UNL     1      23.822   8.197  18.716  1.00  0.00     0.154 HD
HETATM   15  C10 UNL     1      21.318   7.279  18.487  1.00  0.00     0.037 C 
HETATM   16  C11 UNL     1      21.833   9.447  17.523  1.00  0.00     0.037 C 
HETATM   17  C12 UNL     1      21.779   7.440  16.103  1.00  0.00     0.055 C 
ENDBRANCH   5   7
ENDBRANCH   2   3
BRANCH   2  18
HETATM   18  N3  UNL     1      21.386   5.150  11.014  1.00  0.00    -0.374 N 
HETATM   19  C13 UNL     1      20.364   6.100  11.160  1.00  0.00     0.103 C 
HETATM   20  C14 UNL     1      20.592   7.373  10.358  1.00  0.00     0.107 C 
HETATM   21  N4  UNL     1      21.780   7.202   9.625  1.00  0.00    -0.367 N 
HETATM   22  C23 UNL     1      21.908   6.068   8.798  1.00  0.00     0.147 C 
HETATM   23  C24 UNL     1      21.850   4.843   9.725  1.00  0.00     0.143 C 
BRANCH  21  24
HETATM   24  C15 UNL     1      22.698   8.244   9.502  1.00  0.00     0.068 C 
BRANCH  24  25
HETATM   25  C16 UNL     1      24.152   7.912   9.680  1.00  0.00     0.078 C 
BRANCH  25  26
HETATM   26  C17 UNL     1      24.901   8.194   8.426  1.00  0.00    -0.079 C 
HETATM   27  C18 UNL     1      26.183   7.865   8.264  1.00  0.00    -0.024 C 
HETATM   28  C19 UNL     1      26.795   8.221   6.931  1.00  0.00     0.027 C 
HETATM   29  C20 UNL     1      25.904   7.654   5.842  1.00  0.00     0.004 C 
HETATM   30  C21 UNL     1      24.453   7.937   6.065  1.00  0.00     0.005 C 
HETATM   31  C22 UNL     1      24.252   8.867   7.268  1.00  0.00     0.034 C 
ENDBRANCH  25  26
ENDBRANCH  24  25
ENDBRANCH  21  24
ENDBRANCH   2  18
TORSDOF 6
ENDMDL
