MODEL 1
REMARK VINA RESULT: -7.834151800      0.000      0.000
REMARK  9 active torsions:
REMARK  status: ('A' for Active; 'I' for Inactive)
REMARK    1  A    between atoms: C2_2  and  C3_3 
REMARK    2  A    between atoms: C2_2  and  C6_6 
REMARK    3  A    between atoms: C3_3  and  C4_4 
REMARK    4  A    between atoms: C6_6  and  C7_8 
REMARK    5  A    between atoms: C17_23  and  O6_25 
REMARK    6  A    between atoms: C22_30  and  C23_31 
REMARK    7  A    between atoms: C23_31  and  C25_34 
REMARK    8  A    between atoms: C25_34  and  O7_35 
REMARK    9  A    between atoms: C26_37  and  O8_38 
ROOT
HETATM    1  C7  UNL     1      43.207  49.124  20.089  1.00  0.00     0.071 C 
HETATM    2  C8  UNL     1      41.809  48.980  20.407  1.00  0.00     0.166 C 
HETATM    3  O2  UNL     1      41.105  49.979  20.097  1.00  0.00    -0.292 OA
HETATM    4  C9  UNL     1      40.989  47.931  21.014  1.00  0.00     0.059 C 
HETATM    5  C10 UNL     1      40.114  47.146  20.066  1.00  0.00     0.018 C 
HETATM    6  C11 UNL     1      40.255  48.383  22.227  1.00  0.00     0.055 C 
HETATM    7  C12 UNL     1      39.167  49.375  22.093  1.00  0.00     0.111 A 
HETATM    8  C13 UNL     1      38.066  49.218  21.067  1.00  0.00     0.051 C 
HETATM    9  O3  UNL     1      38.403  49.310  23.405  1.00  0.00    -0.342 OA
HETATM   10  C14 UNL     1      39.097  50.453  22.999  1.00  0.00     0.301 A 
HETATM   11  O4  UNL     1      40.129  50.755  23.838  1.00  0.00    -0.296 OA
HETATM   12  C15 UNL     1      40.457  52.110  23.730  1.00  0.00     0.320 C 
HETATM   13  C16 UNL     1      39.217  52.916  23.946  1.00  0.00     0.121 C 
HETATM   14  F1  UNL     1      41.360  52.344  24.787  1.00  0.00    -0.181 F 
HETATM   15  O5  UNL     1      41.070  52.198  22.538  1.00  0.00    -0.289 OA
HETATM   16  C17 UNL     1      41.456  53.315  21.960  1.00  0.00     0.183 C 
HETATM   17  C18 UNL     1      40.617  53.500  20.678  1.00  0.00     0.084 C 
HETATM   18  C19 UNL     1      42.886  53.556  21.695  1.00  0.00     0.040 C 
HETATM   19  C20 UNL     1      43.964  52.884  21.959  1.00  0.00     0.002 C 
HETATM   20  C21 UNL     1      44.322  51.648  22.592  1.00  0.00     0.008 C 
HETATM   21  C22 UNL     1      44.377  50.359  22.130  1.00  0.00    -0.022 C 
HETATM   22  C26 UNL     1      44.097  50.074  20.718  1.00  0.00     0.190 C 
ENDROOT
BRANCH   1  23
HETATM   23  C6  UNL     1      43.873  47.896  19.489  1.00  0.00     0.190 C 
HETATM   24  O1  UNL     1      45.031  47.532  19.843  1.00  0.00    -0.287 OA
BRANCH  23  25
HETATM   25  C2  UNL     1      43.272  47.040  18.483  1.00  0.00    -0.017 C 
HETATM   26  C1  UNL     1      42.773  47.548  17.379  1.00  0.00     0.023 C 
BRANCH  25  27
HETATM   27  C3  UNL     1      43.168  45.561  18.651  1.00  0.00     0.041 C 
BRANCH  27  28
HETATM   28  C4  UNL     1      42.128  44.989  17.739  1.00  0.00     0.000 C 
HETATM   29  C5  UNL     1      41.361  43.882  18.483  1.00  0.00     0.005 C 
ENDBRANCH  27  28
ENDBRANCH  25  27
ENDBRANCH  23  25
ENDBRANCH   1  23
BRANCH  22  30
HETATM   30  O8  UNL     1      45.361  49.897  20.027  1.00  0.00    -0.386 OA
ATOM     31  H8  UNL     1      45.345  48.995  19.731  1.00  0.00     0.210 HD
ENDBRANCH  22  30
BRANCH  21  32
HETATM   32  C23 UNL     1      44.814  49.367  23.152  1.00  0.00     0.081 C 
HETATM   33  C24 UNL     1      46.246  49.083  23.296  1.00  0.00     0.040 C 
HETATM   34 CL1  UNL     1      44.173  47.690  22.785  1.00  0.00    -0.112 Cl
BRANCH  32  35
HETATM   35  C25 UNL     1      44.108  49.585  24.488  1.00  0.00     0.194 C 
BRANCH  35  36
HETATM   36  O7  UNL     1      42.775  49.218  24.264  1.00  0.00    -0.399 OA
ATOM     37  H7  UNL     1      42.537  48.675  25.007  1.00  0.00     0.209 HD
ENDBRANCH  35  36
ENDBRANCH  32  35
ENDBRANCH  21  32
BRANCH  16  38
HETATM   38  O6  UNL     1      40.911  54.373  22.766  1.00  0.00    -0.362 OA
ATOM     39  H6  UNL     1      40.006  54.463  22.489  1.00  0.00     0.213 HD
ENDBRANCH  16  38
TORSDOF 9
ENDMDL
MODEL 2
REMARK VINA RESULT: -7.683882807      0.817      1.106
REMARK  9 active torsions:
REMARK  status: ('A' for Active; 'I' for Inactive)
REMARK    1  A    between atoms: C2_2  and  C3_3 
REMARK    2  A    between atoms: C2_2  and  C6_6 
REMARK    3  A    between atoms: C3_3  and  C4_4 
REMARK    4  A    between atoms: C6_6  and  C7_8 
REMARK    5  A    between atoms: C17_23  and  O6_25 
REMARK    6  A    between atoms: C22_30  and  C23_31 
REMARK    7  A    between atoms: C23_31  and  C25_34 
REMARK    8  A    between atoms: C25_34  and  O7_35 
REMARK    9  A    between atoms: C26_37  and  O8_38 
ROOT
HETATM    1  C7  UNL     1      43.021  48.777  19.918  1.00  0.00     0.071 C 
HETATM    2  C8  UNL     1      41.628  48.664  20.272  1.00  0.00     0.166 C 
HETATM    3  O2  UNL     1      40.931  49.659  19.939  1.00  0.00    -0.292 OA
HETATM    4  C9  UNL     1      40.810  47.650  20.937  1.00  0.00     0.059 C 
HETATM    5  C10 UNL     1      39.903  46.841  20.040  1.00  0.00     0.018 C 
HETATM    6  C11 UNL     1      40.109  48.158  22.147  1.00  0.00     0.055 C 
HETATM    7  C12 UNL     1      39.031  49.159  21.999  1.00  0.00     0.111 A 
HETATM    8  C13 UNL     1      37.905  48.978  21.004  1.00  0.00     0.051 C 
HETATM    9  O3  UNL     1      38.296  49.156  23.329  1.00  0.00    -0.342 OA
HETATM   10  C14 UNL     1      38.995  50.272  22.864  1.00  0.00     0.301 A 
HETATM   11  O4  UNL     1      40.049  50.593  23.668  1.00  0.00    -0.296 OA
HETATM   12  C15 UNL     1      40.392  51.938  23.500  1.00  0.00     0.320 C 
HETATM   13  C16 UNL     1      39.167  52.768  23.712  1.00  0.00     0.121 C 
HETATM   14  F1  UNL     1      41.321  52.199  24.527  1.00  0.00    -0.181 F 
HETATM   15  O5  UNL     1      40.979  51.971  22.292  1.00  0.00    -0.289 OA
HETATM   16  C17 UNL     1      41.366  53.060  21.664  1.00  0.00     0.183 C 
HETATM   17  C18 UNL     1      40.500  53.206  20.394  1.00  0.00     0.084 C 
HETATM   18  C19 UNL     1      42.793  53.271  21.357  1.00  0.00     0.040 C 
HETATM   19  C20 UNL     1      43.867  52.595  21.624  1.00  0.00     0.002 C 
HETATM   20  C21 UNL     1      44.224  51.379  22.297  1.00  0.00     0.008 C 
HETATM   21  C22 UNL     1      44.252  50.073  21.884  1.00  0.00    -0.022 C 
HETATM   22  C26 UNL     1      43.937  49.738  20.490  1.00  0.00     0.190 C 
ENDROOT
BRANCH   1  23
HETATM   23  C6  UNL     1      43.658  47.517  19.351  1.00  0.00     0.190 C 
HETATM   24  O1  UNL     1      44.800  47.127  19.728  1.00  0.00    -0.287 OA
BRANCH  23  25
HETATM   25  C2  UNL     1      43.043  46.658  18.357  1.00  0.00    -0.017 C 
HETATM   26  C1  UNL     1      42.530  47.163  17.258  1.00  0.00     0.023 C 
BRANCH  25  27
HETATM   27  C3  UNL     1      42.942  45.180  18.531  1.00  0.00     0.041 C 
BRANCH  27  28
HETATM   28  C4  UNL     1      41.842  44.615  17.687  1.00  0.00     0.000 C 
HETATM   29  C5  UNL     1      41.073  43.562  18.503  1.00  0.00     0.005 C 
ENDBRANCH  27  28
ENDBRANCH  25  27
ENDBRANCH  23  25
ENDBRANCH   1  23
BRANCH  22  30
HETATM   30  O8  UNL     1      45.183  49.517  19.779  1.00  0.00    -0.386 OA
ATOM     31  H8  UNL     1      45.043  49.915  18.928  1.00  0.00     0.210 HD
ENDBRANCH  22  30
BRANCH  21  32
HETATM   32  C23 UNL     1      44.699  49.115  22.934  1.00  0.00     0.081 C 
HETATM   33  C24 UNL     1      44.342  47.699  22.798  1.00  0.00     0.040 C 
HETATM   34 CL1  UNL     1      43.949  49.498  24.561  1.00  0.00    -0.112 Cl
BRANCH  32  35
HETATM   35  C25 UNL     1      46.163  49.332  23.310  1.00  0.00     0.194 C 
BRANCH  35  36
HETATM   36  O7  UNL     1      46.899  48.833  22.228  1.00  0.00    -0.399 OA
ATOM     37  H7  UNL     1      47.809  48.998  22.447  1.00  0.00     0.209 HD
ENDBRANCH  35  36
ENDBRANCH  32  35
ENDBRANCH  21  32
BRANCH  16  38
HETATM   38  O6  UNL     1      40.852  54.155  22.439  1.00  0.00    -0.362 OA
ATOM     39  H6  UNL     1      41.564  54.782  22.497  1.00  0.00     0.213 HD
ENDBRANCH  16  38
TORSDOF 9
ENDMDL
MODEL 3
REMARK VINA RESULT: -7.670438981      1.339      1.715
REMARK  9 active torsions:
REMARK  status: ('A' for Active; 'I' for Inactive)
REMARK    1  A    between atoms: C2_2  and  C3_3 
REMARK    2  A    between atoms: C2_2  and  C6_6 
REMARK    3  A    between atoms: C3_3  and  C4_4 
REMARK    4  A    between atoms: C6_6  and  C7_8 
REMARK    5  A    between atoms: C17_23  and  O6_25 
REMARK    6  A    between atoms: C22_30  and  C23_31 
REMARK    7  A    between atoms: C23_31  and  C25_34 
REMARK    8  A    between atoms: C25_34  and  O7_35 
REMARK    9  A    between atoms: C26_37  and  O8_38 
ROOT
HETATM    1  C7  UNL     1      42.896  48.140  19.526  1.00  0.00     0.071 C 
HETATM    2  C8  UNL     1      41.583  48.251  20.110  1.00  0.00     0.166 C 
HETATM    3  O2  UNL     1      40.920  49.242  19.701  1.00  0.00    -0.292 OA
HETATM    4  C9  UNL     1      40.815  47.474  21.083  1.00  0.00     0.059 C 
HETATM    5  C10 UNL     1      39.702  46.624  20.518  1.00  0.00     0.018 C 
HETATM    6  C11 UNL     1      40.381  48.269  22.263  1.00  0.00     0.055 C 
HETATM    7  C12 UNL     1      39.379  49.342  22.092  1.00  0.00     0.111 A 
HETATM    8  C13 UNL     1      38.084  49.112  21.343  1.00  0.00     0.051 C 
HETATM    9  O3  UNL     1      38.892  49.663  23.495  1.00  0.00    -0.342 OA
HETATM   10  C14 UNL     1      39.586  50.590  22.714  1.00  0.00     0.301 A 
HETATM   11  O4  UNL     1      40.787  50.930  23.263  1.00  0.00    -0.296 OA
HETATM   12  C15 UNL     1      41.203  52.175  22.781  1.00  0.00     0.320 C 
HETATM   13  C16 UNL     1      40.106  53.163  23.013  1.00  0.00     0.121 C 
HETATM   14  F1  UNL     1      42.317  52.511  23.576  1.00  0.00    -0.181 F 
HETATM   15  O5  UNL     1      41.569  51.922  21.513  1.00  0.00    -0.289 OA
HETATM   16  C17 UNL     1      41.926  52.828  20.628  1.00  0.00     0.183 C 
HETATM   17  C18 UNL     1      40.865  52.838  19.507  1.00  0.00     0.084 C 
HETATM   18  C19 UNL     1      43.289  52.817  20.066  1.00  0.00     0.040 C 
HETATM   19  C20 UNL     1      44.335  52.083  20.288  1.00  0.00     0.002 C 
HETATM   20  C21 UNL     1      44.706  50.977  21.123  1.00  0.00     0.008 C 
HETATM   21  C22 UNL     1      44.555  49.623  20.978  1.00  0.00    -0.022 C 
HETATM   22  C26 UNL     1      43.973  49.079  19.745  1.00  0.00     0.190 C 
ENDROOT
BRANCH   1  23
HETATM   23  C6  UNL     1      43.319  46.734  19.127  1.00  0.00     0.190 C 
HETATM   24  O1  UNL     1      44.315  46.167  19.660  1.00  0.00    -0.287 OA
BRANCH  23  25
HETATM   25  C2  UNL     1      42.647  45.923  18.129  1.00  0.00    -0.017 C 
HETATM   26  C1  UNL     1      42.083  46.477  17.081  1.00  0.00     0.023 C 
BRANCH  25  27
HETATM   27  C3  UNL     1      42.541  44.439  18.245  1.00  0.00     0.041 C 
BRANCH  27  28
HETATM   28  C4  UNL     1      41.133  44.022  18.534  1.00  0.00     0.000 C 
HETATM   29  C5  UNL     1      40.960  42.541  18.160  1.00  0.00     0.005 C 
ENDBRANCH  27  28
ENDBRANCH  25  27
ENDBRANCH  23  25
ENDBRANCH   1  23
BRANCH  22  30
HETATM   30  O8  UNL     1      45.052  48.593  18.905  1.00  0.00    -0.386 OA
ATOM     31  H8  UNL     1      45.278  49.336  18.357  1.00  0.00     0.210 HD
ENDBRANCH  22  30
BRANCH  21  32
HETATM   32  C23 UNL     1      45.101  48.827  22.113  1.00  0.00     0.081 C 
HETATM   33  C24 UNL     1      44.310  47.708  22.637  1.00  0.00     0.040 C 
HETATM   34 CL1  UNL     1      45.287  49.846  23.625  1.00  0.00    -0.112 Cl
BRANCH  32  35
HETATM   35  C25 UNL     1      46.571  48.477  21.901  1.00  0.00     0.194 C 
BRANCH  35  36
HETATM   36  O7  UNL     1      46.564  47.290  21.159  1.00  0.00    -0.399 OA
ATOM     37  H7  UNL     1      46.584  46.592  21.804  1.00  0.00     0.209 HD
ENDBRANCH  35  36
ENDBRANCH  32  35
ENDBRANCH  21  32
BRANCH  16  38
HETATM   38  O6  UNL     1      41.647  54.096  21.243  1.00  0.00    -0.362 OA
ATOM     39  H6  UNL     1      41.739  54.740  20.550  1.00  0.00     0.213 HD
ENDBRANCH  16  38
TORSDOF 9
ENDMDL
MODEL 4
REMARK VINA RESULT: -7.638023521      1.343      1.897
REMARK  9 active torsions:
REMARK  status: ('A' for Active; 'I' for Inactive)
REMARK    1  A    between atoms: C2_2  and  C3_3 
REMARK    2  A    between atoms: C2_2  and  C6_6 
REMARK    3  A    between atoms: C3_3  and  C4_4 
REMARK    4  A    between atoms: C6_6  and  C7_8 
REMARK    5  A    between atoms: C17_23  and  O6_25 
REMARK    6  A    between atoms: C22_30  and  C23_31 
REMARK    7  A    between atoms: C23_31  and  C25_34 
REMARK    8  A    between atoms: C25_34  and  O7_35 
REMARK    9  A    between atoms: C26_37  and  O8_38 
ROOT
HETATM    1  C7  UNL     1      42.473  48.962  18.739  1.00  0.00     0.071 C 
HETATM    2  C8  UNL     1      41.183  48.832  19.370  1.00  0.00     0.166 C 
HETATM    3  O2  UNL     1      40.517  49.901  19.405  1.00  0.00    -0.292 OA
HETATM    4  C9  UNL     1      40.443  47.734  19.992  1.00  0.00     0.059 C 
HETATM    5  C10 UNL     1      39.300  47.167  19.184  1.00  0.00     0.018 C 
HETATM    6  C11 UNL     1      40.062  48.004  21.405  1.00  0.00     0.055 C 
HETATM    7  C12 UNL     1      39.066  49.055  21.703  1.00  0.00     0.111 A 
HETATM    8  C13 UNL     1      37.742  49.130  20.974  1.00  0.00     0.051 C 
HETATM    9  O3  UNL     1      38.635  48.802  23.139  1.00  0.00    -0.342 OA
HETATM   10  C14 UNL     1      39.310  49.963  22.755  1.00  0.00     0.301 A 
HETATM   11  O4  UNL     1      40.535  50.067  23.346  1.00  0.00    -0.296 OA
HETATM   12  C15 UNL     1      40.947  51.403  23.371  1.00  0.00     0.320 C 
HETATM   13  C16 UNL     1      39.870  52.217  24.012  1.00  0.00     0.121 C 
HETATM   14  F1  UNL     1      42.093  51.407  24.191  1.00  0.00    -0.181 F 
HETATM   15  O5  UNL     1      41.262  51.665  22.092  1.00  0.00    -0.289 OA
HETATM   16  C17 UNL     1      41.597  52.846  21.617  1.00  0.00     0.183 C 
HETATM   17  C18 UNL     1      40.495  53.288  20.630  1.00  0.00     0.084 C 
HETATM   18  C19 UNL     1      42.938  53.061  21.043  1.00  0.00     0.040 C 
HETATM   19  C20 UNL     1      43.983  52.302  20.921  1.00  0.00     0.002 C 
HETATM   20  C21 UNL     1      44.372  50.960  21.245  1.00  0.00     0.008 C 
HETATM   21  C22 UNL     1      44.201  49.769  20.589  1.00  0.00    -0.022 C 
HETATM   22  C26 UNL     1      43.567  49.746  19.265  1.00  0.00     0.190 C 
ENDROOT
BRANCH   1  23
HETATM   23  C6  UNL     1      42.864  47.825  17.808  1.00  0.00     0.190 C 
HETATM   24  O1  UNL     1      43.235  48.043  16.619  1.00  0.00    -0.287 OA
BRANCH  23  25
HETATM   25  C2  UNL     1      42.857  46.421  18.171  1.00  0.00    -0.017 C 
HETATM   26  C1  UNL     1      43.609  45.977  19.153  1.00  0.00     0.023 C 
BRANCH  25  27
HETATM   27  C3  UNL     1      42.026  45.413  17.451  1.00  0.00     0.041 C 
BRANCH  27  28
HETATM   28  C4  UNL     1      42.235  44.042  18.015  1.00  0.00     0.000 C 
HETATM   29  C5  UNL     1      40.884  43.482  18.489  1.00  0.00     0.005 C 
ENDBRANCH  27  28
ENDBRANCH  25  27
ENDBRANCH  23  25
ENDBRANCH   1  23
BRANCH  22  30
HETATM   30  O8  UNL     1      44.609  49.631  18.261  1.00  0.00    -0.386 OA
ATOM     31  H8  UNL     1      45.014  48.789  18.436  1.00  0.00     0.210 HD
ENDBRANCH  22  30
BRANCH  21  32
HETATM   32  C23 UNL     1      44.779  48.596  21.302  1.00  0.00     0.081 C 
HETATM   33  C24 UNL     1      43.870  47.596  21.873  1.00  0.00     0.040 C 
HETATM   34 CL1  UNL     1      45.704  49.105  22.800  1.00  0.00    -0.112 Cl
BRANCH  32  35
HETATM   35  C25 UNL     1      45.939  47.979  20.526  1.00  0.00     0.194 C 
BRANCH  35  36
HETATM   36  O7  UNL     1      46.859  49.020  20.348  1.00  0.00    -0.399 OA
ATOM     37  H7  UNL     1      46.347  49.754  20.030  1.00  0.00     0.209 HD
ENDBRANCH  35  36
ENDBRANCH  32  35
ENDBRANCH  21  32
BRANCH  16  38
HETATM   38  O6  UNL     1      41.355  53.773  22.688  1.00  0.00    -0.362 OA
ATOM     39  H6  UNL     1      42.168  53.812  23.178  1.00  0.00     0.213 HD
ENDBRANCH  16  38
TORSDOF 9
ENDMDL
MODEL 5
REMARK VINA RESULT: -7.574716793      1.330      1.647
REMARK  9 active torsions:
REMARK  status: ('A' for Active; 'I' for Inactive)
REMARK    1  A    between atoms: C2_2  and  C3_3 
REMARK    2  A    between atoms: C2_2  and  C6_6 
REMARK    3  A    between atoms: C3_3  and  C4_4 
REMARK    4  A    between atoms: C6_6  and  C7_8 
REMARK    5  A    between atoms: C17_23  and  O6_25 
REMARK    6  A    between atoms: C22_30  and  C23_31 
REMARK    7  A    between atoms: C23_31  and  C25_34 
REMARK    8  A    between atoms: C25_34  and  O7_35 
REMARK    9  A    between atoms: C26_37  and  O8_38 
ROOT
HETATM    1  C7  UNL     1      42.412  48.920  18.637  1.00  0.00     0.071 C 
HETATM    2  C8  UNL     1      41.119  48.799  19.264  1.00  0.00     0.166 C 
HETATM    3  O2  UNL     1      40.482  49.883  19.344  1.00  0.00    -0.292 OA
HETATM    4  C9  UNL     1      40.350  47.697  19.842  1.00  0.00     0.059 C 
HETATM    5  C10 UNL     1      39.193  47.193  19.013  1.00  0.00     0.018 C 
HETATM    6  C11 UNL     1      39.977  47.919  21.265  1.00  0.00     0.055 C 
HETATM    7  C12 UNL     1      39.010  48.983  21.607  1.00  0.00     0.111 A 
HETATM    8  C13 UNL     1      37.688  49.123  20.884  1.00  0.00     0.051 C 
HETATM    9  O3  UNL     1      38.572  48.682  23.032  1.00  0.00    -0.342 OA
HETATM   10  C14 UNL     1      39.278  49.840  22.695  1.00  0.00     0.301 A 
HETATM   11  O4  UNL     1      40.505  49.887  23.288  1.00  0.00    -0.296 OA
HETATM   12  C15 UNL     1      40.953  51.209  23.367  1.00  0.00     0.320 C 
HETATM   13  C16 UNL     1      39.899  52.025  24.042  1.00  0.00     0.121 C 
HETATM   14  F1  UNL     1      42.099  51.150  24.185  1.00  0.00    -0.181 F 
HETATM   15  O5  UNL     1      41.275  51.516  22.099  1.00  0.00    -0.289 OA
HETATM   16  C17 UNL     1      41.641  52.705  21.672  1.00  0.00     0.183 C 
HETATM   17  C18 UNL     1      40.551  53.217  20.706  1.00  0.00     0.084 C 
HETATM   18  C19 UNL     1      42.986  52.908  21.106  1.00  0.00     0.040 C 
HETATM   19  C20 UNL     1      44.011  52.127  20.952  1.00  0.00     0.002 C 
HETATM   20  C21 UNL     1      44.364  50.763  21.220  1.00  0.00     0.008 C 
HETATM   21  C22 UNL     1      44.161  49.605  20.516  1.00  0.00    -0.022 C 
HETATM   22  C26 UNL     1      43.527  49.652  19.193  1.00  0.00     0.190 C 
ENDROOT
BRANCH   1  23
HETATM   23  C6  UNL     1      42.773  47.812  17.660  1.00  0.00     0.190 C 
HETATM   24  O1  UNL     1      43.172  48.069  16.488  1.00  0.00    -0.287 OA
BRANCH  23  25
HETATM   25  C2  UNL     1      42.702  46.394  17.957  1.00  0.00    -0.017 C 
HETATM   26  C1  UNL     1      43.461  45.865  18.890  1.00  0.00     0.023 C 
BRANCH  25  27
HETATM   27  C3  UNL     1      41.795  45.467  17.220  1.00  0.00     0.041 C 
BRANCH  27  28
HETATM   28  C4  UNL     1      41.990  44.054  17.672  1.00  0.00     0.000 C 
HETATM   29  C5  UNL     1      40.704  43.564  18.360  1.00  0.00     0.005 C 
ENDBRANCH  27  28
ENDBRANCH  25  27
ENDBRANCH  23  25
ENDBRANCH   1  23
BRANCH  22  30
HETATM   30  O8  UNL     1      44.565  49.551  18.184  1.00  0.00    -0.386 OA
ATOM     31  H8  UNL     1      44.841  48.643  18.220  1.00  0.00     0.210 HD
ENDBRANCH  22  30
BRANCH  21  32
HETATM   32  C23 UNL     1      44.708  48.389  21.180  1.00  0.00     0.081 C 
HETATM   33  C24 UNL     1      45.701  47.578  20.466  1.00  0.00     0.040 C 
HETATM   34 CL1  UNL     1      43.404  47.137  21.481  1.00  0.00    -0.112 Cl
BRANCH  32  35
HETATM   35  C25 UNL     1      45.090  48.662  22.633  1.00  0.00     0.194 C 
BRANCH  35  36
HETATM   36  O7  UNL     1      44.655  47.539  23.346  1.00  0.00    -0.399 OA
ATOM     37  H7  UNL     1      45.430  47.203  23.782  1.00  0.00     0.209 HD
ENDBRANCH  35  36
ENDBRANCH  32  35
ENDBRANCH  21  32
BRANCH  16  38
HETATM   38  O6  UNL     1      41.424  53.594  22.781  1.00  0.00    -0.362 OA
ATOM     39  H6  UNL     1      42.148  53.438  23.376  1.00  0.00     0.213 HD
ENDBRANCH  16  38
TORSDOF 9
ENDMDL
