MODEL 1
REMARK VINA RESULT: -8.552978749      0.000      0.000
REMARK  8 active torsions:
REMARK  status: ('A' for Active; 'I' for Inactive)
REMARK    1  A    between atoms: C2_2  and  O1_3 
REMARK    2  A    between atoms: O1_3  and  C3_4 
REMARK    3  A    between atoms: C3_4  and  C4_6 
REMARK    4  A    between atoms: C4_6  and  O3_7 
REMARK    5  A    between atoms: C7_12  and  S2_13 
REMARK    6  A    between atoms: S2_13  and  C8_14 
REMARK    7  A    between atoms: C14_22  and  C15_23 
REMARK       I    between atoms: N1_26  and  C16_27 
REMARK       I    between atoms: C16_27  and  N2_29 
REMARK    8  A    between atoms: N2_29  and  C17_31 
ROOT
HETATM    1  C4  UNL     1      44.050  50.607  23.704  1.00  0.00     0.175 C 
HETATM    2  C5  UNL     1      44.314  51.803  22.817  1.00  0.00     0.125 C 
HETATM    3  S1  UNL     1      43.341  51.323  21.366  1.00  0.00    -0.157 SA
HETATM    4  C6  UNL     1      43.395  49.522  21.598  1.00  0.00     0.090 C 
HETATM    5  C7  UNL     1      44.358  48.848  20.644  1.00  0.00     0.102 C 
HETATM    6  C14 UNL     1      45.695  49.147  21.266  1.00  0.00     0.205 C 
HETATM    7  N1  UNL     1      45.382  48.812  22.650  1.00  0.00    -0.309 N 
HETATM    8  C16 UNL     1      46.207  48.128  23.543  1.00  0.00     0.320 C 
HETATM    9  O6  UNL     1      47.383  47.830  23.158  1.00  0.00    -0.247 OA
HETATM   10  N2  UNL     1      45.844  47.728  24.857  1.00  0.00    -0.339 N 
ATOM     11  H2  UNL     1      44.913  47.932  25.222  1.00  0.00     0.164 HD
HETATM   12  C20 UNL     1      44.075  49.358  22.919  1.00  0.00     0.150 C 
ENDROOT
BRANCH   5  13
HETATM   13  S2  UNL     1      44.080  49.044  18.948  1.00  0.00    -0.119 SA
BRANCH  13  14
HETATM   14  C8  UNL     1      43.196  47.907  18.003  1.00  0.00     0.024 A 
HETATM   15  C9  UNL     1      43.099  46.588  18.473  1.00  0.00     0.044 A 
HETATM   16  C10 UNL     1      42.429  45.601  17.787  1.00  0.00     0.035 A 
HETATM   17 CL1  UNL     1      42.326  43.961  18.404  1.00  0.00    -0.084 Cl
HETATM   18  C11 UNL     1      41.822  45.881  16.591  1.00  0.00     0.025 A 
HETATM   19  C12 UNL     1      41.914  47.168  16.125  1.00  0.00     0.027 A 
HETATM   20  C13 UNL     1      42.590  48.187  16.808  1.00  0.00     0.051 A 
HETATM   21 CL2  UNL     1      42.648  49.768  16.057  1.00  0.00    -0.083 Cl
ENDBRANCH  13  14
ENDBRANCH   5  13
BRANCH   6  22
HETATM   22  C15 UNL     1      46.730  48.200  20.739  1.00  0.00     0.198 C 
HETATM   23  O4  UNL     1      46.386  47.034  20.348  1.00  0.00    -0.646 OA
HETATM   24  O5  UNL     1      48.037  48.548  20.669  1.00  0.00    -0.646 OA
ENDBRANCH   6  22
BRANCH   1  25
HETATM   25  C3  UNL     1      42.750  50.714  24.397  1.00  0.00     0.296 C 
HETATM   26  O2  UNL     1      41.874  49.863  24.185  1.00  0.00    -0.262 OA
BRANCH  25  27
HETATM   27  O1  UNL     1      42.451  51.735  25.289  1.00  0.00    -0.319 OA
BRANCH  27  28
HETATM   28  C2  UNL     1      41.305  52.510  25.113  1.00  0.00     0.174 C 
HETATM   29  C1  UNL     1      41.543  53.987  25.274  1.00  0.00     0.034 C 
ENDBRANCH  27  28
ENDBRANCH  25  27
ENDBRANCH   1  25
BRANCH   1  30
HETATM   30  O3  UNL     1      45.065  50.614  24.648  1.00  0.00    -0.377 OA
ATOM     31  H3  UNL     1      45.523  49.782  24.614  1.00  0.00     0.211 HD
ENDBRANCH   1  30
BRANCH  10  32
HETATM   32  C17 UNL     1      46.820  47.023  25.670  1.00  0.00     0.078 C 
HETATM   33  C18 UNL     1      47.797  46.225  24.829  1.00  0.00     0.032 C 
HETATM   34  C19 UNL     1      46.144  46.131  26.695  1.00  0.00     0.032 C 
ENDBRANCH  10  32
TORSDOF 8
ENDMDL
MODEL 2
REMARK VINA RESULT: -8.324790627      3.963      7.916
REMARK  8 active torsions:
REMARK  status: ('A' for Active; 'I' for Inactive)
REMARK    1  A    between atoms: C2_2  and  O1_3 
REMARK    2  A    between atoms: O1_3  and  C3_4 
REMARK    3  A    between atoms: C3_4  and  C4_6 
REMARK    4  A    between atoms: C4_6  and  O3_7 
REMARK    5  A    between atoms: C7_12  and  S2_13 
REMARK    6  A    between atoms: S2_13  and  C8_14 
REMARK    7  A    between atoms: C14_22  and  C15_23 
REMARK       I    between atoms: N1_26  and  C16_27 
REMARK       I    between atoms: C16_27  and  N2_29 
REMARK    8  A    between atoms: N2_29  and  C17_31 
ROOT
HETATM    1  C4  UNL     1      42.301  47.472  19.241  1.00  0.00     0.175 C 
HETATM    2  C5  UNL     1      43.528  48.231  18.787  1.00  0.00     0.125 C 
HETATM    3  S1  UNL     1      44.626  47.893  20.187  1.00  0.00    -0.157 SA
HETATM    4  C6  UNL     1      43.356  47.616  21.457  1.00  0.00     0.090 C 
HETATM    5  C7  UNL     1      43.217  48.793  22.398  1.00  0.00     0.102 C 
HETATM    6  C14 UNL     1      42.432  49.778  21.574  1.00  0.00     0.205 C 
HETATM    7  N1  UNL     1      41.405  48.879  21.064  1.00  0.00    -0.309 N 
HETATM    8  C16 UNL     1      40.045  49.165  20.935  1.00  0.00     0.320 C 
HETATM    9  O6  UNL     1      39.656  50.345  21.207  1.00  0.00    -0.247 OA
HETATM   10  N2  UNL     1      39.046  48.241  20.525  1.00  0.00    -0.339 N 
ATOM     11  H2  UNL     1      39.293  47.278  20.298  1.00  0.00     0.164 HD
HETATM   12  C20 UNL     1      42.075  47.660  20.687  1.00  0.00     0.150 C 
ENDROOT
BRANCH   5  13
HETATM   13  S2  UNL     1      44.613  49.271  23.301  1.00  0.00    -0.119 SA
BRANCH  13  14
HETATM   14  C8  UNL     1      45.610  48.153  24.152  1.00  0.00     0.024 A 
HETATM   15  C9  UNL     1      45.090  47.548  25.306  1.00  0.00     0.044 A 
HETATM   16  C10 UNL     1      45.810  46.653  26.066  1.00  0.00     0.035 A 
HETATM   17 CL1  UNL     1      45.129  45.912  27.503  1.00  0.00    -0.084 Cl
HETATM   18  C11 UNL     1      47.090  46.318  25.710  1.00  0.00     0.025 A 
HETATM   19  C12 UNL     1      47.604  46.908  24.584  1.00  0.00     0.027 A 
HETATM   20  C13 UNL     1      46.890  47.820  23.797  1.00  0.00     0.051 A 
HETATM   21 CL2  UNL     1      47.706  48.513  22.411  1.00  0.00    -0.083 Cl
ENDBRANCH  13  14
ENDBRANCH   5  13
BRANCH   6  22
HETATM   22  C15 UNL     1      41.806  50.808  22.464  1.00  0.00     0.198 C 
HETATM   23  O4  UNL     1      41.776  52.032  22.100  1.00  0.00    -0.646 OA
HETATM   24  O5  UNL     1      41.267  50.475  23.662  1.00  0.00    -0.646 OA
ENDBRANCH   6  22
BRANCH   1  25
HETATM   25  C3  UNL     1      42.412  46.027  18.955  1.00  0.00     0.296 C 
HETATM   26  O2  UNL     1      43.280  45.627  18.165  1.00  0.00    -0.262 OA
BRANCH  25  27
HETATM   27  O1  UNL     1      41.583  45.075  19.534  1.00  0.00    -0.319 OA
BRANCH  27  28
HETATM   28  C2  UNL     1      40.626  44.415  18.766  1.00  0.00     0.174 C 
HETATM   29  C1  UNL     1      41.001  43.001  18.414  1.00  0.00     0.034 C 
ENDBRANCH  27  28
ENDBRANCH  25  27
ENDBRANCH   1  25
BRANCH   1  30
HETATM   30  O3  UNL     1      41.248  47.995  18.507  1.00  0.00    -0.377 OA
ATOM     31  H3  UNL     1      40.475  47.463  18.656  1.00  0.00     0.211 HD
ENDBRANCH   1  30
BRANCH  10  32
HETATM   32  C17 UNL     1      37.669  48.693  20.435  1.00  0.00     0.078 C 
HETATM   33  C18 UNL     1      36.769  47.990  21.433  1.00  0.00     0.032 C 
HETATM   34  C19 UNL     1      37.127  48.539  19.026  1.00  0.00     0.032 C 
ENDBRANCH  10  32
TORSDOF 8
ENDMDL
MODEL 3
REMARK VINA RESULT: -8.021024772      4.252      7.957
REMARK  8 active torsions:
REMARK  status: ('A' for Active; 'I' for Inactive)
REMARK    1  A    between atoms: C2_2  and  O1_3 
REMARK    2  A    between atoms: O1_3  and  C3_4 
REMARK    3  A    between atoms: C3_4  and  C4_6 
REMARK    4  A    between atoms: C4_6  and  O3_7 
REMARK    5  A    between atoms: C7_12  and  S2_13 
REMARK    6  A    between atoms: S2_13  and  C8_14 
REMARK    7  A    between atoms: C14_22  and  C15_23 
REMARK       I    between atoms: N1_26  and  C16_27 
REMARK       I    between atoms: C16_27  and  N2_29 
REMARK    8  A    between atoms: N2_29  and  C17_31 
ROOT
HETATM    1  C4  UNL     1      41.058  47.270  19.236  1.00  0.00     0.175 C 
HETATM    2  C5  UNL     1      42.085  48.034  18.430  1.00  0.00     0.125 C 
HETATM    3  S1  UNL     1      43.540  47.780  19.480  1.00  0.00    -0.157 SA
HETATM    4  C6  UNL     1      42.682  47.532  21.062  1.00  0.00     0.090 C 
HETATM    5  C7  UNL     1      42.773  48.744  21.962  1.00  0.00     0.102 C 
HETATM    6  C14 UNL     1      41.759  49.677  21.356  1.00  0.00     0.205 C 
HETATM    7  N1  UNL     1      40.659  48.735  21.184  1.00  0.00    -0.309 N 
HETATM    8  C16 UNL     1      39.308  48.987  21.430  1.00  0.00     0.320 C 
HETATM    9  O6  UNL     1      38.973  50.170  21.757  1.00  0.00    -0.247 OA
HETATM   10  N2  UNL     1      38.265  48.026  21.348  1.00  0.00    -0.339 N 
ATOM     11  H2  UNL     1      38.470  47.059  21.096  1.00  0.00     0.164 HD
HETATM   12  C20 UNL     1      41.237  47.515  20.679  1.00  0.00     0.150 C 
ENDROOT
BRANCH   5  13
HETATM   13  S2  UNL     1      44.349  49.290  22.422  1.00  0.00    -0.119 SA
BRANCH  13  14
HETATM   14  C8  UNL     1      45.453  48.322  23.321  1.00  0.00     0.024 A 
HETATM   15  C9  UNL     1      45.072  47.899  24.604  1.00  0.00     0.044 A 
HETATM   16  C10 UNL     1      45.886  47.136  25.409  1.00  0.00     0.035 A 
HETATM   17 CL1  UNL     1      45.377  46.623  27.008  1.00  0.00    -0.084 Cl
HETATM   18  C11 UNL     1      47.128  46.755  24.973  1.00  0.00     0.025 A 
HETATM   19  C12 UNL     1      47.508  47.167  23.720  1.00  0.00     0.027 A 
HETATM   20  C13 UNL     1      46.695  47.943  22.885  1.00  0.00     0.051 A 
HETATM   21 CL2  UNL     1      47.344  48.417  21.330  1.00  0.00    -0.083 Cl
ENDBRANCH  13  14
ENDBRANCH   5  13
BRANCH   6  22
HETATM   22  C15 UNL     1      41.372  50.731  22.347  1.00  0.00     0.198 C 
HETATM   23  O4  UNL     1      41.230  50.425  23.580  1.00  0.00    -0.646 OA
HETATM   24  O5  UNL     1      41.161  52.014  21.970  1.00  0.00    -0.646 OA
ENDBRANCH   6  22
BRANCH   1  25
HETATM   25  C3  UNL     1      41.132  45.816  18.982  1.00  0.00     0.296 C 
HETATM   26  O2  UNL     1      40.546  45.033  19.744  1.00  0.00    -0.262 OA
BRANCH  25  27
HETATM   27  O1  UNL     1      41.835  45.270  17.917  1.00  0.00    -0.319 OA
BRANCH  27  28
HETATM   28  C2  UNL     1      42.676  44.176  18.115  1.00  0.00     0.174 C 
HETATM   29  C1  UNL     1      42.099  42.873  17.631  1.00  0.00     0.034 C 
ENDBRANCH  27  28
ENDBRANCH  25  27
ENDBRANCH   1  25
BRANCH   1  30
HETATM   30  O3  UNL     1      39.826  47.739  18.807  1.00  0.00    -0.377 OA
ATOM     31  H3  UNL     1      39.206  47.674  19.523  1.00  0.00     0.211 HD
ENDBRANCH   1  30
BRANCH  10  32
HETATM   32  C17 UNL     1      36.904  48.445  21.630  1.00  0.00     0.078 C 
HETATM   33  C18 UNL     1      36.289  47.664  22.775  1.00  0.00     0.032 C 
HETATM   34  C19 UNL     1      36.030  48.354  20.392  1.00  0.00     0.032 C 
ENDBRANCH  10  32
TORSDOF 8
ENDMDL
MODEL 4
REMARK VINA RESULT: -8.001432730      3.131      5.761
REMARK  8 active torsions:
REMARK  status: ('A' for Active; 'I' for Inactive)
REMARK    1  A    between atoms: C2_2  and  O1_3 
REMARK    2  A    between atoms: O1_3  and  C3_4 
REMARK    3  A    between atoms: C3_4  and  C4_6 
REMARK    4  A    between atoms: C4_6  and  O3_7 
REMARK    5  A    between atoms: C7_12  and  S2_13 
REMARK    6  A    between atoms: S2_13  and  C8_14 
REMARK    7  A    between atoms: C14_22  and  C15_23 
REMARK       I    between atoms: N1_26  and  C16_27 
REMARK       I    between atoms: C16_27  and  N2_29 
REMARK    8  A    between atoms: N2_29  and  C17_31 
ROOT
HETATM    1  C4  UNL     1      44.757  49.019  20.839  1.00  0.00     0.175 C 
HETATM    2  C5  UNL     1      44.591  47.764  21.667  1.00  0.00     0.125 C 
HETATM    3  S1  UNL     1      43.420  46.864  20.619  1.00  0.00    -0.157 SA
HETATM    4  C6  UNL     1      42.654  48.291  19.796  1.00  0.00     0.090 C 
HETATM    5  C7  UNL     1      41.275  48.597  20.339  1.00  0.00     0.102 C 
HETATM    6  C14 UNL     1      41.584  49.288  21.640  1.00  0.00     0.205 C 
HETATM    7  N1  UNL     1      42.615  50.205  21.170  1.00  0.00    -0.309 N 
HETATM    8  C16 UNL     1      42.766  51.542  21.543  1.00  0.00     0.320 C 
HETATM    9  O6  UNL     1      41.989  52.001  22.440  1.00  0.00    -0.247 OA
HETATM   10  N2  UNL     1      43.720  52.444  21.000  1.00  0.00    -0.339 N 
ATOM     11  H2  UNL     1      44.368  52.139  20.273  1.00  0.00     0.164 HD
HETATM   12  C20 UNL     1      43.462  49.452  20.280  1.00  0.00     0.150 C 
ENDROOT
BRANCH   5  13
HETATM   13  S2  UNL     1      40.074  47.358  20.232  1.00  0.00    -0.119 SA
BRANCH  13  14
HETATM   14  C8  UNL     1      39.957  46.275  18.897  1.00  0.00     0.024 A 
HETATM   15  C9  UNL     1      40.519  44.996  19.031  1.00  0.00     0.044 A 
HETATM   16  C10 UNL     1      40.494  44.063  18.020  1.00  0.00     0.035 A 
HETATM   17 CL1  UNL     1      41.205  42.471  18.221  1.00  0.00    -0.084 Cl
HETATM   18  C11 UNL     1      39.904  44.360  16.820  1.00  0.00     0.025 A 
HETATM   19  C12 UNL     1      39.354  45.609  16.682  1.00  0.00     0.027 A 
HETATM   20  C13 UNL     1      39.369  46.574  17.697  1.00  0.00     0.051 A 
HETATM   21 CL2  UNL     1      38.657  48.135  17.347  1.00  0.00    -0.083 Cl
ENDBRANCH  13  14
ENDBRANCH   5  13
BRANCH   6  22
HETATM   22  C15 UNL     1      40.391  50.065  22.106  1.00  0.00     0.198 C 
HETATM   23  O4  UNL     1      40.100  50.102  23.349  1.00  0.00    -0.646 OA
HETATM   24  O5  UNL     1      39.599  50.734  21.235  1.00  0.00    -0.646 OA
ENDBRANCH   6  22
BRANCH   1  25
HETATM   25  C3  UNL     1      45.717  48.824  19.734  1.00  0.00     0.296 C 
HETATM   26  O2  UNL     1      46.664  48.037  19.880  1.00  0.00    -0.262 OA
BRANCH  25  27
HETATM   27  O1  UNL     1      45.616  49.487  18.518  1.00  0.00    -0.319 OA
BRANCH  27  28
HETATM   28  C2  UNL     1      46.551  50.458  18.165  1.00  0.00     0.174 C 
HETATM   29  C1  UNL     1      46.086  51.867  18.418  1.00  0.00     0.034 C 
ENDBRANCH  27  28
ENDBRANCH  25  27
ENDBRANCH   1  25
BRANCH   1  30
HETATM   30  O3  UNL     1      45.260  49.974  21.709  1.00  0.00    -0.377 OA
ATOM     31  H3  UNL     1      45.750  49.537  22.395  1.00  0.00     0.211 HD
ENDBRANCH   1  30
BRANCH  10  32
HETATM   32  C17 UNL     1      43.756  53.808  21.497  1.00  0.00     0.078 C 
HETATM   33  C18 UNL     1      43.960  54.818  20.385  1.00  0.00     0.032 C 
HETATM   34  C19 UNL     1      44.813  53.977  22.573  1.00  0.00     0.032 C 
ENDBRANCH  10  32
TORSDOF 8
ENDMDL
MODEL 5
REMARK VINA RESULT: -7.905010787      0.746      1.742
REMARK  8 active torsions:
REMARK  status: ('A' for Active; 'I' for Inactive)
REMARK    1  A    between atoms: C2_2  and  O1_3 
REMARK    2  A    between atoms: O1_3  and  C3_4 
REMARK    3  A    between atoms: C3_4  and  C4_6 
REMARK    4  A    between atoms: C4_6  and  O3_7 
REMARK    5  A    between atoms: C7_12  and  S2_13 
REMARK    6  A    between atoms: S2_13  and  C8_14 
REMARK    7  A    between atoms: C14_22  and  C15_23 
REMARK       I    between atoms: N1_26  and  C16_27 
REMARK       I    between atoms: C16_27  and  N2_29 
REMARK    8  A    between atoms: N2_29  and  C17_31 
ROOT
HETATM    1  C4  UNL     1      44.089  50.628  23.659  1.00  0.00     0.175 C 
HETATM    2  C5  UNL     1      44.345  51.845  22.798  1.00  0.00     0.125 C 
HETATM    3  S1  UNL     1      43.375  51.391  21.337  1.00  0.00    -0.157 SA
HETATM    4  C6  UNL     1      43.441  49.586  21.529  1.00  0.00     0.090 C 
HETATM    5  C7  UNL     1      44.407  48.939  20.562  1.00  0.00     0.102 C 
HETATM    6  C14 UNL     1      45.743  49.233  21.190  1.00  0.00     0.205 C 
HETATM    7  N1  UNL     1      45.432  48.866  22.566  1.00  0.00    -0.309 N 
HETATM    8  C16 UNL     1      46.262  48.167  23.444  1.00  0.00     0.320 C 
HETATM    9  O6  UNL     1      47.439  47.885  23.053  1.00  0.00    -0.247 OA
HETATM   10  N2  UNL     1      45.900  47.737  24.749  1.00  0.00    -0.339 N 
ATOM     11  H2  UNL     1      44.969  47.927  25.119  1.00  0.00     0.164 HD
HETATM   12  C20 UNL     1      44.121  49.397  22.847  1.00  0.00     0.150 C 
ENDROOT
BRANCH   5  13
HETATM   13  S2  UNL     1      44.128  49.170  18.870  1.00  0.00    -0.119 SA
BRANCH  13  14
HETATM   14  C8  UNL     1      43.226  48.064  17.907  1.00  0.00     0.024 A 
HETATM   15  C9  UNL     1      42.940  48.420  16.580  1.00  0.00     0.044 A 
HETATM   16  C10 UNL     1      42.214  47.614  15.733  1.00  0.00     0.035 A 
HETATM   17 CL1  UNL     1      41.876  48.090  14.078  1.00  0.00    -0.084 Cl
HETATM   18  C11 UNL     1      41.733  46.408  16.170  1.00  0.00     0.025 A 
HETATM   19  C12 UNL     1      42.007  46.055  17.466  1.00  0.00     0.027 A 
HETATM   20  C13 UNL     1      42.744  46.859  18.345  1.00  0.00     0.051 A 
HETATM   21 CL2  UNL     1      42.973  46.278  19.981  1.00  0.00    -0.083 Cl
ENDBRANCH  13  14
ENDBRANCH   5  13
BRANCH   6  22
HETATM   22  C15 UNL     1      46.784  48.305  20.643  1.00  0.00     0.198 C 
HETATM   23  O4  UNL     1      47.988  48.708  20.503  1.00  0.00    -0.646 OA
HETATM   24  O5  UNL     1      46.480  47.035  20.282  1.00  0.00    -0.646 OA
ENDBRANCH   6  22
BRANCH   1  25
HETATM   25  C3  UNL     1      42.788  50.713  24.354  1.00  0.00     0.296 C 
HETATM   26  O2  UNL     1      41.931  49.839  24.153  1.00  0.00    -0.262 OA
BRANCH  25  27
HETATM   27  O1  UNL     1      42.466  51.736  25.235  1.00  0.00    -0.319 OA
BRANCH  27  28
HETATM   28  C2  UNL     1      41.358  52.547  24.999  1.00  0.00     0.174 C 
HETATM   29  C1  UNL     1      41.597  54.002  25.296  1.00  0.00     0.034 C 
ENDBRANCH  27  28
ENDBRANCH  25  27
ENDBRANCH   1  25
BRANCH   1  30
HETATM   30  O3  UNL     1      45.103  50.621  24.603  1.00  0.00    -0.377 OA
ATOM     31  H3  UNL     1      45.040  51.410  25.129  1.00  0.00     0.211 HD
ENDBRANCH   1  30
BRANCH  10  32
HETATM   32  C17 UNL     1      46.880  47.021  25.547  1.00  0.00     0.078 C 
HETATM   33  C18 UNL     1      47.800  46.168  24.694  1.00  0.00     0.032 C 
HETATM   34  C19 UNL     1      46.212  46.179  26.618  1.00  0.00     0.032 C 
ENDBRANCH  10  32
TORSDOF 8
ENDMDL
