MODEL 1
REMARK VINA RESULT: -9.392354344      0.000      0.000
REMARK  9 active torsions:
REMARK  status: ('A' for Active; 'I' for Inactive)
REMARK    1  A    between atoms: C5_9  and  O1_10 
REMARK    2  A    between atoms: C5_9  and  C6_12 
REMARK    3  A    between atoms: N3_15  and  C9_16 
REMARK    4  A    between atoms: C11_20  and  O2_21 
REMARK    5  A    between atoms: O2_21  and  C12_22 
REMARK    6  A    between atoms: C15_27  and  C16_28 
REMARK    7  A    between atoms: C16_28  and  O3_29 
REMARK    8  A    between atoms: C16_28  and  N6_31 
REMARK    9  A    between atoms: N6_31  and  C17_33 
ROOT
HETATM    1  N1  UNL     1      38.918  42.657  15.887  1.00  0.00    -0.197 NA
HETATM    2  C1  UNL     1      39.450  43.578  16.375  1.00  0.00     0.066 C 
HETATM    3  C2  UNL     1      40.118  44.748  16.991  1.00  0.00     0.127 C 
HETATM    4  C3  UNL     1      40.542  45.611  15.850  1.00  0.00     0.252 C 
HETATM    5  N2  UNL     1      41.112  46.859  16.207  1.00  0.00    -0.071 N 
ATOM      6  H21 UNL     1      40.439  47.455  16.688  1.00  0.00     0.277 HD
ATOM      7  H22 UNL     1      41.279  47.443  15.388  1.00  0.00     0.277 HD
HETATM    8  C4  UNL     1      42.336  46.672  16.999  1.00  0.00     0.270 C 
HETATM    9  C5  UNL     1      41.957  46.550  18.426  1.00  0.00     0.086 C 
HETATM   10  C23 UNL     1      41.930  45.076  18.739  1.00  0.00     0.051 C 
HETATM   11  C24 UNL     1      41.216  44.201  17.822  1.00  0.00    -0.020 C 
HETATM   12  C25 UNL     1      40.728  42.934  18.545  1.00  0.00     0.011 C 
HETATM   13  C26 UNL     1      41.692  42.069  17.804  1.00  0.00     0.002 C 
HETATM   14  C27 UNL     1      42.074  43.250  16.972  1.00  0.00     0.011 C 
ENDROOT
BRANCH   9  15
HETATM   15  O1  UNL     1      40.634  47.013  18.617  1.00  0.00    -0.388 OA
ATOM     16  H1  UNL     1      40.212  46.513  19.306  1.00  0.00     0.210 HD
ENDBRANCH   9  15
BRANCH   9  17
HETATM   17  C6  UNL     1      42.797  47.298  19.405  1.00  0.00     0.025 C 
HETATM   18  C7  UNL     1      43.255  48.638  18.888  1.00  0.00     0.027 C 
HETATM   19  C8  UNL     1      44.268  49.275  19.836  1.00  0.00     0.125 C 
HETATM   20  N3  UNL     1      43.819  49.258  21.178  1.00  0.00    -0.365 N 
HETATM   21  C21 UNL     1      43.281  48.052  21.703  1.00  0.00     0.125 C 
HETATM   22  C22 UNL     1      42.208  47.452  20.774  1.00  0.00     0.027 C 
BRANCH  20  23
HETATM   23  C9  UNL     1      43.841  50.430  21.971  1.00  0.00     0.135 A 
HETATM   24  N4  UNL     1      43.362  51.589  21.373  1.00  0.00    -0.346 N 
HETATM   25  C10 UNL     1      43.371  52.779  21.961  1.00  0.00     0.145 A 
ATOM     26  H4  UNL     1      42.981  51.520  20.430  1.00  0.00     0.167 HD
HETATM   27  C11 UNL     1      43.876  52.915  23.231  1.00  0.00     0.159 A 
HETATM   28  N5  UNL     1      44.336  51.821  23.818  1.00  0.00    -0.329 N 
HETATM   29  C15 UNL     1      44.337  50.569  23.230  1.00  0.00     0.129 A 
ATOM     30  H5  UNL     1      44.713  51.906  24.762  1.00  0.00     0.168 HD
BRANCH  27  31
HETATM   31  O2  UNL     1      43.900  54.165  23.880  1.00  0.00    -0.329 OA
BRANCH  31  32
HETATM   32  C12 UNL     1      42.995  54.570  24.852  1.00  0.00     0.130 A 
HETATM   33  C13 UNL     1      41.532  54.452  24.428  1.00  0.00     0.035 A 
HETATM   34  C14 UNL     1      42.201  55.814  24.453  1.00  0.00     0.035 A 
ENDBRANCH  31  32
ENDBRANCH  27  31
BRANCH  29  35
HETATM   35  C16 UNL     1      44.797  49.453  24.018  1.00  0.00     0.167 C 
BRANCH  35  36
HETATM   36  O3  UNL     1      43.861  48.871  24.717  1.00  0.00    -0.345 OA
ATOM     37  H3  UNL     1      43.375  49.461  25.282  1.00  0.00     0.219 HD
ENDBRANCH  35  36
BRANCH  35  38
HETATM   38  N6  UNL     1      46.052  48.879  24.162  1.00  0.00    -0.364 N 
ATOM     39  H6  UNL     1      46.888  49.433  23.979  1.00  0.00     0.162 HD
BRANCH  38  40
HETATM   40  C17 UNL     1      46.183  47.467  24.579  1.00  0.00     0.095 C 
HETATM   41  C18 UNL     1      47.545  46.901  24.346  1.00  0.00     0.104 C 
HETATM   42  C19 UNL     1      47.565  46.384  25.776  1.00  0.00     0.247 C 
HETATM   43  F1  UNL     1      48.719  46.707  26.463  1.00  0.00    -0.206 F 
HETATM   44  F2  UNL     1      47.227  45.058  25.885  1.00  0.00    -0.206 F 
HETATM   45  C20 UNL     1      46.402  47.308  26.059  1.00  0.00     0.104 C 
ENDBRANCH  38  40
ENDBRANCH  35  38
ENDBRANCH  29  35
ENDBRANCH  20  23
ENDBRANCH   9  17
TORSDOF 9
ENDMDL
MODEL 2
REMARK VINA RESULT: -9.231159170      4.017      9.757
REMARK  9 active torsions:
REMARK  status: ('A' for Active; 'I' for Inactive)
REMARK    1  A    between atoms: C5_9  and  O1_10 
REMARK    2  A    between atoms: C5_9  and  C6_12 
REMARK    3  A    between atoms: N3_15  and  C9_16 
REMARK    4  A    between atoms: C11_20  and  O2_21 
REMARK    5  A    between atoms: O2_21  and  C12_22 
REMARK    6  A    between atoms: C15_27  and  C16_28 
REMARK    7  A    between atoms: C16_28  and  O3_29 
REMARK    8  A    between atoms: C16_28  and  N6_31 
REMARK    9  A    between atoms: N6_31  and  C17_33 
ROOT
HETATM    1  N1  UNL     1      42.905  52.345  25.878  1.00  0.00    -0.197 NA
HETATM    2  C1  UNL     1      42.820  51.533  25.038  1.00  0.00     0.066 C 
HETATM    3  C2  UNL     1      42.711  50.503  23.981  1.00  0.00     0.127 C 
HETATM    4  C3  UNL     1      43.842  49.559  24.225  1.00  0.00     0.252 C 
HETATM    5  N2  UNL     1      43.872  48.414  23.391  1.00  0.00    -0.071 N 
ATOM      6  H21 UNL     1      43.059  47.817  23.542  1.00  0.00     0.277 HD
ATOM      7  H22 UNL     1      44.600  47.761  23.678  1.00  0.00     0.277 HD
HETATM    8  C4  UNL     1      44.011  48.794  21.978  1.00  0.00     0.270 C 
HETATM    9  C5  UNL     1      42.659  49.039  21.422  1.00  0.00     0.086 C 
HETATM   10  C23 UNL     1      42.445  50.531  21.455  1.00  0.00     0.051 C 
HETATM   11  C24 UNL     1      42.753  51.232  22.692  1.00  0.00    -0.020 C 
HETATM   12  C25 UNL     1      41.925  52.524  22.808  1.00  0.00     0.011 C 
HETATM   13  C26 UNL     1      43.130  53.383  22.624  1.00  0.00     0.002 C 
HETATM   14  C27 UNL     1      43.982  52.156  22.669  1.00  0.00     0.011 C 
ENDROOT
BRANCH   9  15
HETATM   15  O1  UNL     1      41.678  48.485  22.277  1.00  0.00    -0.388 OA
ATOM     16  H1  UNL     1      41.062  49.158  22.543  1.00  0.00     0.210 HD
ENDBRANCH   9  15
BRANCH   9  17
HETATM   17  C6  UNL     1      42.384  48.480  20.068  1.00  0.00     0.025 C 
HETATM   18  C7  UNL     1      41.810  49.497  19.114  1.00  0.00     0.027 C 
HETATM   19  C8  UNL     1      41.361  48.836  17.813  1.00  0.00     0.125 C 
HETATM   20  N3  UNL     1      42.361  47.990  17.277  1.00  0.00    -0.365 N 
HETATM   21  C21 UNL     1      43.016  47.073  18.143  1.00  0.00     0.125 C 
HETATM   22  C22 UNL     1      43.529  47.762  19.423  1.00  0.00     0.027 C 
BRANCH  20  23
HETATM   23  C9  UNL     1      42.754  48.092  15.921  1.00  0.00     0.135 A 
HETATM   24  N4  UNL     1      43.771  48.995  15.639  1.00  0.00    -0.346 N 
HETATM   25  C10 UNL     1      44.211  49.250  14.413  1.00  0.00     0.145 A 
ATOM     26  H4  UNL     1      44.204  49.490  16.419  1.00  0.00     0.167 HD
HETATM   27  C11 UNL     1      43.655  48.606  13.335  1.00  0.00     0.159 A 
HETATM   28  N5  UNL     1      42.685  47.740  13.584  1.00  0.00    -0.329 N 
HETATM   29  C15 UNL     1      42.209  47.454  14.851  1.00  0.00     0.129 A 
ATOM     30  H5  UNL     1      42.262  47.253  12.793  1.00  0.00     0.168 HD
BRANCH  27  31
HETATM   31  O2  UNL     1      44.099  48.857  12.022  1.00  0.00    -0.329 OA
BRANCH  31  32
HETATM   32  C12 UNL     1      45.289  49.496  11.698  1.00  0.00     0.130 A 
HETATM   33  C13 UNL     1      45.110  50.751  10.847  1.00  0.00     0.035 A 
HETATM   34  C14 UNL     1      45.598  49.468  10.201  1.00  0.00     0.035 A 
ENDBRANCH  31  32
ENDBRANCH  27  31
BRANCH  29  35
HETATM   35  C16 UNL     1      41.202  46.430  14.979  1.00  0.00     0.167 C 
BRANCH  35  36
HETATM   36  O3  UNL     1      39.984  46.851  14.771  1.00  0.00    -0.345 OA
ATOM     37  H3  UNL     1      39.333  46.451  15.337  1.00  0.00     0.219 HD
ENDBRANCH  35  36
BRANCH  35  38
HETATM   38  N6  UNL     1      41.292  45.078  15.275  1.00  0.00    -0.364 N 
ATOM     39  H6  UNL     1      41.472  44.406  14.528  1.00  0.00     0.162 HD
BRANCH  38  40
HETATM   40  C17 UNL     1      41.127  44.605  16.665  1.00  0.00     0.095 C 
HETATM   41  C18 UNL     1      39.896  43.786  16.874  1.00  0.00     0.104 C 
HETATM   42  C19 UNL     1      40.733  42.722  17.567  1.00  0.00     0.247 C 
HETATM   43  F1  UNL     1      40.503  41.445  17.093  1.00  0.00    -0.206 F 
HETATM   44  F2  UNL     1      40.697  42.802  18.937  1.00  0.00    -0.206 F 
HETATM   45  C20 UNL     1      41.955  43.387  16.975  1.00  0.00     0.104 C 
ENDBRANCH  38  40
ENDBRANCH  35  38
ENDBRANCH  29  35
ENDBRANCH  20  23
ENDBRANCH   9  17
TORSDOF 9
ENDMDL
MODEL 3
REMARK VINA RESULT: -8.904105951      2.790      5.120
REMARK  9 active torsions:
REMARK  status: ('A' for Active; 'I' for Inactive)
REMARK    1  A    between atoms: C5_9  and  O1_10 
REMARK    2  A    between atoms: C5_9  and  C6_12 
REMARK    3  A    between atoms: N3_15  and  C9_16 
REMARK    4  A    between atoms: C11_20  and  O2_21 
REMARK    5  A    between atoms: O2_21  and  C12_22 
REMARK    6  A    between atoms: C15_27  and  C16_28 
REMARK    7  A    between atoms: C16_28  and  O3_29 
REMARK    8  A    between atoms: C16_28  and  N6_31 
REMARK    9  A    between atoms: N6_31  and  C17_33 
ROOT
HETATM    1  N1  UNL     1      38.754  42.162  15.832  1.00  0.00    -0.197 NA
HETATM    2  C1  UNL     1      39.158  43.177  16.254  1.00  0.00     0.066 C 
HETATM    3  C2  UNL     1      39.664  44.462  16.787  1.00  0.00     0.127 C 
HETATM    4  C3  UNL     1      39.907  45.322  15.591  1.00  0.00     0.252 C 
HETATM    5  N2  UNL     1      40.294  46.657  15.866  1.00  0.00    -0.071 N 
ATOM      6  H21 UNL     1      39.558  47.169  16.352  1.00  0.00     0.277 HD
ATOM      7  H22 UNL     1      40.338  47.217  15.016  1.00  0.00     0.277 HD
HETATM    8  C4  UNL     1      41.562  46.696  16.609  1.00  0.00     0.270 C 
HETATM    9  C5  UNL     1      41.262  46.590  18.056  1.00  0.00     0.086 C 
HETATM   10  C23 UNL     1      41.472  45.146  18.434  1.00  0.00     0.051 C 
HETATM   11  C24 UNL     1      40.864  44.130  17.590  1.00  0.00    -0.020 C 
HETATM   12  C25 UNL     1      40.603  42.841  18.389  1.00  0.00     0.011 C 
HETATM   13  C26 UNL     1      41.658  42.095  17.643  1.00  0.00     0.002 C 
HETATM   14  C27 UNL     1      41.823  43.277  16.744  1.00  0.00     0.011 C 
ENDROOT
BRANCH   9  15
HETATM   15  O1  UNL     1      39.893  46.858  18.287  1.00  0.00    -0.388 OA
ATOM     16  H1  UNL     1      39.789  47.734  18.641  1.00  0.00     0.210 HD
ENDBRANCH   9  15
BRANCH   9  17
HETATM   17  C6  UNL     1      42.015  47.504  18.962  1.00  0.00     0.025 C 
HETATM   18  C7  UNL     1      41.796  47.203  20.422  1.00  0.00     0.027 C 
HETATM   19  C8  UNL     1      42.422  48.280  21.305  1.00  0.00     0.125 C 
HETATM   20  N3  UNL     1      43.758  48.559  20.931  1.00  0.00    -0.365 N 
HETATM   21  C21 UNL     1      44.056  48.757  19.555  1.00  0.00     0.125 C 
HETATM   22  C22 UNL     1      43.481  47.627  18.678  1.00  0.00     0.027 C 
BRANCH  20  23
HETATM   23  C9  UNL     1      44.797  48.580  21.892  1.00  0.00     0.135 A 
HETATM   24  N4  UNL     1      45.967  47.912  21.551  1.00  0.00    -0.346 N 
HETATM   25  C10 UNL     1      47.008  47.788  22.365  1.00  0.00     0.145 A 
ATOM     26  H4  UNL     1      46.029  47.494  20.623  1.00  0.00     0.167 HD
HETATM   27  C11 UNL     1      46.966  48.336  23.625  1.00  0.00     0.159 A 
HETATM   28  N5  UNL     1      45.859  48.977  23.967  1.00  0.00    -0.329 N 
HETATM   29  C15 UNL     1      44.761  49.122  23.139  1.00  0.00     0.129 A 
ATOM     30  H5  UNL     1      45.813  49.390  24.899  1.00  0.00     0.168 HD
BRANCH  27  31
HETATM   31  O2  UNL     1      48.054  48.219  24.511  1.00  0.00    -0.329 OA
BRANCH  31  32
HETATM   32  C12 UNL     1      48.615  47.017  24.922  1.00  0.00     0.130 A 
HETATM   33  C13 UNL     1      47.623  45.857  24.982  1.00  0.00     0.035 A 
HETATM   34  C14 UNL     1      48.072  46.530  26.266  1.00  0.00     0.035 A 
ENDBRANCH  31  32
ENDBRANCH  27  31
BRANCH  29  35
HETATM   35  C16 UNL     1      43.655  49.914  23.616  1.00  0.00     0.167 C 
BRANCH  35  36
HETATM   36  O3  UNL     1      42.865  49.284  24.443  1.00  0.00    -0.345 OA
ATOM     37  H3  UNL     1      42.328  48.616  24.033  1.00  0.00     0.219 HD
ENDBRANCH  35  36
BRANCH  35  38
HETATM   38  N6  UNL     1      43.281  51.227  23.365  1.00  0.00    -0.364 N 
ATOM     39  H6  UNL     1      43.720  51.742  22.602  1.00  0.00     0.162 HD
BRANCH  38  40
HETATM   40  C17 UNL     1      42.249  51.881  24.197  1.00  0.00     0.095 C 
HETATM   41  C18 UNL     1      42.805  52.576  25.396  1.00  0.00     0.104 C 
HETATM   42  C19 UNL     1      42.012  53.820  25.031  1.00  0.00     0.247 C 
HETATM   43  F1  UNL     1      42.767  54.977  25.037  1.00  0.00    -0.206 F 
HETATM   44  F2  UNL     1      40.834  53.944  25.726  1.00  0.00    -0.206 F 
HETATM   45  C20 UNL     1      41.819  53.218  23.658  1.00  0.00     0.104 C 
ENDBRANCH  38  40
ENDBRANCH  35  38
ENDBRANCH  29  35
ENDBRANCH  20  23
ENDBRANCH   9  17
TORSDOF 9
ENDMDL
MODEL 4
REMARK VINA RESULT: -8.833135192      4.077      6.241
REMARK  9 active torsions:
REMARK  status: ('A' for Active; 'I' for Inactive)
REMARK    1  A    between atoms: C5_9  and  O1_10 
REMARK    2  A    between atoms: C5_9  and  C6_12 
REMARK    3  A    between atoms: N3_15  and  C9_16 
REMARK    4  A    between atoms: C11_20  and  O2_21 
REMARK    5  A    between atoms: O2_21  and  C12_22 
REMARK    6  A    between atoms: C15_27  and  C16_28 
REMARK    7  A    between atoms: C16_28  and  O3_29 
REMARK    8  A    between atoms: C16_28  and  N6_31 
REMARK    9  A    between atoms: N6_31  and  C17_33 
ROOT
HETATM    1  N1  UNL     1      35.840  45.980  12.380  1.00  0.00    -0.197 NA
HETATM    2  C1  UNL     1      36.707  46.592  12.876  1.00  0.00     0.066 C 
HETATM    3  C2  UNL     1      37.801  47.370  13.500  1.00  0.00     0.127 C 
HETATM    4  C3  UNL     1      38.747  47.688  12.390  1.00  0.00     0.252 C 
HETATM    5  N2  UNL     1      39.831  48.534  12.735  1.00  0.00    -0.071 N 
ATOM      6  H21 UNL     1      39.510  49.461  13.015  1.00  0.00     0.277 HD
ATOM      7  H22 UNL     1      40.375  48.800  11.915  1.00  0.00     0.277 HD
HETATM    8  C4  UNL     1      40.674  47.918  13.769  1.00  0.00     0.270 C 
HETATM    9  C5  UNL     1      40.113  48.260  15.098  1.00  0.00     0.086 C 
HETATM   10  C23 UNL     1      39.291  47.076  15.536  1.00  0.00     0.051 C 
HETATM   11  C24 UNL     1      38.347  46.516  14.581  1.00  0.00    -0.020 C 
HETATM   12  C25 UNL     1      37.189  45.810  15.308  1.00  0.00     0.011 C 
HETATM   13  C26 UNL     1      37.651  44.464  14.858  1.00  0.00     0.002 C 
HETATM   14  C27 UNL     1      38.687  45.129  14.012  1.00  0.00     0.011 C 
ENDROOT
BRANCH   9  15
HETATM   15  O1  UNL     1      39.208  49.340  14.976  1.00  0.00    -0.388 OA
ATOM     16  H1  UNL     1      38.824  49.538  15.823  1.00  0.00     0.210 HD
ENDBRANCH   9  15
BRANCH   9  17
HETATM   17  C6  UNL     1      41.091  48.662  16.150  1.00  0.00     0.025 C 
HETATM   18  C7  UNL     1      40.434  49.056  17.448  1.00  0.00     0.027 C 
HETATM   19  C8  UNL     1      41.451  49.646  18.421  1.00  0.00     0.125 C 
HETATM   20  N3  UNL     1      42.603  48.833  18.539  1.00  0.00    -0.365 N 
HETATM   21  C21 UNL     1      43.218  48.343  17.356  1.00  0.00     0.125 C 
HETATM   22  C22 UNL     1      42.195  47.685  16.410  1.00  0.00     0.027 C 
BRANCH  20  23
HETATM   23  C9  UNL     1      43.103  48.455  19.808  1.00  0.00     0.135 A 
HETATM   24  N4  UNL     1      44.301  49.042  20.199  1.00  0.00    -0.346 N 
HETATM   25  C10 UNL     1      44.930  48.748  21.330  1.00  0.00     0.145 A 
ATOM     26  H4  UNL     1      44.719  49.738  19.582  1.00  0.00     0.167 HD
HETATM   27  C11 UNL     1      44.402  47.816  22.190  1.00  0.00     0.159 A 
HETATM   28  N5  UNL     1      43.260  47.247  21.835  1.00  0.00    -0.329 N 
HETATM   29  C15 UNL     1      42.583  47.535  20.664  1.00  0.00     0.129 A 
ATOM     30  H5  UNL     1      42.855  46.554  22.464  1.00  0.00     0.168 HD
BRANCH  27  31
HETATM   31  O2  UNL     1      45.048  47.483  23.396  1.00  0.00    -0.329 OA
BRANCH  31  32
HETATM   32  C12 UNL     1      46.162  48.138  23.904  1.00  0.00     0.130 A 
HETATM   33  C13 UNL     1      47.393  47.245  24.054  1.00  0.00     0.035 A 
HETATM   34  C14 UNL     1      46.585  47.624  25.281  1.00  0.00     0.035 A 
ENDBRANCH  31  32
ENDBRANCH  27  31
BRANCH  29  35
HETATM   35  C16 UNL     1      41.309  46.896  20.445  1.00  0.00     0.167 C 
BRANCH  35  36
HETATM   36  O3  UNL     1      40.442  47.092  21.402  1.00  0.00    -0.345 OA
ATOM     37  H3  UNL     1      39.805  46.393  21.497  1.00  0.00     0.219 HD
ENDBRANCH  35  36
BRANCH  35  38
HETATM   38  N6  UNL     1      40.833  46.117  19.400  1.00  0.00    -0.364 N 
ATOM     39  H6  UNL     1      40.149  46.504  18.750  1.00  0.00     0.162 HD
BRANCH  38  40
HETATM   40  C17 UNL     1      41.312  44.730  19.225  1.00  0.00     0.095 C 
HETATM   41  C18 UNL     1      40.599  43.987  18.143  1.00  0.00     0.104 C 
HETATM   42  C19 UNL     1      41.940  43.564  17.564  1.00  0.00     0.247 C 
HETATM   43  F1  UNL     1      42.047  43.785  16.204  1.00  0.00    -0.206 F 
HETATM   44  F2  UNL     1      42.324  42.299  17.935  1.00  0.00    -0.206 F 
HETATM   45  C20 UNL     1      42.576  44.641  18.414  1.00  0.00     0.104 C 
ENDBRANCH  38  40
ENDBRANCH  35  38
ENDBRANCH  29  35
ENDBRANCH  20  23
ENDBRANCH   9  17
TORSDOF 9
ENDMDL
MODEL 5
REMARK VINA RESULT: -8.806157455      5.136      9.270
REMARK  9 active torsions:
REMARK  status: ('A' for Active; 'I' for Inactive)
REMARK    1  A    between atoms: C5_9  and  O1_10 
REMARK    2  A    between atoms: C5_9  and  C6_12 
REMARK    3  A    between atoms: N3_15  and  C9_16 
REMARK    4  A    between atoms: C11_20  and  O2_21 
REMARK    5  A    between atoms: O2_21  and  C12_22 
REMARK    6  A    between atoms: C15_27  and  C16_28 
REMARK    7  A    between atoms: C16_28  and  O3_29 
REMARK    8  A    between atoms: C16_28  and  N6_31 
REMARK    9  A    between atoms: N6_31  and  C17_33 
ROOT
HETATM    1  N1  UNL     1      50.214  56.816  16.061  1.00  0.00    -0.197 NA
HETATM    2  C1  UNL     1      49.440  55.951  16.210  1.00  0.00     0.066 C 
HETATM    3  C2  UNL     1      48.461  54.854  16.393  1.00  0.00     0.127 C 
HETATM    4  C3  UNL     1      47.342  55.157  15.453  1.00  0.00     0.252 C 
HETATM    5  N2  UNL     1      46.328  54.170  15.373  1.00  0.00    -0.071 N 
ATOM      6  H21 UNL     1      46.687  53.291  15.002  1.00  0.00     0.277 HD
ATOM      7  H22 UNL     1      45.653  54.384  14.639  1.00  0.00     0.277 HD
HETATM    8  C4  UNL     1      45.672  53.982  16.675  1.00  0.00     0.270 C 
HETATM    9  C5  UNL     1      46.444  52.982  17.450  1.00  0.00     0.086 C 
HETATM   10  C23 UNL     1      47.333  53.758  18.387  1.00  0.00     0.051 C 
HETATM   11  C24 UNL     1      48.107  54.858  17.832  1.00  0.00    -0.020 C 
HETATM   12  C25 UNL     1      49.372  55.112  18.670  1.00  0.00     0.011 C 
HETATM   13  C26 UNL     1      48.847  56.415  19.173  1.00  0.00     0.002 C 
HETATM   14  C27 UNL     1      47.682  56.275  18.249  1.00  0.00     0.011 C 
ENDROOT
BRANCH   9  15
HETATM   15  O1  UNL     1      47.312  52.270  16.590  1.00  0.00    -0.388 OA
ATOM     16  H1  UNL     1      46.929  51.428  16.367  1.00  0.00     0.210 HD
ENDBRANCH   9  15
BRANCH   9  17
HETATM   17  C6  UNL     1      45.654  51.950  18.180  1.00  0.00     0.025 C 
HETATM   18  C7  UNL     1      46.414  50.666  18.394  1.00  0.00     0.027 C 
HETATM   19  C8  UNL     1      45.505  49.579  18.962  1.00  0.00     0.125 C 
HETATM   20  N3  UNL     1      44.758  50.040  20.072  1.00  0.00    -0.365 N 
HETATM   21  C21 UNL     1      44.095  51.293  19.975  1.00  0.00     0.125 C 
HETATM   22  C22 UNL     1      45.038  52.402  19.468  1.00  0.00     0.027 C 
BRANCH  20  23
HETATM   23  C9  UNL     1      44.718  49.307  21.282  1.00  0.00     0.135 A 
HETATM   24  N4  UNL     1      45.566  49.740  22.294  1.00  0.00    -0.346 N 
HETATM   25  C10 UNL     1      45.690  49.124  23.463  1.00  0.00     0.145 A 
ATOM     26  H4  UNL     1      46.124  50.577  22.128  1.00  0.00     0.167 HD
HETATM   27  C11 UNL     1      44.957  47.993  23.727  1.00  0.00     0.159 A 
HETATM   28  N5  UNL     1      44.142  47.566  22.775  1.00  0.00    -0.329 N 
HETATM   29  C15 UNL     1      43.992  48.188  21.549  1.00  0.00     0.129 A 
ATOM     30  H5  UNL     1      43.591  46.727  22.956  1.00  0.00     0.168 HD
BRANCH  27  31
HETATM   31  O2  UNL     1      45.069  47.318  24.958  1.00  0.00    -0.329 OA
BRANCH  31  32
HETATM   32  C12 UNL     1      46.189  47.348  25.778  1.00  0.00     0.130 A 
HETATM   33  C13 UNL     1      47.318  46.425  25.324  1.00  0.00     0.035 A 
HETATM   34  C14 UNL     1      46.444  46.023  26.497  1.00  0.00     0.035 A 
ENDBRANCH  31  32
ENDBRANCH  27  31
BRANCH  29  35
HETATM   35  C16 UNL     1      43.009  47.657  20.638  1.00  0.00     0.167 C 
BRANCH  35  36
HETATM   36  O3  UNL     1      41.923  48.376  20.546  1.00  0.00    -0.345 OA
ATOM     37  H3  UNL     1      41.163  47.986  20.963  1.00  0.00     0.219 HD
ENDBRANCH  35  36
BRANCH  35  38
HETATM   38  N6  UNL     1      43.010  46.526  19.834  1.00  0.00    -0.364 N 
ATOM     39  H6  UNL     1      43.839  45.933  19.792  1.00  0.00     0.162 HD
BRANCH  38  40
HETATM   40  C17 UNL     1      41.815  46.176  19.037  1.00  0.00     0.095 C 
HETATM   41  C18 UNL     1      42.039  45.036  18.098  1.00  0.00     0.104 C 
HETATM   42  C19 UNL     1      40.773  44.373  18.619  1.00  0.00     0.247 C 
HETATM   43  F1  UNL     1      40.948  43.046  18.961  1.00  0.00    -0.206 F 
HETATM   44  F2  UNL     1      39.675  44.582  17.821  1.00  0.00    -0.206 F 
HETATM   45  C20 UNL     1      40.832  45.324  19.792  1.00  0.00     0.104 C 
ENDBRANCH  38  40
ENDBRANCH  35  38
ENDBRANCH  29  35
ENDBRANCH  20  23
ENDBRANCH   9  17
TORSDOF 9
ENDMDL
