MODEL 1
REMARK VINA RESULT: -7.906640025      0.000      0.000
REMARK  9 active torsions:
REMARK  status: ('A' for Active; 'I' for Inactive)
REMARK    1  A    between atoms: C4_4  and  O1_5 
REMARK    2  A    between atoms: C5_7  and  O2_8 
REMARK    3  A    between atoms: O2_8  and  C6_9 
REMARK    4  A    between atoms: C7_10  and  O3_11 
REMARK    5  A    between atoms: C10_16  and  N1_17 
REMARK    6  A    between atoms: C12_19  and  C13_20 
REMARK    7  A    between atoms: C13_20  and  C14_21 
REMARK    8  A    between atoms: C14_21  and  C15_22 
REMARK    9  A    between atoms: C15_22  and  O4_23 
ROOT
HETATM    1  C6  UNL     1      43.216  49.325  22.419  1.00  0.00     0.178 C 
HETATM    2  C7  UNL     1      43.645  49.750  21.034  1.00  0.00     0.163 C 
HETATM    3  C8  UNL     1      44.354  48.520  20.435  1.00  0.00     0.091 C 
HETATM    4 BR1  UNL     1      43.098  47.056  20.393  1.00  0.00    -0.088 Br
HETATM    5  C9  UNL     1      45.578  48.143  21.176  1.00  0.00     0.047 C 
HETATM    6  C10 UNL     1      45.702  48.768  22.531  1.00  0.00     0.130 C 
HETATM    7  C16 UNL     1      44.445  49.037  23.237  1.00  0.00     0.149 C 
HETATM    8  C17 UNL     1      44.658  50.208  24.128  1.00  0.00     0.069 C 
HETATM    9  N4  UNL     1      44.816  51.117  24.825  1.00  0.00    -0.197 NA
ENDROOT
BRANCH   1  10
HETATM   10  O2  UNL     1      42.452  50.253  23.097  1.00  0.00    -0.338 OA
BRANCH  10  11
HETATM   11  C5  UNL     1      41.246  50.804  22.898  1.00  0.00     0.119 A 
HETATM   12  C4  UNL     1      40.112  50.032  22.742  1.00  0.00     0.100 A 
HETATM   13  C3  UNL     1      38.841  50.574  22.535  1.00  0.00     0.046 A 
HETATM   14  C2  UNL     1      38.693  51.929  22.481  1.00  0.00    -0.058 A 
HETATM   15  C1  UNL     1      37.364  52.563  22.261  1.00  0.00     0.048 C 
HETATM   16  C19 UNL     1      39.792  52.732  22.633  1.00  0.00     0.029 A 
HETATM   17  C18 UNL     1      41.057  52.168  22.840  1.00  0.00     0.047 A 
HETATM   18 BR2  UNL     1      42.462  53.421  23.118  1.00  0.00    -0.048 Br
BRANCH  12  19
HETATM   19  O1  UNL     1      40.190  48.674  22.786  1.00  0.00    -0.358 OA
ATOM     20  H1  UNL     1      40.935  48.308  23.249  1.00  0.00     0.217 HD
ENDBRANCH  12  19
ENDBRANCH  10  11
ENDBRANCH   1  10
BRANCH   6  21
HETATM   21  N1  UNL     1      46.540  47.910  23.331  1.00  0.00    -0.281 N 
HETATM   22  C11 UNL     1      46.487  47.709  24.654  1.00  0.00     0.138 A 
HETATM   23  C12 UNL     1      47.476  46.802  25.028  1.00  0.00     0.044 A 
HETATM   24  N2  UNL     1      48.101  46.491  23.858  1.00  0.00    -0.289 N 
HETATM   25  N3  UNL     1      47.522  47.164  22.876  1.00  0.00    -0.240 N 
ATOM     26  H2  UNL     1      48.885  45.846  23.755  1.00  0.00     0.188 HD
ATOM     27  H3  UNL     1      47.801  47.111  21.896  1.00  0.00     0.208 HD
BRANCH  23  28
HETATM   28  C13 UNL     1      47.766  46.305  26.380  1.00  0.00     0.062 C 
BRANCH  28  29
HETATM   29  C14 UNL     1      46.887  45.126  26.743  1.00  0.00     0.032 C 
BRANCH  29  30
HETATM   30  C15 UNL     1      47.694  43.845  26.827  1.00  0.00     0.164 C 
BRANCH  30  31
HETATM   31  O4  UNL     1      47.953  43.309  25.578  1.00  0.00    -0.401 OA
ATOM     32  H4  UNL     1      48.678  43.744  25.146  1.00  0.00     0.209 HD
ENDBRANCH  30  31
ENDBRANCH  29  30
ENDBRANCH  28  29
ENDBRANCH  23  28
ENDBRANCH   6  21
BRANCH   2  33
HETATM   33  O3  UNL     1      44.494  50.826  21.006  1.00  0.00    -0.392 OA
ATOM     34  H3  UNL     1      44.980  50.924  20.196  1.00  0.00     0.210 HD
ENDBRANCH   2  33
TORSDOF 9
ENDMDL
MODEL 2
REMARK VINA RESULT: -7.849286286      1.572      1.741
REMARK  9 active torsions:
REMARK  status: ('A' for Active; 'I' for Inactive)
REMARK    1  A    between atoms: C4_4  and  O1_5 
REMARK    2  A    between atoms: C5_7  and  O2_8 
REMARK    3  A    between atoms: O2_8  and  C6_9 
REMARK    4  A    between atoms: C7_10  and  O3_11 
REMARK    5  A    between atoms: C10_16  and  N1_17 
REMARK    6  A    between atoms: C12_19  and  C13_20 
REMARK    7  A    between atoms: C13_20  and  C14_21 
REMARK    8  A    between atoms: C14_21  and  C15_22 
REMARK    9  A    between atoms: C15_22  and  O4_23 
ROOT
HETATM    1  C6  UNL     1      43.020  49.614  21.872  1.00  0.00     0.178 C 
HETATM    2  C7  UNL     1      44.091  50.216  20.994  1.00  0.00     0.163 C 
HETATM    3  C8  UNL     1      45.115  49.086  20.773  1.00  0.00     0.091 C 
HETATM    4 BR1  UNL     1      44.214  47.611  19.916  1.00  0.00    -0.088 Br
HETATM    5  C9  UNL     1      45.770  48.648  22.025  1.00  0.00     0.047 C 
HETATM    6  C10 UNL     1      45.085  49.103  23.276  1.00  0.00     0.130 C 
HETATM    7  C16 UNL     1      43.629  49.254  23.200  1.00  0.00     0.149 C 
HETATM    8  C17 UNL     1      43.223  50.311  24.164  1.00  0.00     0.069 C 
HETATM    9  N4  UNL     1      42.900  51.131  24.913  1.00  0.00    -0.197 NA
ENDROOT
BRANCH   1  10
HETATM   10  O2  UNL     1      41.933  50.433  22.102  1.00  0.00    -0.338 OA
BRANCH  10  11
HETATM   11  C5  UNL     1      40.676  50.480  21.639  1.00  0.00     0.119 A 
HETATM   12  C4  UNL     1      39.748  49.506  21.956  1.00  0.00     0.100 A 
HETATM   13  C3  UNL     1      38.430  49.526  21.492  1.00  0.00     0.046 A 
HETATM   14  C2  UNL     1      38.021  50.547  20.686  1.00  0.00    -0.058 A 
HETATM   15  C1  UNL     1      36.631  50.619  20.160  1.00  0.00     0.048 C 
HETATM   16  C19 UNL     1      38.908  51.534  20.347  1.00  0.00     0.029 A 
HETATM   17  C18 UNL     1      40.224  51.496  20.824  1.00  0.00     0.047 A 
HETATM   18 BR2  UNL     1      41.303  52.985  20.333  1.00  0.00    -0.048 Br
BRANCH  12  19
HETATM   19  O1  UNL     1      40.092  48.461  22.757  1.00  0.00    -0.358 OA
ATOM     20  H1  UNL     1      40.956  48.497  23.151  1.00  0.00     0.217 HD
ENDBRANCH  12  19
ENDBRANCH  10  11
ENDBRANCH   1  10
BRANCH   6  21
HETATM   21  N1  UNL     1      45.428  48.173  24.322  1.00  0.00    -0.281 N 
HETATM   22  C11 UNL     1      46.604  47.567  24.531  1.00  0.00     0.138 A 
HETATM   23  C12 UNL     1      46.512  46.745  25.653  1.00  0.00     0.044 A 
HETATM   24  N2  UNL     1      45.228  46.906  26.078  1.00  0.00    -0.289 N 
HETATM   25  N3  UNL     1      44.617  47.756  25.269  1.00  0.00    -0.240 N 
ATOM     26  H2  UNL     1      44.807  46.447  26.887  1.00  0.00     0.188 HD
ATOM     27  H3  UNL     1      43.644  48.049  25.367  1.00  0.00     0.208 HD
BRANCH  23  28
HETATM   28  C13 UNL     1      47.568  45.902  26.230  1.00  0.00     0.062 C 
BRANCH  28  29
HETATM   29  C14 UNL     1      46.995  44.815  27.116  1.00  0.00     0.032 C 
BRANCH  29  30
HETATM   30  C15 UNL     1      47.718  43.499  26.907  1.00  0.00     0.164 C 
BRANCH  30  31
HETATM   31  O4  UNL     1      48.038  43.285  25.579  1.00  0.00    -0.401 OA
ATOM     32  H4  UNL     1      48.626  43.950  25.241  1.00  0.00     0.209 HD
ENDBRANCH  30  31
ENDBRANCH  29  30
ENDBRANCH  28  29
ENDBRANCH  23  28
ENDBRANCH   6  21
BRANCH   2  33
HETATM   33  O3  UNL     1      44.723  51.307  21.534  1.00  0.00    -0.392 OA
ATOM     34  H3  UNL     1      45.311  51.757  20.939  1.00  0.00     0.210 HD
ENDBRANCH   2  33
TORSDOF 9
ENDMDL
MODEL 3
REMARK VINA RESULT: -7.846558630      1.593      1.895
REMARK  9 active torsions:
REMARK  status: ('A' for Active; 'I' for Inactive)
REMARK    1  A    between atoms: C4_4  and  O1_5 
REMARK    2  A    between atoms: C5_7  and  O2_8 
REMARK    3  A    between atoms: O2_8  and  C6_9 
REMARK    4  A    between atoms: C7_10  and  O3_11 
REMARK    5  A    between atoms: C10_16  and  N1_17 
REMARK    6  A    between atoms: C12_19  and  C13_20 
REMARK    7  A    between atoms: C13_20  and  C14_21 
REMARK    8  A    between atoms: C14_21  and  C15_22 
REMARK    9  A    between atoms: C15_22  and  O4_23 
ROOT
HETATM    1  C6  UNL     1      42.872  50.165  22.450  1.00  0.00     0.178 C 
HETATM    2  C7  UNL     1      43.610  50.073  21.135  1.00  0.00     0.163 C 
HETATM    3  C8  UNL     1      43.910  48.574  20.944  1.00  0.00     0.091 C 
HETATM    4 BR1  UNL     1      42.232  47.620  20.907  1.00  0.00    -0.088 Br
HETATM    5  C9  UNL     1      44.804  48.026  21.988  1.00  0.00     0.047 C 
HETATM    6  C10 UNL     1      44.953  48.898  23.197  1.00  0.00     0.130 C 
HETATM    7  C16 UNL     1      43.791  49.717  23.553  1.00  0.00     0.149 C 
HETATM    8  C17 UNL     1      44.283  50.944  24.233  1.00  0.00     0.069 C 
HETATM    9  N4  UNL     1      44.657  51.900  24.765  1.00  0.00    -0.197 NA
ENDROOT
BRANCH   1  10
HETATM   10  O2  UNL     1      42.403  51.425  22.762  1.00  0.00    -0.338 OA
BRANCH  10  11
HETATM   11  C5  UNL     1      41.188  51.951  22.975  1.00  0.00     0.119 A 
HETATM   12  C4  UNL     1      40.762  52.306  24.240  1.00  0.00     0.100 A 
HETATM   13  C3  UNL     1      39.504  52.858  24.496  1.00  0.00     0.046 A 
HETATM   14  C2  UNL     1      38.640  53.062  23.461  1.00  0.00    -0.058 A 
HETATM   15  C1  UNL     1      37.287  53.643  23.673  1.00  0.00     0.048 C 
HETATM   16  C19 UNL     1      39.022  52.724  22.189  1.00  0.00     0.029 A 
HETATM   17  C18 UNL     1      40.288  52.173  21.955  1.00  0.00     0.047 A 
HETATM   18 BR2  UNL     1      40.696  51.841  20.126  1.00  0.00    -0.048 Br
BRANCH  12  19
HETATM   19  O1  UNL     1      41.576  52.130  25.317  1.00  0.00    -0.358 OA
ATOM     20  H1  UNL     1      42.440  52.522  25.262  1.00  0.00     0.217 HD
ENDBRANCH  12  19
ENDBRANCH  10  11
ENDBRANCH   1  10
BRANCH   6  21
HETATM   21  N1  UNL     1      45.312  48.047  24.304  1.00  0.00    -0.281 N 
HETATM   22  C11 UNL     1      46.495  47.465  24.545  1.00  0.00     0.138 A 
HETATM   23  C12 UNL     1      46.419  46.725  25.724  1.00  0.00     0.044 A 
HETATM   24  N2  UNL     1      45.137  46.909  26.149  1.00  0.00    -0.289 N 
HETATM   25  N3  UNL     1      44.513  47.695  25.286  1.00  0.00    -0.240 N 
ATOM     26  H2  UNL     1      44.727  46.508  26.992  1.00  0.00     0.188 HD
ATOM     27  H3  UNL     1      43.539  47.989  25.372  1.00  0.00     0.208 HD
BRANCH  23  28
HETATM   28  C13 UNL     1      47.486  45.933  26.350  1.00  0.00     0.062 C 
BRANCH  28  29
HETATM   29  C14 UNL     1      46.927  44.764  27.134  1.00  0.00     0.032 C 
BRANCH  29  30
HETATM   30  C15 UNL     1      47.741  43.507  26.900  1.00  0.00     0.164 C 
BRANCH  30  31
HETATM   31  O4  UNL     1      48.028  43.314  25.560  1.00  0.00    -0.401 OA
ATOM     32  H4  UNL     1      47.281  43.499  25.004  1.00  0.00     0.209 HD
ENDBRANCH  30  31
ENDBRANCH  29  30
ENDBRANCH  28  29
ENDBRANCH  23  28
ENDBRANCH   6  21
BRANCH   2  33
HETATM   33  O3  UNL     1      44.782  50.783  21.090  1.00  0.00    -0.392 OA
ATOM     34  H3  UNL     1      44.777  51.515  20.484  1.00  0.00     0.210 HD
ENDBRANCH   2  33
TORSDOF 9
ENDMDL
MODEL 4
REMARK VINA RESULT: -7.840672633      1.524      1.923
REMARK  9 active torsions:
REMARK  status: ('A' for Active; 'I' for Inactive)
REMARK    1  A    between atoms: C4_4  and  O1_5 
REMARK    2  A    between atoms: C5_7  and  O2_8 
REMARK    3  A    between atoms: O2_8  and  C6_9 
REMARK    4  A    between atoms: C7_10  and  O3_11 
REMARK    5  A    between atoms: C10_16  and  N1_17 
REMARK    6  A    between atoms: C12_19  and  C13_20 
REMARK    7  A    between atoms: C13_20  and  C14_21 
REMARK    8  A    between atoms: C14_21  and  C15_22 
REMARK    9  A    between atoms: C15_22  and  O4_23 
ROOT
HETATM    1  C6  UNL     1      42.978  48.768  21.611  1.00  0.00     0.178 C 
HETATM    2  C7  UNL     1      43.539  49.598  20.480  1.00  0.00     0.163 C 
HETATM    3  C8  UNL     1      44.684  48.753  19.889  1.00  0.00     0.091 C 
HETATM    4 BR1  UNL     1      43.946  47.081  19.271  1.00  0.00    -0.088 Br
HETATM    5  C9  UNL     1      45.785  48.520  20.850  1.00  0.00     0.047 C 
HETATM    6  C10 UNL     1      45.439  48.820  22.275  1.00  0.00     0.130 C 
HETATM    7  C16 UNL     1      44.042  48.602  22.662  1.00  0.00     0.149 C 
HETATM    8  C17 UNL     1      43.715  49.547  23.763  1.00  0.00     0.069 C 
HETATM    9  N4  UNL     1      43.454  50.277  24.621  1.00  0.00    -0.197 NA
ENDROOT
BRANCH   1  10
HETATM   10  O2  UNL     1      41.854  49.297  22.213  1.00  0.00    -0.338 OA
BRANCH  10  11
HETATM   11  C5  UNL     1      40.552  48.976  22.219  1.00  0.00     0.119 A 
HETATM   12  C4  UNL     1      40.099  47.771  21.719  1.00  0.00     0.100 A 
HETATM   13  C3  UNL     1      38.750  47.405  21.711  1.00  0.00     0.046 A 
HETATM   14  C2  UNL     1      37.821  48.265  22.218  1.00  0.00    -0.058 A 
HETATM   15  C1  UNL     1      36.372  47.931  22.235  1.00  0.00     0.048 C 
HETATM   16  C19 UNL     1      38.227  49.471  22.726  1.00  0.00     0.029 A 
HETATM   17  C18 UNL     1      39.584  49.818  22.725  1.00  0.00     0.047 A 
HETATM   18 BR2  UNL     1      39.991  51.487  23.544  1.00  0.00    -0.048 Br
BRANCH  12  19
HETATM   19  O1  UNL     1      40.973  46.867  21.199  1.00  0.00    -0.358 OA
ATOM     20  H1  UNL     1      41.627  46.520  21.796  1.00  0.00     0.217 HD
ENDBRANCH  12  19
ENDBRANCH  10  11
ENDBRANCH   1  10
BRANCH   6  21
HETATM   21  N1  UNL     1      46.308  48.028  23.109  1.00  0.00    -0.281 N 
HETATM   22  C11 UNL     1      46.241  47.854  24.436  1.00  0.00     0.138 A 
HETATM   23  C12 UNL     1      47.271  47.011  24.848  1.00  0.00     0.044 A 
HETATM   24  N2  UNL     1      47.934  46.708  23.696  1.00  0.00    -0.289 N 
HETATM   25  N3  UNL     1      47.337  47.326  22.689  1.00  0.00    -0.240 N 
ATOM     26  H2  UNL     1      48.753  46.106  23.622  1.00  0.00     0.188 HD
ATOM     27  H3  UNL     1      47.636  47.266  21.716  1.00  0.00     0.208 HD
BRANCH  23  28
HETATM   28  C13 UNL     1      47.563  46.562  26.216  1.00  0.00     0.062 C 
BRANCH  28  29
HETATM   29  C14 UNL     1      46.770  45.324  26.579  1.00  0.00     0.032 C 
BRANCH  29  30
HETATM   30  C15 UNL     1      47.675  44.117  26.730  1.00  0.00     0.164 C 
BRANCH  30  31
HETATM   31  O4  UNL     1      47.954  43.519  25.513  1.00  0.00    -0.401 OA
ATOM     32  H4  UNL     1      47.541  42.668  25.430  1.00  0.00     0.209 HD
ENDBRANCH  30  31
ENDBRANCH  29  30
ENDBRANCH  28  29
ENDBRANCH  23  28
ENDBRANCH   6  21
BRANCH   2  33
HETATM   33  O3  UNL     1      44.023  50.823  20.859  1.00  0.00    -0.392 OA
ATOM     34  H3  UNL     1      43.362  51.429  21.173  1.00  0.00     0.210 HD
ENDBRANCH   2  33
TORSDOF 9
ENDMDL
MODEL 5
REMARK VINA RESULT: -7.839711634      4.038      7.246
REMARK  9 active torsions:
REMARK  status: ('A' for Active; 'I' for Inactive)
REMARK    1  A    between atoms: C4_4  and  O1_5 
REMARK    2  A    between atoms: C5_7  and  O2_8 
REMARK    3  A    between atoms: O2_8  and  C6_9 
REMARK    4  A    between atoms: C7_10  and  O3_11 
REMARK    5  A    between atoms: C10_16  and  N1_17 
REMARK    6  A    between atoms: C12_19  and  C13_20 
REMARK    7  A    between atoms: C13_20  and  C14_21 
REMARK    8  A    between atoms: C14_21  and  C15_22 
REMARK    9  A    between atoms: C15_22  and  O4_23 
ROOT
HETATM    1  C6  UNL     1      44.245  49.414  21.335  1.00  0.00     0.178 C 
HETATM    2  C7  UNL     1      43.913  50.871  21.113  1.00  0.00     0.163 C 
HETATM    3  C8  UNL     1      42.480  50.877  20.548  1.00  0.00     0.091 C 
HETATM    4 BR1  UNL     1      41.313  50.051  21.844  1.00  0.00    -0.088 Br
HETATM    5  C9  UNL     1      42.374  50.199  19.236  1.00  0.00     0.047 C 
HETATM    6  C10 UNL     1      43.552  49.345  18.882  1.00  0.00     0.130 C 
HETATM    7  C16 UNL     1      44.254  48.713  20.003  1.00  0.00     0.149 C 
HETATM    8  C17 UNL     1      45.679  48.537  19.615  1.00  0.00     0.069 C 
HETATM    9  N4  UNL     1      46.788  48.395  19.320  1.00  0.00    -0.197 NA
ENDROOT
BRANCH   1  10
HETATM   10  O2  UNL     1      45.459  49.186  21.952  1.00  0.00    -0.338 OA
BRANCH  10  11
HETATM   11  C5  UNL     1      45.849  48.491  23.031  1.00  0.00     0.119 A 
HETATM   12  C4  UNL     1      46.900  47.596  22.976  1.00  0.00     0.100 A 
HETATM   13  C3  UNL     1      47.334  46.859  24.081  1.00  0.00     0.046 A 
HETATM   14  C2  UNL     1      46.702  47.015  25.279  1.00  0.00    -0.058 A 
HETATM   15  C1  UNL     1      47.118  46.256  26.489  1.00  0.00     0.048 C 
HETATM   16  C19 UNL     1      45.655  47.894  25.378  1.00  0.00     0.029 A 
HETATM   17  C18 UNL     1      45.237  48.624  24.258  1.00  0.00     0.047 A 
HETATM   18 BR2  UNL     1      43.829  49.863  24.583  1.00  0.00    -0.048 Br
BRANCH  12  19
HETATM   19  O1  UNL     1      47.574  47.394  21.811  1.00  0.00    -0.358 OA
ATOM     20  H1  UNL     1      47.234  46.716  21.238  1.00  0.00     0.217 HD
ENDBRANCH  12  19
ENDBRANCH  10  11
ENDBRANCH   1  10
BRANCH   6  21
HETATM   21  N1  UNL     1      43.095  48.337  17.959  1.00  0.00    -0.281 N 
HETATM   22  C11 UNL     1      42.629  47.113  18.241  1.00  0.00     0.138 A 
HETATM   23  C12 UNL     1      42.293  46.457  17.058  1.00  0.00     0.044 A 
HETATM   24  N2  UNL     1      42.589  47.361  16.082  1.00  0.00    -0.289 N 
HETATM   25  N3  UNL     1      43.060  48.460  16.651  1.00  0.00    -0.240 N 
ATOM     26  H2  UNL     1      42.468  47.215  15.080  1.00  0.00     0.188 HD
ATOM     27  H3  UNL     1      43.358  49.292  16.141  1.00  0.00     0.208 HD
BRANCH  23  28
HETATM   28  C13 UNL     1      41.748  45.101  16.914  1.00  0.00     0.062 C 
BRANCH  28  29
HETATM   29  C14 UNL     1      42.235  44.182  18.015  1.00  0.00     0.032 C 
BRANCH  29  30
HETATM   30  C15 UNL     1      41.266  43.039  18.244  1.00  0.00     0.164 C 
BRANCH  30  31
HETATM   31  O4  UNL     1      41.755  41.837  17.762  1.00  0.00    -0.401 OA
ATOM     32  H4  UNL     1      42.671  41.712  17.976  1.00  0.00     0.209 HD
ENDBRANCH  30  31
ENDBRANCH  29  30
ENDBRANCH  28  29
ENDBRANCH  23  28
ENDBRANCH   6  21
BRANCH   2  33
HETATM   33  O3  UNL     1      44.751  51.520  20.243  1.00  0.00    -0.392 OA
ATOM     34  H3  UNL     1      44.462  52.390  19.992  1.00  0.00     0.210 HD
ENDBRANCH   2  33
TORSDOF 9
ENDMDL
