MODEL 1
REMARK VINA RESULT: -5.310435472      0.000      0.000
REMARK  2 active torsions:
REMARK  status: ('A' for Active; 'I' for Inactive)
REMARK    1  A    between atoms: N1_2  and  C2_4 
REMARK    2  A    between atoms: C7_9  and  N2_10 
ROOT
HETATM    1  C2  UNL     1      24.350  38.975  42.879  1.00  0.00     0.110 C 
HETATM    2  C3  UNL     1      25.818  38.693  42.805  1.00  0.00     0.027 C 
HETATM    3  C4  UNL     1      26.287  38.079  41.551  1.00  0.00     0.002 C 
HETATM    4  C5  UNL     1      25.219  37.552  40.643  1.00  0.00     0.002 C 
HETATM    5  C6  UNL     1      24.093  36.936  41.431  1.00  0.00     0.035 C 
HETATM    6  C7  UNL     1      23.473  37.864  42.417  1.00  0.00     0.206 C 
ENDROOT
BRANCH   6   7
HETATM    7  N2  UNL     1      22.275  38.462  41.811  1.00  0.00    -0.073 N 
ATOM      8  H23 UNL     1      21.695  38.959  42.487  1.00  0.00     0.274 HD
ATOM      9  H22 UNL     1      22.490  39.257  41.209  1.00  0.00     0.274 HD
ATOM     10  H21 UNL     1      21.770  37.721  41.325  1.00  0.00     0.274 HD
ENDBRANCH   6   7
BRANCH   1  11
HETATM   11  N1  UNL     1      23.950  39.326  44.192  1.00  0.00    -0.401 N 
HETATM   12  C1  UNL     1      23.737  38.587  45.166  1.00  0.00     0.112 C 
ATOM     13  H1  UNL     1      23.819  40.324  44.360  1.00  0.00     0.158 HD
ENDBRANCH   1  11
TORSDOF 2
ENDMDL
MODEL 2
REMARK VINA RESULT: -5.256333646      1.356      1.796
REMARK  2 active torsions:
REMARK  status: ('A' for Active; 'I' for Inactive)
REMARK    1  A    between atoms: N1_2  and  C2_4 
REMARK    2  A    between atoms: C7_9  and  N2_10 
ROOT
HETATM    1  C2  UNL     1      24.011  38.577  41.873  1.00  0.00     0.110 C 
HETATM    2  C3  UNL     1      25.000  39.113  42.860  1.00  0.00     0.027 C 
HETATM    3  C4  UNL     1      26.388  38.650  42.689  1.00  0.00     0.002 C 
HETATM    4  C5  UNL     1      26.580  37.497  41.752  1.00  0.00     0.002 C 
HETATM    5  C6  UNL     1      25.445  36.513  41.864  1.00  0.00     0.035 C 
HETATM    6  C7  UNL     1      24.104  37.113  41.622  1.00  0.00     0.206 C 
ENDROOT
BRANCH   6   7
HETATM    7  N2  UNL     1      23.728  36.875  40.221  1.00  0.00    -0.073 N 
ATOM      8  H23 UNL     1      24.499  36.512  39.660  1.00  0.00     0.274 HD
ATOM      9  H22 UNL     1      23.096  36.082  40.110  1.00  0.00     0.274 HD
ATOM     10  H21 UNL     1      23.344  37.744  39.851  1.00  0.00     0.274 HD
ENDBRANCH   6   7
BRANCH   1  11
HETATM   11  N1  UNL     1      22.678  38.868  42.257  1.00  0.00    -0.401 N 
HETATM   12  C1  UNL     1      22.201  38.973  43.397  1.00  0.00     0.112 C 
ATOM     13  H1  UNL     1      22.021  39.011  41.490  1.00  0.00     0.158 HD
ENDBRANCH   1  11
TORSDOF 2
ENDMDL
MODEL 3
REMARK VINA RESULT: -5.221663553      1.319      2.595
REMARK  2 active torsions:
REMARK  status: ('A' for Active; 'I' for Inactive)
REMARK    1  A    between atoms: N1_2  and  C2_4 
REMARK    2  A    between atoms: C7_9  and  N2_10 
ROOT
HETATM    1  C2  UNL     1      24.199  37.939  42.436  1.00  0.00     0.110 C 
HETATM    2  C3  UNL     1      24.964  36.878  41.709  1.00  0.00     0.027 C 
HETATM    3  C4  UNL     1      26.403  36.807  42.012  1.00  0.00     0.002 C 
HETATM    4  C5  UNL     1      26.968  37.969  42.770  1.00  0.00     0.002 C 
HETATM    5  C6  UNL     1      26.333  39.262  42.333  1.00  0.00     0.035 C 
HETATM    6  C7  UNL     1      24.849  39.278  42.462  1.00  0.00     0.206 C 
ENDROOT
BRANCH   6   7
HETATM    7  N2  UNL     1      24.495  39.923  43.734  1.00  0.00    -0.073 N 
ATOM      8  H23 UNL     1      23.798  39.399  44.264  1.00  0.00     0.274 HD
ATOM      9  H22 UNL     1      25.246  39.882  44.422  1.00  0.00     0.274 HD
ATOM     10  H21 UNL     1      24.198  40.877  43.526  1.00  0.00     0.274 HD
ENDBRANCH   6   7
BRANCH   1  11
HETATM   11  N1  UNL     1      22.894  38.100  41.907  1.00  0.00    -0.401 N 
HETATM   12  C1  UNL     1      21.841  38.374  42.502  1.00  0.00     0.112 C 
ATOM     13  H1  UNL     1      22.810  37.974  40.899  1.00  0.00     0.158 HD
ENDBRANCH   1  11
TORSDOF 2
ENDMDL
MODEL 4
REMARK VINA RESULT: -4.994751848      1.756      3.554
REMARK  2 active torsions:
REMARK  status: ('A' for Active; 'I' for Inactive)
REMARK    1  A    between atoms: N1_2  and  C2_4 
REMARK    2  A    between atoms: C7_9  and  N2_10 
ROOT
HETATM    1  C2  UNL     1      24.523  38.572  41.775  1.00  0.00     0.110 C 
HETATM    2  C3  UNL     1      23.358  37.635  41.852  1.00  0.00     0.027 C 
HETATM    3  C4  UNL     1      22.227  38.089  42.678  1.00  0.00     0.002 C 
HETATM    4  C5  UNL     1      22.495  39.271  43.558  1.00  0.00     0.002 C 
HETATM    5  C6  UNL     1      23.891  39.224  44.119  1.00  0.00     0.035 C 
HETATM    6  C7  UNL     1      24.954  39.147  43.079  1.00  0.00     0.206 C 
ENDROOT
BRANCH   6   7
HETATM    7  N2  UNL     1      25.463  40.502  42.824  1.00  0.00    -0.073 N 
ATOM      8  H23 UNL     1      26.166  40.529  42.086  1.00  0.00     0.274 HD
ATOM      9  H22 UNL     1      24.774  41.106  42.376  1.00  0.00     0.274 HD
ATOM     10  H21 UNL     1      25.803  40.877  43.710  1.00  0.00     0.274 HD
ENDBRANCH   6   7
BRANCH   1  11
HETATM   11  N1  UNL     1      25.651  37.958  41.176  1.00  0.00    -0.401 N 
HETATM   12  C1  UNL     1      26.532  37.263  41.706  1.00  0.00     0.112 C 
ATOM     13  H1  UNL     1      25.752  38.108  40.173  1.00  0.00     0.158 HD
ENDBRANCH   1  11
TORSDOF 2
ENDMDL
MODEL 5
REMARK VINA RESULT: -4.815665243      1.843      2.927
REMARK  2 active torsions:
REMARK  status: ('A' for Active; 'I' for Inactive)
REMARK    1  A    between atoms: N1_2  and  C2_4 
REMARK    2  A    between atoms: C7_9  and  N2_10 
ROOT
HETATM    1  C2  UNL     1      24.960  38.159  43.000  1.00  0.00     0.110 C 
HETATM    2  C3  UNL     1      24.350  39.321  43.719  1.00  0.00     0.027 C 
HETATM    3  C4  UNL     1      22.878  39.337  43.772  1.00  0.00     0.002 C 
HETATM    4  C5  UNL     1      22.182  38.368  42.866  1.00  0.00     0.002 C 
HETATM    5  C6  UNL     1      22.906  38.236  41.553  1.00  0.00     0.035 C 
HETATM    6  C7  UNL     1      24.332  37.829  41.691  1.00  0.00     0.206 C 
ENDROOT
BRANCH   6   7
HETATM    7  N2  UNL     1      24.425  36.374  41.504  1.00  0.00    -0.073 N 
ATOM      8  H23 UNL     1      23.643  35.991  40.972  1.00  0.00     0.274 HD
ATOM      9  H22 UNL     1      25.170  36.103  40.863  1.00  0.00     0.274 HD
ATOM     10  H21 UNL     1      24.522  35.948  42.427  1.00  0.00     0.274 HD
ENDBRANCH   6   7
BRANCH   1  11
HETATM   11  N1  UNL     1      26.347  38.349  42.780  1.00  0.00    -0.401 N 
HETATM   12  C1  UNL     1      27.300  37.655  43.169  1.00  0.00     0.112 C 
ATOM     13  H1  UNL     1      26.596  39.168  42.226  1.00  0.00     0.158 HD
ENDBRANCH   1  11
TORSDOF 2
ENDMDL
