MODEL 1
REMARK VINA RESULT: -6.001136069      0.000      0.000
REMARK  2 active torsions:
REMARK  status: ('A' for Active; 'I' for Inactive)
REMARK    1  A    between atoms: C1_2  and  C2_3 
REMARK    2  A    between atoms: C2_3  and  C3_4 
ROOT
HETATM    1  C3  UNL     1      24.495  38.004  42.313  1.00  0.00     0.011 C 
HETATM    2  C4  UNL     1      25.292  37.342  41.206  1.00  0.00     0.009 C 
HETATM    3  C5  UNL     1      26.567  36.813  41.877  1.00  0.00     0.001 C 
HETATM    4  C6  UNL     1      26.996  37.809  42.917  1.00  0.00     0.000 C 
HETATM    5  C7  UNL     1      26.581  39.229  42.564  1.00  0.00     0.001 C 
HETATM    6  C8  UNL     1      25.078  39.354  42.627  1.00  0.00     0.009 C 
ENDROOT
BRANCH   1   7
HETATM    7  C2  UNL     1      23.058  38.031  42.020  1.00  0.00     0.019 C 
BRANCH   7   8
HETATM    8  C1  UNL     1      22.191  38.657  42.781  1.00  0.00     0.255 C 
HETATM    9  O1  UNL     1      21.615  39.473  43.545  1.00  0.00    -0.303 OA
ENDBRANCH   7   8
ENDBRANCH   1   7
TORSDOF 2
ENDMDL
MODEL 2
REMARK VINA RESULT: -5.757100740      1.938      2.630
REMARK  2 active torsions:
REMARK  status: ('A' for Active; 'I' for Inactive)
REMARK    1  A    between atoms: C1_2  and  C2_3 
REMARK    2  A    between atoms: C2_3  and  C3_4 
ROOT
HETATM    1  C3  UNL     1      24.263  38.729  42.755  1.00  0.00     0.011 C 
HETATM    2  C4  UNL     1      25.511  37.911  43.019  1.00  0.00     0.009 C 
HETATM    3  C5  UNL     1      26.338  37.994  41.729  1.00  0.00     0.001 C 
HETATM    4  C6  UNL     1      25.390  37.965  40.563  1.00  0.00     0.000 C 
HETATM    5  C7  UNL     1      24.116  37.195  40.872  1.00  0.00     0.001 C 
HETATM    6  C8  UNL     1      23.304  37.942  41.904  1.00  0.00     0.009 C 
ENDROOT
BRANCH   1   7
HETATM    7  C2  UNL     1      23.669  39.250  43.991  1.00  0.00     0.019 C 
BRANCH   7   8
HETATM    8  C1  UNL     1      23.798  38.645  45.149  1.00  0.00     0.255 C 
HETATM    9  O1  UNL     1      24.185  38.272  46.285  1.00  0.00    -0.303 OA
ENDBRANCH   7   8
ENDBRANCH   1   7
TORSDOF 2
ENDMDL
MODEL 3
REMARK VINA RESULT: -5.706918093      1.998      2.434
REMARK  2 active torsions:
REMARK  status: ('A' for Active; 'I' for Inactive)
REMARK    1  A    between atoms: C1_2  and  C2_3 
REMARK    2  A    between atoms: C2_3  and  C3_4 
ROOT
HETATM    1  C3  UNL     1      24.171  38.498  43.071  1.00  0.00     0.011 C 
HETATM    2  C4  UNL     1      23.345  38.202  41.835  1.00  0.00     0.009 C 
HETATM    3  C5  UNL     1      24.247  37.352  40.931  1.00  0.00     0.001 C 
HETATM    4  C6  UNL     1      25.653  37.868  41.055  1.00  0.00     0.000 C 
HETATM    5  C7  UNL     1      25.698  39.353  41.382  1.00  0.00     0.001 C 
HETATM    6  C8  UNL     1      25.165  39.587  42.775  1.00  0.00     0.009 C 
ENDROOT
BRANCH   1   7
HETATM    7  C2  UNL     1      23.335  38.762  44.247  1.00  0.00     0.019 C 
BRANCH   7   8
HETATM    8  C1  UNL     1      23.753  38.559  45.475  1.00  0.00     0.255 C 
HETATM    9  O1  UNL     1      24.396  38.194  46.492  1.00  0.00    -0.303 OA
ENDBRANCH   7   8
ENDBRANCH   1   7
TORSDOF 2
ENDMDL
MODEL 4
REMARK VINA RESULT: -5.683466393      1.119      1.729
REMARK  2 active torsions:
REMARK  status: ('A' for Active; 'I' for Inactive)
REMARK    1  A    between atoms: C1_2  and  C2_3 
REMARK    2  A    between atoms: C2_3  and  C3_4 
ROOT
HETATM    1  C3  UNL     1      24.924  38.376  43.116  1.00  0.00     0.011 C 
HETATM    2  C4  UNL     1      25.274  39.127  41.847  1.00  0.00     0.009 C 
HETATM    3  C5  UNL     1      25.642  38.049  40.819  1.00  0.00     0.001 C 
HETATM    4  C6  UNL     1      26.385  36.956  41.534  1.00  0.00     0.000 C 
HETATM    5  C7  UNL     1      27.150  37.471  42.743  1.00  0.00     0.001 C 
HETATM    6  C8  UNL     1      26.180  37.924  43.808  1.00  0.00     0.009 C 
ENDROOT
BRANCH   1   7
HETATM    7  C2  UNL     1      24.013  39.138  43.978  1.00  0.00     0.019 C 
BRANCH   7   8
HETATM    8  C1  UNL     1      22.741  39.298  43.699  1.00  0.00     0.255 C 
HETATM    9  O1  UNL     1      21.601  39.257  43.169  1.00  0.00    -0.303 OA
ENDBRANCH   7   8
ENDBRANCH   1   7
TORSDOF 2
ENDMDL
MODEL 5
REMARK VINA RESULT: -5.560238836      2.399      3.970
REMARK  2 active torsions:
REMARK  status: ('A' for Active; 'I' for Inactive)
REMARK    1  A    between atoms: C1_2  and  C2_3 
REMARK    2  A    between atoms: C2_3  and  C3_4 
ROOT
HETATM    1  C3  UNL     1      24.600  38.734  42.624  1.00  0.00     0.011 C 
HETATM    2  C4  UNL     1      23.642  37.644  42.184  1.00  0.00     0.009 C 
HETATM    3  C5  UNL     1      22.241  38.260  42.289  1.00  0.00     0.001 C 
HETATM    4  C6  UNL     1      22.209  39.144  43.504  1.00  0.00     0.000 C 
HETATM    5  C7  UNL     1      23.166  38.674  44.588  1.00  0.00     0.001 C 
HETATM    6  C8  UNL     1      24.592  38.848  44.123  1.00  0.00     0.009 C 
ENDROOT
BRANCH   1   7
HETATM    7  C2  UNL     1      25.938  38.561  42.048  1.00  0.00     0.019 C 
BRANCH   7   8
HETATM    8  C1  UNL     1      26.898  37.914  42.667  1.00  0.00     0.255 C 
HETATM    9  O1  UNL     1      27.738  37.506  43.509  1.00  0.00    -0.303 OA
ENDBRANCH   7   8
ENDBRANCH   1   7
TORSDOF 2
ENDMDL
