MODEL 1
REMARK VINA RESULT: -6.025342221      0.000      0.000
REMARK  2 active torsions:
REMARK  status: ('A' for Active; 'I' for Inactive)
REMARK    1  A    between atoms: C2_2  and  C3_3 
REMARK    2  A    between atoms: C3_3  and  N1_4 
ROOT
HETATM    1  C3  UNL     1      25.148  38.730  42.473  1.00  0.00     0.141 C 
HETATM    2  C4  UNL     1      24.058  38.416  41.484  1.00  0.00     0.043 C 
HETATM    3  C5  UNL     1      22.752  38.056  42.132  1.00  0.00     0.003 C 
HETATM    4  C6  UNL     1      22.382  39.011  43.239  1.00  0.00     0.000 C 
HETATM    5  C7  UNL     1      23.502  39.207  44.217  1.00  0.00     0.003 C 
HETATM    6  C8  UNL     1      24.722  38.392  43.900  1.00  0.00     0.043 C 
ENDROOT
BRANCH   1   7
HETATM    7  C2  UNL     1      26.412  38.050  42.131  1.00  0.00     0.001 C 
HETATM    8  C1  UNL     1      27.154  37.537  43.088  1.00  0.00     0.009 C 
ENDBRANCH   1   7
BRANCH   1   9
HETATM    9  N1  UNL     1      25.442  40.172  42.495  1.00  0.00    -0.067 N 
ATOM     10  H13 UNL     1      24.791  40.709  43.067  1.00  0.00     0.275 HD
ATOM     11  H12 UNL     1      26.288  40.404  43.016  1.00  0.00     0.275 HD
ATOM     12  H11 UNL     1      25.472  40.475  41.522  1.00  0.00     0.275 HD
ENDBRANCH   1   9
TORSDOF 2
ENDMDL
MODEL 2
REMARK VINA RESULT: -5.651505399      1.595      3.322
REMARK  2 active torsions:
REMARK  status: ('A' for Active; 'I' for Inactive)
REMARK    1  A    between atoms: C2_2  and  C3_3 
REMARK    2  A    between atoms: C3_3  and  N1_4 
ROOT
HETATM    1  C3  UNL     1      23.618  38.507  42.649  1.00  0.00     0.141 C 
HETATM    2  C4  UNL     1      24.814  39.419  42.587  1.00  0.00     0.043 C 
HETATM    3  C5  UNL     1      26.020  38.778  41.964  1.00  0.00     0.003 C 
HETATM    4  C6  UNL     1      25.682  38.046  40.689  1.00  0.00     0.000 C 
HETATM    5  C7  UNL     1      24.527  37.106  40.864  1.00  0.00     0.003 C 
HETATM    6  C8  UNL     1      23.986  37.077  42.264  1.00  0.00     0.043 C 
ENDROOT
BRANCH   1   7
HETATM    7  C2  UNL     1      22.971  38.540  43.975  1.00  0.00     0.001 C 
HETATM    8  C1  UNL     1      23.710  38.663  45.056  1.00  0.00     0.009 C 
ENDBRANCH   1   7
BRANCH   1   9
HETATM    9  N1  UNL     1      22.593  38.913  41.674  1.00  0.00    -0.067 N 
ATOM     10  H13 UNL     1      21.857  38.217  41.548  1.00  0.00     0.275 HD
ATOM     11  H12 UNL     1      21.995  39.669  42.009  1.00  0.00     0.275 HD
ATOM     12  H11 UNL     1      23.087  39.140  40.812  1.00  0.00     0.275 HD
ENDBRANCH   1   9
TORSDOF 2
ENDMDL
MODEL 3
REMARK VINA RESULT: -5.547671859      1.025      3.320
REMARK  2 active torsions:
REMARK  status: ('A' for Active; 'I' for Inactive)
REMARK    1  A    between atoms: C2_2  and  C3_3 
REMARK    2  A    between atoms: C3_3  and  N1_4 
ROOT
HETATM    1  C3  UNL     1      25.030  39.075  42.739  1.00  0.00     0.141 C 
HETATM    2  C4  UNL     1      26.085  38.181  43.332  1.00  0.00     0.043 C 
HETATM    3  C5  UNL     1      26.272  36.897  42.576  1.00  0.00     0.003 C 
HETATM    4  C6  UNL     1      26.358  37.120  41.087  1.00  0.00     0.000 C 
HETATM    5  C7  UNL     1      25.227  37.960  40.573  1.00  0.00     0.003 C 
HETATM    6  C8  UNL     1      24.249  38.362  41.638  1.00  0.00     0.043 C 
ENDROOT
BRANCH   1   7
HETATM    7  C2  UNL     1      24.115  39.603  43.770  1.00  0.00     0.001 C 
HETATM    8  C1  UNL     1      23.060  38.900  44.124  1.00  0.00     0.009 C 
ENDBRANCH   1   7
BRANCH   1   9
HETATM    9  N1  UNL     1      25.636  40.244  42.082  1.00  0.00    -0.067 N 
ATOM     10  H13 UNL     1      26.242  40.785  42.699  1.00  0.00     0.275 HD
ATOM     11  H12 UNL     1      26.345  39.997  41.392  1.00  0.00     0.275 HD
ATOM     12  H11 UNL     1      24.866  40.788  41.693  1.00  0.00     0.275 HD
ENDBRANCH   1   9
TORSDOF 2
ENDMDL
MODEL 4
REMARK VINA RESULT: -5.423016447      0.848      1.165
REMARK  2 active torsions:
REMARK  status: ('A' for Active; 'I' for Inactive)
REMARK    1  A    between atoms: C2_2  and  C3_3 
REMARK    2  A    between atoms: C3_3  and  N1_4 
ROOT
HETATM    1  C3  UNL     1      24.910  38.773  42.297  1.00  0.00     0.141 C 
HETATM    2  C4  UNL     1      23.569  38.742  41.614  1.00  0.00     0.043 C 
HETATM    3  C5  UNL     1      22.448  38.326  42.522  1.00  0.00     0.003 C 
HETATM    4  C6  UNL     1      22.495  39.040  43.849  1.00  0.00     0.000 C 
HETATM    5  C7  UNL     1      23.847  38.957  44.491  1.00  0.00     0.003 C 
HETATM    6  C8  UNL     1      24.839  38.160  43.694  1.00  0.00     0.043 C 
ENDROOT
BRANCH   1   7
HETATM    7  C2  UNL     1      25.953  38.111  41.489  1.00  0.00     0.001 C 
HETATM    8  C1  UNL     1      25.653  37.645  40.296  1.00  0.00     0.009 C 
ENDBRANCH   1   7
BRANCH   1   9
HETATM    9  N1  UNL     1      25.363  40.157  42.510  1.00  0.00    -0.067 N 
ATOM     10  H13 UNL     1      25.760  40.584  41.673  1.00  0.00     0.275 HD
ATOM     11  H12 UNL     1      24.596  40.817  42.638  1.00  0.00     0.275 HD
ATOM     12  H11 UNL     1      26.010  40.131  43.297  1.00  0.00     0.275 HD
ENDBRANCH   1   9
TORSDOF 2
ENDMDL
MODEL 5
REMARK VINA RESULT: -5.381757734      1.282      2.082
REMARK  2 active torsions:
REMARK  status: ('A' for Active; 'I' for Inactive)
REMARK    1  A    between atoms: C2_2  and  C3_3 
REMARK    2  A    between atoms: C3_3  and  N1_4 
ROOT
HETATM    1  C3  UNL     1      25.123  38.073  42.637  1.00  0.00     0.141 C 
HETATM    2  C4  UNL     1      24.538  38.379  43.990  1.00  0.00     0.043 C 
HETATM    3  C5  UNL     1      23.243  39.136  43.922  1.00  0.00     0.003 C 
HETATM    4  C6  UNL     1      22.292  38.549  42.910  1.00  0.00     0.000 C 
HETATM    5  C7  UNL     1      22.939  38.346  41.572  1.00  0.00     0.003 C 
HETATM    6  C8  UNL     1      24.370  38.800  41.526  1.00  0.00     0.043 C 
ENDROOT
BRANCH   1   7
HETATM    7  C2  UNL     1      26.565  38.383  42.579  1.00  0.00     0.001 C 
HETATM    8  C1  UNL     1      27.419  37.624  43.231  1.00  0.00     0.009 C 
ENDBRANCH   1   7
BRANCH   1   9
HETATM    9  N1  UNL     1      24.991  36.643  42.315  1.00  0.00    -0.067 N 
ATOM     10  H13 UNL     1      24.192  36.436  41.716  1.00  0.00     0.275 HD
ATOM     11  H12 UNL     1      25.715  36.304  41.681  1.00  0.00     0.275 HD
ATOM     12  H11 UNL     1      24.969  36.148  43.206  1.00  0.00     0.275 HD
ENDBRANCH   1   9
TORSDOF 2
ENDMDL
