MODEL 1
REMARK VINA RESULT: -5.526886048      0.000      0.000
REMARK  2 active torsions:
REMARK  status: ('A' for Active; 'I' for Inactive)
REMARK    1  A    between atoms: N1_1  and  N2_4 
REMARK    2  A    between atoms: N3_6  and  C1_8 
ROOT
HETATM    1  N2  UNL     1      22.580  38.171  41.951  1.00  0.00    -0.253 N 
ATOM      2  H2  UNL     1      23.029  37.643  42.700  1.00  0.00     0.207 HD
HETATM    3  N3  UNL     1      23.457  38.259  41.075  1.00  0.00    -0.318 N 
ATOM      4  H3  UNL     1      23.203  38.343  40.091  1.00  0.00     0.182 HD
ENDROOT
BRANCH   3   5
HETATM    5  C1  UNL     1      24.811  38.241  41.468  1.00  0.00     0.100 C 
HETATM    6  C2  UNL     1      25.289  36.841  41.742  1.00  0.00     0.027 C 
HETATM    7  C3  UNL     1      26.737  36.757  42.105  1.00  0.00     0.002 C 
HETATM    8  C4  UNL     1      27.223  37.863  42.979  1.00  0.00     0.000 C 
HETATM    9  C5  UNL     1      26.675  39.211  42.640  1.00  0.00     0.002 C 
HETATM   10  C6  UNL     1      25.145  39.088  42.664  1.00  0.00     0.027 C 
ENDBRANCH   3   5
BRANCH   1  11
HETATM   11  N1  UNL     1      21.451  38.393  42.377  1.00  0.00    -0.331 N 
ATOM     12  H12 UNL     1      21.564  39.314  42.801  1.00  0.00     0.178 HD
ATOM     13  H11 UNL     1      20.476  38.129  42.519  1.00  0.00     0.178 HD
ENDBRANCH   1  11
TORSDOF 2
ENDMDL
MODEL 2
REMARK VINA RESULT: -5.451424289      7.217      7.672
REMARK  2 active torsions:
REMARK  status: ('A' for Active; 'I' for Inactive)
REMARK    1  A    between atoms: N1_1  and  N2_4 
REMARK    2  A    between atoms: N3_6  and  C1_8 
ROOT
HETATM    1  N2  UNL     1      28.209  34.523  47.983  1.00  0.00    -0.253 N 
ATOM      2  H2  UNL     1      27.299  34.502  47.521  1.00  0.00     0.207 HD
HETATM    3  N3  UNL     1      28.024  35.240  48.982  1.00  0.00    -0.318 N 
ATOM      4  H3  UNL     1      28.583  35.112  49.826  1.00  0.00     0.182 HD
ENDROOT
BRANCH   3   5
HETATM    5  C1  UNL     1      27.027  36.234  48.926  1.00  0.00     0.100 C 
HETATM    6  C2  UNL     1      25.787  35.737  48.234  1.00  0.00     0.027 C 
HETATM    7  C3  UNL     1      24.673  36.733  48.199  1.00  0.00     0.002 C 
HETATM    8  C4  UNL     1      25.105  38.142  47.968  1.00  0.00     0.000 C 
HETATM    9  C5  UNL     1      26.357  38.533  48.683  1.00  0.00     0.002 C 
HETATM   10  C6  UNL     1      27.439  37.523  48.272  1.00  0.00     0.027 C 
ENDBRANCH   3   5
BRANCH   1  11
HETATM   11  N1  UNL     1      28.924  33.828  47.269  1.00  0.00    -0.331 N 
ATOM     12  H12 UNL     1      29.529  34.525  46.835  1.00  0.00     0.178 HD
ATOM     13  H11 UNL     1      29.215  32.924  46.897  1.00  0.00     0.178 HD
ENDBRANCH   1  11
TORSDOF 2
ENDMDL
MODEL 3
REMARK VINA RESULT: -5.195951828      2.502      3.044
REMARK  2 active torsions:
REMARK  status: ('A' for Active; 'I' for Inactive)
REMARK    1  A    between atoms: N1_1  and  N2_4 
REMARK    2  A    between atoms: N3_6  and  C1_8 
ROOT
HETATM    1  N2  UNL     1      24.061  38.331  45.411  1.00  0.00    -0.253 N 
ATOM      2  H2  UNL     1      24.570  37.555  44.985  1.00  0.00     0.207 HD
HETATM    3  N3  UNL     1      23.467  38.863  44.458  1.00  0.00    -0.318 N 
ATOM      4  H3  UNL     1      22.589  39.362  44.605  1.00  0.00     0.182 HD
ENDROOT
BRANCH   3   5
HETATM    5  C1  UNL     1      24.029  38.763  43.169  1.00  0.00     0.100 C 
HETATM    6  C2  UNL     1      23.271  37.790  42.308  1.00  0.00     0.027 C 
HETATM    7  C3  UNL     1      23.789  37.690  40.909  1.00  0.00     0.002 C 
HETATM    8  C4  UNL     1      25.275  37.745  40.791  1.00  0.00     0.000 C 
HETATM    9  C5  UNL     1      25.935  38.727  41.701  1.00  0.00     0.002 C 
HETATM   10  C6  UNL     1      25.482  38.386  43.129  1.00  0.00     0.027 C 
ENDBRANCH   3   5
BRANCH   1  11
HETATM   11  N1  UNL     1      24.350  38.260  46.601  1.00  0.00    -0.331 N 
ATOM     12  H12 UNL     1      23.534  37.783  46.987  1.00  0.00     0.178 HD
ATOM     13  H11 UNL     1      24.980  38.432  47.385  1.00  0.00     0.178 HD
ENDBRANCH   1  11
TORSDOF 2
ENDMDL
MODEL 4
REMARK VINA RESULT: -5.181256347      2.520      3.149
REMARK  2 active torsions:
REMARK  status: ('A' for Active; 'I' for Inactive)
REMARK    1  A    between atoms: N1_1  and  N2_4 
REMARK    2  A    between atoms: N3_6  and  C1_8 
ROOT
HETATM    1  N2  UNL     1      24.095  38.309  45.452  1.00  0.00    -0.253 N 
ATOM      2  H2  UNL     1      24.084  37.317  45.215  1.00  0.00     0.207 HD
HETATM    3  N3  UNL     1      23.886  38.882  44.369  1.00  0.00    -0.318 N 
ATOM      4  H3  UNL     1      23.433  39.796  44.341  1.00  0.00     0.182 HD
ENDROOT
BRANCH   3   5
HETATM    5  C1  UNL     1      24.287  38.243  43.178  1.00  0.00     0.100 C 
HETATM    6  C2  UNL     1      25.727  38.535  42.850  1.00  0.00     0.027 C 
HETATM    7  C3  UNL     1      26.222  37.834  41.627  1.00  0.00     0.002 C 
HETATM    8  C4  UNL     1      25.235  37.757  40.511  1.00  0.00     0.000 C 
HETATM    9  C5  UNL     1      23.831  37.483  40.941  1.00  0.00     0.002 C 
HETATM   10  C6  UNL     1      23.460  38.565  41.965  1.00  0.00     0.027 C 
ENDBRANCH   3   5
BRANCH   1  11
HETATM   11  N1  UNL     1      24.307  38.326  46.660  1.00  0.00    -0.331 N 
ATOM     12  H12 UNL     1      24.545  37.351  46.845  1.00  0.00     0.178 HD
ATOM     13  H11 UNL     1      24.364  38.811  47.556  1.00  0.00     0.178 HD
ENDBRANCH   1  11
TORSDOF 2
ENDMDL
MODEL 5
REMARK VINA RESULT: -4.868017309      7.107      7.740
REMARK  2 active torsions:
REMARK  status: ('A' for Active; 'I' for Inactive)
REMARK    1  A    between atoms: N1_1  and  N2_4 
REMARK    2  A    between atoms: N3_6  and  C1_8 
ROOT
HETATM    1  N2  UNL     1      28.168  35.614  49.217  1.00  0.00    -0.253 N 
ATOM      2  H2  UNL     1      27.210  35.284  49.096  1.00  0.00     0.207 HD
HETATM    3  N3  UNL     1      28.059  36.852  49.251  1.00  0.00    -0.318 N 
ATOM      4  H3  UNL     1      28.733  37.420  49.765  1.00  0.00     0.182 HD
ENDROOT
BRANCH   3   5
HETATM    5  C1  UNL     1      26.984  37.456  48.567  1.00  0.00     0.100 C 
HETATM    6  C2  UNL     1      25.780  37.613  49.455  1.00  0.00     0.027 C 
HETATM    7  C3  UNL     1      24.629  38.303  48.795  1.00  0.00     0.002 C 
HETATM    8  C4  UNL     1      24.422  37.937  47.365  1.00  0.00     0.000 C 
HETATM    9  C5  UNL     1      25.679  37.785  46.572  1.00  0.00     0.002 C 
HETATM   10  C6  UNL     1      26.548  36.757  47.310  1.00  0.00     0.027 C 
ENDBRANCH   3   5
BRANCH   1  11
HETATM   11  N1  UNL     1      28.837  34.587  49.255  1.00  0.00    -0.331 N 
ATOM     12  H12 UNL     1      28.979  34.466  50.258  1.00  0.00     0.178 HD
ATOM     13  H11 UNL     1      29.313  33.807  48.801  1.00  0.00     0.178 HD
ENDBRANCH   1  11
TORSDOF 2
ENDMDL
