MODEL 1
REMARK VINA RESULT: -2.696988070      0.000      0.000
REMARK  1 active torsions:
REMARK  status: ('A' for Active; 'I' for Inactive)
REMARK    1  A    between atoms: N2_3  and  C2_5 
ROOT
HETATM    1  N1  UNL     1      57.566  25.234  22.196  1.00  0.00    -0.097 NA
HETATM    2  C1  UNL     1      57.643  24.197  23.167  1.00  0.00     0.187 C 
HETATM    3  N2  UNL     1      58.328  23.173  22.886  1.00  0.00    -0.355 N 
ATOM      4  H2  UNL     1      58.802  23.115  21.985  1.00  0.00     0.162 HD
ENDROOT
BRANCH   3   5
HETATM    5  C2  UNL     1      58.450  22.089  23.820  1.00  0.00     0.304 A 
HETATM    6  N3  UNL     1      59.651  22.116  24.614  1.00  0.00    -0.101 NA
HETATM    7  N4  UNL     1      59.545  21.147  23.613  1.00  0.00    -0.101 NA
ENDBRANCH   3   5
TORSDOF 1
ENDMDL
MODEL 2
REMARK VINA RESULT: -2.673499475      1.152      3.504
REMARK  1 active torsions:
REMARK  status: ('A' for Active; 'I' for Inactive)
REMARK    1  A    between atoms: N2_3  and  C2_5 
ROOT
HETATM    1  N1  UNL     1      59.813  20.975  24.163  1.00  0.00    -0.097 NA
HETATM    2  C1  UNL     1      58.815  21.674  23.430  1.00  0.00     0.187 C 
HETATM    3  N2  UNL     1      58.254  22.662  23.987  1.00  0.00    -0.355 N 
ATOM      4  H2  UNL     1      58.527  22.928  24.933  1.00  0.00     0.162 HD
ENDROOT
BRANCH   3   5
HETATM    5  C2  UNL     1      57.239  23.413  23.304  1.00  0.00     0.304 A 
HETATM    6  N3  UNL     1      57.652  24.726  22.878  1.00  0.00    -0.101 NA
HETATM    7  N4  UNL     1      56.760  24.631  23.951  1.00  0.00    -0.101 NA
ENDBRANCH   3   5
TORSDOF 1
ENDMDL
MODEL 3
REMARK VINA RESULT: -2.532726568      8.198      8.756
REMARK  1 active torsions:
REMARK  status: ('A' for Active; 'I' for Inactive)
REMARK    1  A    between atoms: N2_3  and  C2_5 
ROOT
HETATM    1  N1  UNL     1      65.211  22.120  18.381  1.00  0.00    -0.097 NA
HETATM    2  C1  UNL     1      65.458  23.501  18.150  1.00  0.00     0.187 C 
HETATM    3  N2  UNL     1      64.609  24.335  18.579  1.00  0.00    -0.355 N 
ATOM      4  H2  UNL     1      63.782  24.002  19.073  1.00  0.00     0.162 HD
ENDROOT
BRANCH   3   5
HETATM    5  C2  UNL     1      64.797  25.745  18.381  1.00  0.00     0.304 A 
HETATM    6  N3  UNL     1      65.440  26.422  19.478  1.00  0.00    -0.101 NA
HETATM    7  N4  UNL     1      64.075  26.647  19.274  1.00  0.00    -0.101 NA
ENDBRANCH   3   5
TORSDOF 1
ENDMDL
MODEL 4
REMARK VINA RESULT: -2.318715305     10.459     10.984
REMARK  1 active torsions:
REMARK  status: ('A' for Active; 'I' for Inactive)
REMARK    1  A    between atoms: N2_3  and  C2_5 
ROOT
HETATM    1  N1  UNL     1      53.677  17.891  19.094  1.00  0.00    -0.097 NA
HETATM    2  C1  UNL     1      52.341  17.908  18.604  1.00  0.00     0.187 C 
HETATM    3  N2  UNL     1      52.169  18.024  17.356  1.00  0.00    -0.355 N 
ATOM      4  H2  UNL     1      52.979  18.101  16.742  1.00  0.00     0.162 HD
ENDROOT
BRANCH   3   5
HETATM    5  C2  UNL     1      50.849  18.048  16.794  1.00  0.00     0.304 A 
HETATM    6  N3  UNL     1      50.158  16.784  16.835  1.00  0.00    -0.101 NA
HETATM    7  N4  UNL     1      50.616  17.245  15.597  1.00  0.00    -0.101 NA
ENDBRANCH   3   5
TORSDOF 1
ENDMDL
MODEL 5
REMARK VINA RESULT: -2.299505295      1.567      3.348
REMARK  1 active torsions:
REMARK  status: ('A' for Active; 'I' for Inactive)
REMARK    1  A    between atoms: N2_3  and  C2_5 
ROOT
HETATM    1  N1  UNL     1      60.123  22.962  25.895  1.00  0.00    -0.097 NA
HETATM    2  C1  UNL     1      59.580  23.145  24.593  1.00  0.00     0.187 C 
HETATM    3  N2  UNL     1      58.332  23.322  24.491  1.00  0.00    -0.355 N 
ATOM      4  H2  UNL     1      57.754  23.329  25.331  1.00  0.00     0.162 HD
ENDROOT
BRANCH   3   5
HETATM    5  C2  UNL     1      57.718  23.514  23.207  1.00  0.00     0.304 A 
HETATM    6  N3  UNL     1      58.589  24.079  22.207  1.00  0.00    -0.101 NA
HETATM    7  N4  UNL     1      57.576  24.888  22.732  1.00  0.00    -0.101 NA
ENDBRANCH   3   5
TORSDOF 1
ENDMDL
