MODEL 1
REMARK VINA RESULT: -3.627832996      0.000      0.000
REMARK  2 active torsions:
REMARK  status: ('A' for Active; 'I' for Inactive)
REMARK    1  A    between atoms: C1_4  and  N2_5 
REMARK    2  A    between atoms: N2_5  and  C2_7 
ROOT
HETATM    1  N2  UNL     1      53.703  18.034  18.330  1.00  0.00    -0.322 N 
ATOM      2  H2  UNL     1      53.599  18.101  17.318  1.00  0.00     0.169 HD
ENDROOT
BRANCH   1   3
HETATM    3  C1  UNL     1      54.961  18.324  18.938  1.00  0.00     0.176 C 
HETATM    4  N1  UNL     1      55.917  18.701  18.158  1.00  0.00    -0.395 N 
ATOM      5  H12 UNL     1      55.764  18.782  17.153  1.00  0.00     0.156 HD
ATOM      6  H11 UNL     1      56.816  18.908  18.593  1.00  0.00     0.156 HD
ENDBRANCH   1   3
BRANCH   1   7
HETATM    7  C2  UNL     1      52.620  17.660  19.115  1.00  0.00     0.214 A 
HETATM    8  N3  UNL     1      51.243  17.335  18.800  1.00  0.00    -0.267 N 
HETATM    9  N4  UNL     1      51.702  17.304  20.114  1.00  0.00    -0.267 N 
ATOM     10  H3  UNL     1      50.493  17.217  18.119  1.00  0.00     0.190 HD
ATOM     11  H4  UNL     1      51.509  17.140  21.102  1.00  0.00     0.190 HD
ENDBRANCH   1   7
TORSDOF 2
ENDMDL
MODEL 2
REMARK VINA RESULT: -3.610143698      0.855      1.144
REMARK  2 active torsions:
REMARK  status: ('A' for Active; 'I' for Inactive)
REMARK    1  A    between atoms: C1_4  and  N2_5 
REMARK    2  A    between atoms: N2_5  and  C2_7 
ROOT
HETATM    1  N2  UNL     1      53.726  17.739  19.926  1.00  0.00    -0.322 N 
ATOM      2  H2  UNL     1      53.980  17.324  20.822  1.00  0.00     0.169 HD
ENDROOT
BRANCH   1   3
HETATM    3  C1  UNL     1      54.680  18.521  19.208  1.00  0.00     0.176 C 
HETATM    4  N1  UNL     1      55.133  18.026  18.106  1.00  0.00    -0.395 N 
ATOM      5  H12 UNL     1      54.813  17.115  17.777  1.00  0.00     0.156 HD
ATOM      6  H11 UNL     1      55.814  18.585  17.592  1.00  0.00     0.156 HD
ENDBRANCH   1   3
BRANCH   1   7
HETATM    7  C2  UNL     1      52.453  17.544  19.406  1.00  0.00     0.214 A 
HETATM    8  N3  UNL     1      51.232  17.006  19.973  1.00  0.00    -0.267 N 
HETATM    9  N4  UNL     1      51.273  17.452  18.654  1.00  0.00    -0.267 N 
ATOM     10  H3  UNL     1      50.722  16.601  20.757  1.00  0.00     0.190 HD
ATOM     11  H4  UNL     1      50.789  17.604  17.769  1.00  0.00     0.190 HD
ENDBRANCH   1   7
TORSDOF 2
ENDMDL
MODEL 3
REMARK VINA RESULT: -3.560874651      1.004      1.070
REMARK  2 active torsions:
REMARK  status: ('A' for Active; 'I' for Inactive)
REMARK    1  A    between atoms: C1_4  and  N2_5 
REMARK    2  A    between atoms: N2_5  and  C2_7 
ROOT
HETATM    1  N2  UNL     1      53.695  18.013  18.465  1.00  0.00    -0.322 N 
ATOM      2  H2  UNL     1      53.689  18.084  17.447  1.00  0.00     0.169 HD
ENDROOT
BRANCH   1   3
HETATM    3  C1  UNL     1      54.893  18.284  19.190  1.00  0.00     0.176 C 
HETATM    4  N1  UNL     1      54.941  17.878  20.415  1.00  0.00    -0.395 N 
ATOM      5  H12 UNL     1      54.149  17.388  20.830  1.00  0.00     0.156 HD
ATOM      6  H11 UNL     1      55.798  18.071  20.933  1.00  0.00     0.156 HD
ENDBRANCH   1   3
BRANCH   1   7
HETATM    7  C2  UNL     1      52.536  17.653  19.142  1.00  0.00     0.214 A 
HETATM    8  N3  UNL     1      51.195  17.336  18.695  1.00  0.00    -0.267 N 
HETATM    9  N4  UNL     1      51.522  17.313  20.049  1.00  0.00    -0.267 N 
ATOM     10  H3  UNL     1      50.515  17.217  17.944  1.00  0.00     0.190 HD
ATOM     11  H4  UNL     1      51.231  17.158  21.014  1.00  0.00     0.190 HD
ENDBRANCH   1   7
TORSDOF 2
ENDMDL
MODEL 4
REMARK VINA RESULT: -3.550105369     12.527     13.346
REMARK  2 active torsions:
REMARK  status: ('A' for Active; 'I' for Inactive)
REMARK    1  A    between atoms: C1_4  and  N2_5 
REMARK    2  A    between atoms: N2_5  and  C2_7 
ROOT
HETATM    1  N2  UNL     1      60.263  24.023  27.309  1.00  0.00    -0.322 N 
ATOM      2  H2  UNL     1      59.473  24.507  26.884  1.00  0.00     0.169 HD
ENDROOT
BRANCH   1   3
HETATM    3  C1  UNL     1      61.221  23.361  26.484  1.00  0.00     0.176 C 
HETATM    4  N1  UNL     1      62.466  23.525  26.784  1.00  0.00    -0.395 N 
ATOM      5  H12 UNL     1      62.736  24.105  27.578  1.00  0.00     0.156 HD
ATOM      6  H11 UNL     1      63.150  23.052  26.194  1.00  0.00     0.156 HD
ENDBRANCH   1   3
BRANCH   1   7
HETATM    7  C2  UNL     1      60.405  24.007  28.692  1.00  0.00     0.214 A 
HETATM    8  N3  UNL     1      59.701  23.302  29.744  1.00  0.00    -0.267 N 
HETATM    9  N4  UNL     1      60.751  24.169  30.041  1.00  0.00    -0.267 N 
ATOM     10  H3  UNL     1      58.975  22.652  30.044  1.00  0.00     0.190 HD
ATOM     11  H4  UNL     1      61.347  24.609  30.742  1.00  0.00     0.190 HD
ENDBRANCH   1   7
TORSDOF 2
ENDMDL
MODEL 5
REMARK VINA RESULT: -3.393002978      1.336      3.831
REMARK  2 active torsions:
REMARK  status: ('A' for Active; 'I' for Inactive)
REMARK    1  A    between atoms: C1_4  and  N2_5 
REMARK    2  A    between atoms: N2_5  and  C2_7 
ROOT
HETATM    1  N2  UNL     1      52.067  17.831  19.779  1.00  0.00    -0.322 N 
ATOM      2  H2  UNL     1      51.652  18.668  20.188  1.00  0.00     0.169 HD
ENDROOT
BRANCH   1   3
HETATM    3  C1  UNL     1      51.342  16.602  19.781  1.00  0.00     0.176 C 
HETATM    4  N1  UNL     1      50.367  16.498  20.620  1.00  0.00    -0.395 N 
ATOM      5  H12 UNL     1      50.138  17.269  21.247  1.00  0.00     0.156 HD
ATOM      6  H11 UNL     1      49.849  15.619  20.621  1.00  0.00     0.156 HD
ENDBRANCH   1   3
BRANCH   1   7
HETATM    7  C2  UNL     1      53.339  17.888  19.221  1.00  0.00     0.214 A 
HETATM    8  N3  UNL     1      54.660  18.026  19.800  1.00  0.00    -0.267 N 
HETATM    9  N4  UNL     1      54.490  17.921  18.422  1.00  0.00    -0.267 N 
ATOM     10  H3  UNL     1      55.266  18.125  20.614  1.00  0.00     0.190 HD
ATOM     11  H4  UNL     1      54.906  17.890  17.491  1.00  0.00     0.190 HD
ENDBRANCH   1   7
TORSDOF 2
ENDMDL
