MODEL 1
REMARK VINA RESULT: -3.638967422      0.000      0.000
REMARK  2 active torsions:
REMARK  status: ('A' for Active; 'I' for Inactive)
REMARK    1  A    between atoms: N1_1  and  N2_4 
REMARK    2  A    between atoms: N3_6  and  C1_8 
ROOT
HETATM    1  C1  UNL     1      52.302  18.036  18.829  1.00  0.00     0.217 C 
HETATM    2  C2  UNL     1      51.353  17.471  17.787  1.00  0.00     0.168 C 
HETATM    3  N4  UNL     1      50.450  16.682  18.561  1.00  0.00    -0.383 N 
ATOM      4  H4  UNL     1      49.579  16.292  18.200  1.00  0.00     0.160 HD
HETATM    5  C3  UNL     1      50.861  16.520  19.761  1.00  0.00     0.173 C 
HETATM    6  N5  UNL     1      52.100  17.177  19.972  1.00  0.00    -0.363 N 
ATOM      7  H5  UNL     1      52.724  17.065  20.771  1.00  0.00     0.162 HD
ENDROOT
BRANCH   1   8
HETATM    8  N3  UNL     1      53.654  17.940  18.384  1.00  0.00    -0.298 N 
HETATM    9  N2  UNL     1      54.551  18.786  18.599  1.00  0.00    -0.252 N 
ATOM     10  H2  UNL     1      54.371  19.640  19.127  1.00  0.00     0.207 HD
ATOM     11  H3  UNL     1      53.912  17.112  17.848  1.00  0.00     0.184 HD
BRANCH   9  12
HETATM   12  N1  UNL     1      55.828  18.493  18.066  1.00  0.00    -0.331 N 
ATOM     13  H12 UNL     1      56.053  18.707  17.094  1.00  0.00     0.178 HD
ATOM     14  H11 UNL     1      56.495  18.062  18.706  1.00  0.00     0.178 HD
ENDBRANCH   9  12
ENDBRANCH   1   8
TORSDOF 2
ENDMDL
MODEL 2
REMARK VINA RESULT: -3.051406846      1.044      1.111
REMARK  2 active torsions:
REMARK  status: ('A' for Active; 'I' for Inactive)
REMARK    1  A    between atoms: N1_1  and  N2_4 
REMARK    2  A    between atoms: N3_6  and  C1_8 
ROOT
HETATM    1  C1  UNL     1      51.788  17.979  18.140  1.00  0.00     0.217 C 
HETATM    2  C2  UNL     1      51.196  17.696  16.771  1.00  0.00     0.168 C 
HETATM    3  N4  UNL     1      50.084  16.852  17.064  1.00  0.00    -0.383 N 
ATOM      4  H4  UNL     1      49.359  16.608  16.388  1.00  0.00     0.160 HD
HETATM    5  C3  UNL     1      50.101  16.438  18.273  1.00  0.00     0.173 C 
HETATM    6  N5  UNL     1      51.226  16.942  18.973  1.00  0.00    -0.363 N 
ATOM      7  H5  UNL     1      51.570  16.634  19.882  1.00  0.00     0.162 HD
ENDROOT
BRANCH   1   8
HETATM    8  N3  UNL     1      53.209  17.859  18.110  1.00  0.00    -0.298 N 
HETATM    9  N2  UNL     1      54.016  18.640  18.662  1.00  0.00    -0.252 N 
ATOM     10  H2  UNL     1      53.702  19.453  19.193  1.00  0.00     0.207 HD
ATOM     11  H3  UNL     1      53.601  17.069  17.597  1.00  0.00     0.184 HD
BRANCH   9  12
HETATM   12  N1  UNL     1      55.389  18.335  18.507  1.00  0.00    -0.331 N 
ATOM     13  H12 UNL     1      55.704  17.687  17.784  1.00  0.00     0.178 HD
ATOM     14  H11 UNL     1      56.029  18.795  19.154  1.00  0.00     0.178 HD
ENDBRANCH   9  12
ENDBRANCH   1   8
TORSDOF 2
ENDMDL
MODEL 3
REMARK VINA RESULT: -2.897424098      2.154      3.280
REMARK  2 active torsions:
REMARK  status: ('A' for Active; 'I' for Inactive)
REMARK    1  A    between atoms: N1_1  and  N2_4 
REMARK    2  A    between atoms: N3_6  and  C1_8 
ROOT
HETATM    1  C1  UNL     1      51.745  17.344  17.720  1.00  0.00     0.217 C 
HETATM    2  C2  UNL     1      52.558  17.917  18.867  1.00  0.00     0.168 C 
HETATM    3  N4  UNL     1      51.982  17.298  20.017  1.00  0.00    -0.383 N 
ATOM      4  H4  UNL     1      52.398  17.328  20.948  1.00  0.00     0.160 HD
HETATM    5  C3  UNL     1      50.886  16.701  19.742  1.00  0.00     0.173 C 
HETATM    6  N5  UNL     1      50.562  16.829  18.368  1.00  0.00    -0.363 N 
ATOM      7  H5  UNL     1      49.671  16.603  17.925  1.00  0.00     0.162 HD
ENDROOT
BRANCH   1   8
HETATM    8  N3  UNL     1      51.383  18.369  16.796  1.00  0.00    -0.298 N 
HETATM    9  N2  UNL     1      50.221  18.787  16.594  1.00  0.00    -0.252 N 
ATOM     10  H2  UNL     1      49.417  18.409  17.095  1.00  0.00     0.207 HD
ATOM     11  H3  UNL     1      52.135  18.798  16.256  1.00  0.00     0.184 HD
BRANCH   9  12
HETATM   12  N1  UNL     1      50.085  19.815  15.631  1.00  0.00    -0.331 N 
ATOM     13  H12 UNL     1      50.433  20.756  15.815  1.00  0.00     0.178 HD
ATOM     14  H11 UNL     1      49.625  19.556  14.758  1.00  0.00     0.178 HD
ENDBRANCH   9  12
ENDBRANCH   1   8
TORSDOF 2
ENDMDL
MODEL 4
REMARK VINA RESULT: -2.847406074     13.195     14.275
REMARK  2 active torsions:
REMARK  status: ('A' for Active; 'I' for Inactive)
REMARK    1  A    between atoms: N1_1  and  N2_4 
REMARK    2  A    between atoms: N3_6  and  C1_8 
ROOT
HETATM    1  C1  UNL     1      61.204  23.304  27.717  1.00  0.00     0.217 C 
HETATM    2  C2  UNL     1      61.263  23.908  29.108  1.00  0.00     0.168 C 
HETATM    3  N4  UNL     1      59.951  24.440  29.289  1.00  0.00    -0.383 N 
ATOM      4  H4  UNL     1      59.588  24.771  30.184  1.00  0.00     0.160 HD
HETATM    5  C3  UNL     1      59.284  24.453  28.199  1.00  0.00     0.173 C 
HETATM    6  N5  UNL     1      60.047  23.931  27.124  1.00  0.00    -0.363 N 
ATOM      7  H5  UNL     1      59.823  23.988  26.130  1.00  0.00     0.162 HD
ENDROOT
BRANCH   1   8
HETATM    8  N3  UNL     1      62.373  23.641  26.971  1.00  0.00    -0.298 N 
HETATM    9  N2  UNL     1      63.512  23.833  27.453  1.00  0.00    -0.252 N 
ATOM     10  H2  UNL     1      63.693  23.759  28.454  1.00  0.00     0.207 HD
ATOM     11  H3  UNL     1      62.271  23.733  25.960  1.00  0.00     0.184 HD
BRANCH   9  12
HETATM   12  N1  UNL     1      64.534  24.158  26.531  1.00  0.00    -0.331 N 
ATOM     13  H12 UNL     1      64.491  23.836  25.564  1.00  0.00     0.178 HD
ATOM     14  H11 UNL     1      65.303  24.723  26.892  1.00  0.00     0.178 HD
ENDBRANCH   9  12
ENDBRANCH   1   8
TORSDOF 2
ENDMDL
MODEL 5
REMARK VINA RESULT: -2.661332255      1.249      2.211
REMARK  2 active torsions:
REMARK  status: ('A' for Active; 'I' for Inactive)
REMARK    1  A    between atoms: N1_1  and  N2_4 
REMARK    2  A    between atoms: N3_6  and  C1_8 
ROOT
HETATM    1  C1  UNL     1      54.173  17.640  18.659  1.00  0.00     0.217 C 
HETATM    2  C2  UNL     1      53.551  17.703  20.043  1.00  0.00     0.168 C 
HETATM    3  N4  UNL     1      52.150  17.648  19.774  1.00  0.00    -0.383 N 
ATOM      4  H4  UNL     1      51.438  17.499  20.490  1.00  0.00     0.160 HD
HETATM    5  C3  UNL     1      51.893  17.807  18.532  1.00  0.00     0.173 C 
HETATM    6  N5  UNL     1      53.081  17.991  17.781  1.00  0.00    -0.363 N 
ATOM      7  H5  UNL     1      53.151  18.308  16.814  1.00  0.00     0.162 HD
ENDROOT
BRANCH   1   8
HETATM    8  N3  UNL     1      55.222  18.599  18.533  1.00  0.00    -0.298 N 
HETATM    9  N2  UNL     1      56.294  18.424  17.912  1.00  0.00    -0.252 N 
ATOM     10  H2  UNL     1      56.503  17.548  17.433  1.00  0.00     0.207 HD
ATOM     11  H3  UNL     1      55.086  19.502  18.987  1.00  0.00     0.184 HD
BRANCH   9  12
HETATM   12  N1  UNL     1      57.201  19.510  17.912  1.00  0.00    -0.331 N 
ATOM     13  H12 UNL     1      56.907  20.439  18.213  1.00  0.00     0.178 HD
ATOM     14  H11 UNL     1      58.150  19.305  17.598  1.00  0.00     0.178 HD
ENDBRANCH   9  12
ENDBRANCH   1   8
TORSDOF 2
ENDMDL
