MODEL 1
REMARK VINA RESULT: -6.212823493      0.000      0.000
REMARK  14 active torsions:
REMARK  status: ('A' for Active; 'I' for Inactive)
REMARK    1  A    between atoms: C3_4  and  O2_5 
REMARK    2  A    between atoms: O2_5  and  C4_6 
REMARK    3  A    between atoms: C5_7  and  O3_8 
REMARK    4  A    between atoms: O3_8  and  C6_9 
REMARK    5  A    between atoms: C9_13  and  O5_14 
REMARK    6  A    between atoms: C10_16  and  O6_17 
REMARK    7  A    between atoms: C11_20  and  O8_21 
REMARK    8  A    between atoms: O8_21  and  C12_22 
REMARK    9  A    between atoms: C12_22  and  O9_23 
REMARK   10  A    between atoms: C12_22  and  O10_25 
REMARK   11  A    between atoms: C13_27  and  O11_28 
REMARK   12  A    between atoms: C14_30  and  O12_31 
REMARK   13  A    between atoms: C15_33  and  O13_34 
REMARK   14  A    between atoms: C16_36  and  O14_37 
ROOT
HETATM    1  C4  UNL     1      16.873  64.827 -14.383  1.00  0.00     0.213 C 
HETATM    2  C5  UNL     1      17.811  63.732 -14.856  1.00  0.00     0.295 C 
HETATM    3  O7  UNL     1      18.977  64.044 -14.112  1.00  0.00    -0.326 OA
HETATM    4  C11 UNL     1      19.219  65.382 -14.370  1.00  0.00     0.299 C 
HETATM    5  C13 UNL     1      17.822  65.981 -14.182  1.00  0.00     0.207 C 
ENDROOT
BRANCH   1   6
HETATM    6  O2  UNL     1      15.917  65.000 -15.321  1.00  0.00    -0.346 OA
BRANCH   6   7
HETATM    7  C3  UNL     1      14.706  64.413 -15.114  1.00  0.00     0.292 C 
HETATM    8  O1  UNL     1      13.872  65.361 -14.521  1.00  0.00    -0.351 OA
HETATM    9  C2  UNL     1      12.800  64.787 -13.864  1.00  0.00     0.152 C 
HETATM   10  C1  UNL     1      11.761  65.833 -13.529  1.00  0.00     0.042 C 
HETATM   11  C16 UNL     1      12.147  63.720 -14.674  1.00  0.00     0.178 C 
HETATM   12  C15 UNL     1      12.472  63.938 -16.135  1.00  0.00     0.183 C 
HETATM   13  C14 UNL     1      13.995  63.929 -16.347  1.00  0.00     0.204 C 
BRANCH  11  14
HETATM   14  O14 UNL     1      12.521  62.453 -14.257  1.00  0.00    -0.390 OA
ATOM     15  H14 UNL     1      12.124  61.773 -14.789  1.00  0.00     0.210 HD
ENDBRANCH  11  14
BRANCH  12  16
HETATM   16  O13 UNL     1      11.913  65.126 -16.577  1.00  0.00    -0.390 OA
ATOM     17  H13 UNL     1      11.331  65.495 -15.924  1.00  0.00     0.210 HD
ENDBRANCH  12  16
BRANCH  13  18
HETATM   18  O12 UNL     1      14.349  62.599 -16.551  1.00  0.00    -0.388 OA
ATOM     19  H12 UNL     1      15.156  62.585 -17.052  1.00  0.00     0.210 HD
ENDBRANCH  13  18
ENDBRANCH   6   7
ENDBRANCH   1   6
BRANCH   2  20
HETATM   20  O3  UNL     1      18.151  63.811 -16.157  1.00  0.00    -0.348 OA
BRANCH  20  21
HETATM   21  C6  UNL     1      18.096  62.721 -16.934  1.00  0.00     0.179 C 
HETATM   22  C7  UNL     1      19.387  62.073 -17.314  1.00  0.00     0.202 C 
HETATM   23  O4  UNL     1      19.082  61.094 -18.276  1.00  0.00    -0.386 OA
HETATM   24  C8  UNL     1      18.979  61.768 -19.508  1.00  0.00     0.201 C 
HETATM   25  C9  UNL     1      18.338  63.122 -19.337  1.00  0.00     0.173 C 
HETATM   26  C10 UNL     1      17.333  63.015 -18.207  1.00  0.00     0.180 C 
BRANCH  25  27
HETATM   27  O5  UNL     1      17.734  63.549 -20.521  1.00  0.00    -0.391 OA
ATOM     28  H5  UNL     1      17.727  64.497 -20.581  1.00  0.00     0.210 HD
ENDBRANCH  25  27
BRANCH  26  29
HETATM   29  O6  UNL     1      16.436  61.977 -18.508  1.00  0.00    -0.390 OA
ATOM     30  H6  UNL     1      16.900  61.191 -18.774  1.00  0.00     0.210 HD
ENDBRANCH  26  29
ENDBRANCH  20  21
ENDBRANCH   2  20
BRANCH   5  31
HETATM   31  O11 UNL     1      17.774  66.386 -12.842  1.00  0.00    -0.388 OA
ATOM     32  H11 UNL     1      18.028  67.299 -12.784  1.00  0.00     0.210 HD
ENDBRANCH   5  31
BRANCH   4  33
HETATM   33  O8  UNL     1      19.696  65.542 -15.646  1.00  0.00    -0.306 OA
BRANCH  33  34
HETATM   34  C12 UNL     1      21.058  65.833 -15.691  1.00  0.00     0.410 C 
BRANCH  34  35
HETATM   35  O9  UNL     1      21.358  67.082 -15.162  1.00  0.00    -0.350 OA
ATOM     36  H9  UNL     1      22.044  67.047 -14.506  1.00  0.00     0.215 HD
ENDBRANCH  34  35
BRANCH  34  37
HETATM   37  O10 UNL     1      21.721  64.888 -14.910  1.00  0.00    -0.350 OA
ATOM     38  H10 UNL     1      22.209  64.319 -15.494  1.00  0.00     0.215 HD
ENDBRANCH  34  37
ENDBRANCH  33  34
ENDBRANCH   4  33
TORSDOF 14
ENDMDL
MODEL 2
REMARK VINA RESULT: -6.034217617      0.872      1.434
REMARK  14 active torsions:
REMARK  status: ('A' for Active; 'I' for Inactive)
REMARK    1  A    between atoms: C3_4  and  O2_5 
REMARK    2  A    between atoms: O2_5  and  C4_6 
REMARK    3  A    between atoms: C5_7  and  O3_8 
REMARK    4  A    between atoms: O3_8  and  C6_9 
REMARK    5  A    between atoms: C9_13  and  O5_14 
REMARK    6  A    between atoms: C10_16  and  O6_17 
REMARK    7  A    between atoms: C11_20  and  O8_21 
REMARK    8  A    between atoms: O8_21  and  C12_22 
REMARK    9  A    between atoms: C12_22  and  O9_23 
REMARK   10  A    between atoms: C12_22  and  O10_25 
REMARK   11  A    between atoms: C13_27  and  O11_28 
REMARK   12  A    between atoms: C14_30  and  O12_31 
REMARK   13  A    between atoms: C15_33  and  O13_34 
REMARK   14  A    between atoms: C16_36  and  O14_37 
ROOT
HETATM    1  C4  UNL     1      16.918  64.909 -14.524  1.00  0.00     0.213 C 
HETATM    2  C5  UNL     1      17.829  63.932 -15.243  1.00  0.00     0.295 C 
HETATM    3  O7  UNL     1      19.047  64.148 -14.549  1.00  0.00    -0.326 OA
HETATM    4  C11 UNL     1      19.249  65.516 -14.599  1.00  0.00     0.299 C 
HETATM    5  C13 UNL     1      17.864  66.040 -14.208  1.00  0.00     0.207 C 
ENDROOT
BRANCH   1   6
HETATM    6  O2  UNL     1      15.887  65.209 -15.343  1.00  0.00    -0.346 OA
BRANCH   6   7
HETATM    7  C3  UNL     1      14.725  64.517 -15.187  1.00  0.00     0.292 C 
HETATM    8  O1  UNL     1      13.837  65.333 -14.486  1.00  0.00    -0.351 OA
HETATM    9  C2  UNL     1      12.821  64.616 -13.883  1.00  0.00     0.152 C 
HETATM   10  C1  UNL     1      11.717  65.543 -13.427  1.00  0.00     0.042 C 
HETATM   11  C16 UNL     1      12.230  63.597 -14.796  1.00  0.00     0.178 C 
HETATM   12  C15 UNL     1      12.512  63.992 -16.229  1.00  0.00     0.183 C 
HETATM   13  C14 UNL     1      14.027  64.116 -16.457  1.00  0.00     0.204 C 
BRANCH  11  14
HETATM   14  O14 UNL     1      12.701  62.323 -14.522  1.00  0.00    -0.390 OA
ATOM     15  H14 UNL     1      12.044  61.658 -14.694  1.00  0.00     0.210 HD
ENDBRANCH  11  14
BRANCH  12  16
HETATM   16  O13 UNL     1      11.861  65.177 -16.535  1.00  0.00    -0.390 OA
ATOM     17  H13 UNL     1      12.380  65.709 -17.126  1.00  0.00     0.210 HD
ENDBRANCH  12  16
BRANCH  13  18
HETATM   18  O12 UNL     1      14.471  62.844 -16.807  1.00  0.00    -0.388 OA
ATOM     19  H12 UNL     1      13.708  62.296 -16.945  1.00  0.00     0.210 HD
ENDBRANCH  13  18
ENDBRANCH   6   7
ENDBRANCH   1   6
BRANCH   2  20
HETATM   20  O3  UNL     1      18.063  64.232 -16.535  1.00  0.00    -0.348 OA
BRANCH  20  21
HETATM   21  C6  UNL     1      18.198  63.254 -17.438  1.00  0.00     0.179 C 
HETATM   22  C7  UNL     1      17.870  61.862 -17.009  1.00  0.00     0.202 C 
HETATM   23  O4  UNL     1      18.279  61.008 -18.050  1.00  0.00    -0.386 OA
HETATM   24  C8  UNL     1      19.662  60.809 -17.879  1.00  0.00     0.201 C 
HETATM   25  C9  UNL     1      20.340  62.068 -17.401  1.00  0.00     0.173 C 
HETATM   26  C10 UNL     1      19.601  63.245 -18.006  1.00  0.00     0.180 C 
BRANCH  25  27
HETATM   27  O5  UNL     1      21.692  62.077 -17.748  1.00  0.00    -0.391 OA
ATOM     28  H5  UNL     1      22.124  62.860 -17.427  1.00  0.00     0.210 HD
ENDBRANCH  25  27
BRANCH  26  29
HETATM   29  O6  UNL     1      19.579  63.086 -19.401  1.00  0.00    -0.390 OA
ATOM     30  H6  UNL     1      20.284  62.519 -19.691  1.00  0.00     0.210 HD
ENDBRANCH  26  29
ENDBRANCH  20  21
ENDBRANCH   2  20
BRANCH   5  31
HETATM   31  O11 UNL     1      17.918  66.217 -12.819  1.00  0.00    -0.388 OA
ATOM     32  H11 UNL     1      18.792  66.005 -12.513  1.00  0.00     0.210 HD
ENDBRANCH   5  31
BRANCH   4  33
HETATM   33  O8  UNL     1      19.620  65.896 -15.863  1.00  0.00    -0.306 OA
BRANCH  33  34
HETATM   34  C12 UNL     1      20.984  66.159 -15.981  1.00  0.00     0.410 C 
BRANCH  34  35
HETATM   35  O9  UNL     1      21.419  67.139 -15.097  1.00  0.00    -0.350 OA
ATOM     36  H9  UNL     1      22.360  67.263 -15.122  1.00  0.00     0.215 HD
ENDBRANCH  34  35
BRANCH  34  37
HETATM   37  O10 UNL     1      21.672  64.989 -15.664  1.00  0.00    -0.350 OA
ATOM     38  H10 UNL     1      21.642  64.882 -14.720  1.00  0.00     0.215 HD
ENDBRANCH  34  37
ENDBRANCH  33  34
ENDBRANCH   4  33
TORSDOF 14
ENDMDL
MODEL 3
REMARK VINA RESULT: -5.905209819      1.316      1.646
REMARK  14 active torsions:
REMARK  status: ('A' for Active; 'I' for Inactive)
REMARK    1  A    between atoms: C3_4  and  O2_5 
REMARK    2  A    between atoms: O2_5  and  C4_6 
REMARK    3  A    between atoms: C5_7  and  O3_8 
REMARK    4  A    between atoms: O3_8  and  C6_9 
REMARK    5  A    between atoms: C9_13  and  O5_14 
REMARK    6  A    between atoms: C10_16  and  O6_17 
REMARK    7  A    between atoms: C11_20  and  O8_21 
REMARK    8  A    between atoms: O8_21  and  C12_22 
REMARK    9  A    between atoms: C12_22  and  O9_23 
REMARK   10  A    between atoms: C12_22  and  O10_25 
REMARK   11  A    between atoms: C13_27  and  O11_28 
REMARK   12  A    between atoms: C14_30  and  O12_31 
REMARK   13  A    between atoms: C15_33  and  O13_34 
REMARK   14  A    between atoms: C16_36  and  O14_37 
ROOT
HETATM    1  C4  UNL     1      17.695  64.452 -14.743  1.00  0.00     0.213 C 
HETATM    2  C5  UNL     1      18.985  63.747 -15.116  1.00  0.00     0.295 C 
HETATM    3  O7  UNL     1      19.909  64.429 -14.284  1.00  0.00    -0.326 OA
HETATM    4  C11 UNL     1      19.702  65.772 -14.546  1.00  0.00     0.299 C 
HETATM    5  C13 UNL     1      18.174  65.858 -14.485  1.00  0.00     0.207 C 
ENDROOT
BRANCH   1   6
HETATM    6  O2  UNL     1      16.819  64.300 -15.759  1.00  0.00    -0.346 OA
BRANCH   6   7
HETATM    7  C3  UNL     1      15.744  63.488 -15.560  1.00  0.00     0.292 C 
HETATM    8  O1  UNL     1      14.775  64.228 -14.884  1.00  0.00    -0.351 OA
HETATM    9  C2  UNL     1      13.851  63.428 -14.238  1.00  0.00     0.152 C 
HETATM   10  C1  UNL     1      12.652  64.242 -13.809  1.00  0.00     0.042 C 
HETATM   11  C16 UNL     1      13.374  62.309 -15.100  1.00  0.00     0.178 C 
HETATM   12  C15 UNL     1      13.598  62.670 -16.551  1.00  0.00     0.183 C 
HETATM   13  C14 UNL     1      15.088  62.955 -16.803  1.00  0.00     0.204 C 
BRANCH  11  14
HETATM   14  O14 UNL     1      13.988  61.110 -14.777  1.00  0.00    -0.390 OA
ATOM     15  H14 UNL     1      13.774  60.828 -13.895  1.00  0.00     0.210 HD
ENDBRANCH  11  14
BRANCH  12  16
HETATM   16  O13 UNL     1      12.815  63.759 -16.899  1.00  0.00    -0.390 OA
ATOM     17  H13 UNL     1      12.710  64.354 -16.167  1.00  0.00     0.210 HD
ENDBRANCH  12  16
BRANCH  13  18
HETATM   18  O12 UNL     1      15.671  61.728 -17.104  1.00  0.00    -0.388 OA
ATOM     19  H12 UNL     1      15.071  61.044 -16.830  1.00  0.00     0.210 HD
ENDBRANCH  13  18
ENDBRANCH   6   7
ENDBRANCH   1   6
BRANCH   2  20
HETATM   20  O3  UNL     1      19.386  63.950 -16.386  1.00  0.00    -0.348 OA
BRANCH  20  21
HETATM   21  C6  UNL     1      19.995  62.970 -17.065  1.00  0.00     0.179 C 
HETATM   22  C7  UNL     1      20.729  63.340 -18.311  1.00  0.00     0.202 C 
HETATM   23  O4  UNL     1      21.100  62.136 -18.938  1.00  0.00    -0.386 OA
HETATM   24  C8  UNL     1      19.969  61.697 -19.652  1.00  0.00     0.201 C 
HETATM   25  C9  UNL     1      18.698  61.988 -18.895  1.00  0.00     0.173 C 
HETATM   26  C10 UNL     1      19.009  61.876 -17.416  1.00  0.00     0.180 C 
BRANCH  25  27
HETATM   27  O5  UNL     1      17.674  61.116 -19.271  1.00  0.00    -0.391 OA
ATOM     28  H5  UNL     1      17.153  60.854 -18.521  1.00  0.00     0.210 HD
ENDBRANCH  25  27
BRANCH  26  29
HETATM   29  O6  UNL     1      19.557  60.606 -17.172  1.00  0.00    -0.390 OA
ATOM     30  H6  UNL     1      20.362  60.482 -17.662  1.00  0.00     0.210 HD
ENDBRANCH  26  29
ENDBRANCH  20  21
ENDBRANCH   2  20
BRANCH   5  31
HETATM   31  O11 UNL     1      17.880  66.208 -13.161  1.00  0.00    -0.388 OA
ATOM     32  H11 UNL     1      17.494  65.460 -12.721  1.00  0.00     0.210 HD
ENDBRANCH   5  31
BRANCH   4  33
HETATM   33  O8  UNL     1      20.203  66.098 -15.780  1.00  0.00    -0.306 OA
BRANCH  33  34
HETATM   34  C12 UNL     1      21.561  66.405 -15.760  1.00  0.00     0.410 C 
BRANCH  34  35
HETATM   35  O9  UNL     1      21.869  67.416 -14.858  1.00  0.00    -0.350 OA
ATOM     36  H9  UNL     1      22.341  68.136 -15.260  1.00  0.00     0.215 HD
ENDBRANCH  34  35
BRANCH  34  37
HETATM   37  O10 UNL     1      22.249  65.265 -15.346  1.00  0.00    -0.350 OA
ATOM     38  H10 UNL     1      22.879  65.046 -16.022  1.00  0.00     0.215 HD
ENDBRANCH  34  37
ENDBRANCH  33  34
ENDBRANCH   4  33
TORSDOF 14
ENDMDL
MODEL 4
REMARK VINA RESULT: -5.893639260      1.713      6.525
REMARK  14 active torsions:
REMARK  status: ('A' for Active; 'I' for Inactive)
REMARK    1  A    between atoms: C3_4  and  O2_5 
REMARK    2  A    between atoms: O2_5  and  C4_6 
REMARK    3  A    between atoms: C5_7  and  O3_8 
REMARK    4  A    between atoms: O3_8  and  C6_9 
REMARK    5  A    between atoms: C9_13  and  O5_14 
REMARK    6  A    between atoms: C10_16  and  O6_17 
REMARK    7  A    between atoms: C11_20  and  O8_21 
REMARK    8  A    between atoms: O8_21  and  C12_22 
REMARK    9  A    between atoms: C12_22  and  O9_23 
REMARK   10  A    between atoms: C12_22  and  O10_25 
REMARK   11  A    between atoms: C13_27  and  O11_28 
REMARK   12  A    between atoms: C14_30  and  O12_31 
REMARK   13  A    between atoms: C15_33  and  O13_34 
REMARK   14  A    between atoms: C16_36  and  O14_37 
ROOT
HETATM    1  C4  UNL     1      18.970  65.241 -14.895  1.00  0.00     0.213 C 
HETATM    2  C5  UNL     1      18.054  64.880 -16.049  1.00  0.00     0.295 C 
HETATM    3  O7  UNL     1      16.849  65.502 -15.634  1.00  0.00    -0.326 OA
HETATM    4  C11 UNL     1      16.632  65.038 -14.349  1.00  0.00     0.299 C 
HETATM    5  C13 UNL     1      18.019  65.216 -13.726  1.00  0.00     0.207 C 
ENDROOT
BRANCH   1   6
HETATM    6  O2  UNL     1      19.980  64.345 -14.858  1.00  0.00    -0.346 OA
BRANCH   6   7
HETATM    7  C3  UNL     1      21.237  64.787 -15.140  1.00  0.00     0.292 C 
HETATM    8  O1  UNL     1      21.888  63.781 -15.854  1.00  0.00    -0.351 OA
HETATM    9  C2  UNL     1      23.264  63.905 -15.809  1.00  0.00     0.152 C 
HETATM   10  C1  UNL     1      23.911  63.017 -16.847  1.00  0.00     0.042 C 
HETATM   11  C16 UNL     1      23.712  65.306 -16.047  1.00  0.00     0.178 C 
HETATM   12  C15 UNL     1      22.627  66.056 -16.788  1.00  0.00     0.183 C 
HETATM   13  C14 UNL     1      21.319  66.031 -15.981  1.00  0.00     0.204 C 
BRANCH  11  14
HETATM   14  O14 UNL     1      24.052  65.948 -14.867  1.00  0.00    -0.390 OA
ATOM     15  H14 UNL     1      23.347  65.918 -14.231  1.00  0.00     0.210 HD
ENDBRANCH  11  14
BRANCH  12  16
HETATM   16  O13 UNL     1      22.446  65.511 -18.049  1.00  0.00    -0.390 OA
ATOM     17  H13 UNL     1      22.127  66.163 -18.662  1.00  0.00     0.210 HD
ENDBRANCH  12  16
BRANCH  13  18
HETATM   18  O12 UNL     1      21.374  67.125 -15.122  1.00  0.00    -0.388 OA
ATOM     19  H12 UNL     1      22.282  67.260 -14.878  1.00  0.00     0.210 HD
ENDBRANCH  13  18
ENDBRANCH   6   7
ENDBRANCH   1   6
BRANCH   2  20
HETATM   20  O3  UNL     1      17.790  63.564 -16.163  1.00  0.00    -0.348 OA
BRANCH  20  21
HETATM   21  C6  UNL     1      17.822  62.973 -17.364  1.00  0.00     0.179 C 
HETATM   22  C7  UNL     1      17.923  61.484 -17.402  1.00  0.00     0.202 C 
HETATM   23  O4  UNL     1      18.141  61.125 -18.745  1.00  0.00    -0.386 OA
HETATM   24  C8  UNL     1      19.519  61.293 -18.981  1.00  0.00     0.201 C 
HETATM   25  C9  UNL     1      20.054  62.500 -18.251  1.00  0.00     0.173 C 
HETATM   26  C10 UNL     1      18.948  63.535 -18.203  1.00  0.00     0.180 C 
BRANCH  25  27
HETATM   27  O5  UNL     1      21.199  63.000 -18.873  1.00  0.00    -0.391 OA
ATOM     28  H5  UNL     1      21.954  62.947 -18.299  1.00  0.00     0.210 HD
ENDBRANCH  25  27
BRANCH  26  29
HETATM   29  O6  UNL     1      18.520  63.789 -19.517  1.00  0.00    -0.390 OA
ATOM     30  H6  UNL     1      17.667  64.205 -19.523  1.00  0.00     0.210 HD
ENDBRANCH  26  29
ENDBRANCH  20  21
ENDBRANCH   2  20
BRANCH   5  31
HETATM   31  O11 UNL     1      17.992  66.483 -13.129  1.00  0.00    -0.388 OA
ATOM     32  H11 UNL     1      17.132  66.632 -12.755  1.00  0.00     0.210 HD
ENDBRANCH   5  31
BRANCH   4  33
HETATM   33  O8  UNL     1      16.229  63.727 -14.379  1.00  0.00    -0.306 OA
BRANCH  33  34
HETATM   34  C12 UNL     1      14.864  63.576 -14.612  1.00  0.00     0.410 C 
BRANCH  34  35
HETATM   35  O9  UNL     1      14.148  64.745 -14.382  1.00  0.00    -0.350 OA
ATOM     36  H9  UNL     1      13.231  64.665 -14.616  1.00  0.00     0.215 HD
ENDBRANCH  34  35
BRANCH  34  37
HETATM   37  O10 UNL     1      14.694  63.251 -15.957  1.00  0.00    -0.350 OA
ATOM     38  H10 UNL     1      15.486  62.817 -16.251  1.00  0.00     0.215 HD
ENDBRANCH  34  37
ENDBRANCH  33  34
ENDBRANCH   4  33
TORSDOF 14
ENDMDL
MODEL 5
REMARK VINA RESULT: -5.860274974      3.509      7.312
REMARK  14 active torsions:
REMARK  status: ('A' for Active; 'I' for Inactive)
REMARK    1  A    between atoms: C3_4  and  O2_5 
REMARK    2  A    between atoms: O2_5  and  C4_6 
REMARK    3  A    between atoms: C5_7  and  O3_8 
REMARK    4  A    between atoms: O3_8  and  C6_9 
REMARK    5  A    between atoms: C9_13  and  O5_14 
REMARK    6  A    between atoms: C10_16  and  O6_17 
REMARK    7  A    between atoms: C11_20  and  O8_21 
REMARK    8  A    between atoms: O8_21  and  C12_22 
REMARK    9  A    between atoms: C12_22  and  O9_23 
REMARK   10  A    between atoms: C12_22  and  O10_25 
REMARK   11  A    between atoms: C13_27  and  O11_28 
REMARK   12  A    between atoms: C14_30  and  O12_31 
REMARK   13  A    between atoms: C15_33  and  O13_34 
REMARK   14  A    between atoms: C16_36  and  O14_37 
ROOT
HETATM    1  C4  UNL     1      22.361  63.047 -16.257  1.00  0.00     0.213 C 
HETATM    2  C5  UNL     1      23.366  64.061 -16.772  1.00  0.00     0.295 C 
HETATM    3  O7  UNL     1      24.333  63.202 -17.353  1.00  0.00    -0.326 OA
HETATM    4  C11 UNL     1      24.649  62.294 -16.358  1.00  0.00     0.299 C 
HETATM    5  C13 UNL     1      23.256  61.902 -15.856  1.00  0.00     0.207 C 
ENDROOT
BRANCH   1   6
HETATM    6  O2  UNL     1      21.651  63.622 -15.263  1.00  0.00    -0.346 OA
BRANCH   6   7
HETATM    7  C3  UNL     1      20.415  64.110 -15.561  1.00  0.00     0.292 C 
HETATM    8  O1  UNL     1      19.633  63.041 -16.000  1.00  0.00    -0.351 OA
HETATM    9  C2  UNL     1      18.541  63.452 -16.740  1.00  0.00     0.152 C 
HETATM   10  C1  UNL     1      17.557  62.317 -16.909  1.00  0.00     0.042 C 
HETATM   11  C16 UNL     1      17.830  64.599 -16.108  1.00  0.00     0.178 C 
HETATM   12  C15 UNL     1      18.152  64.628 -14.631  1.00  0.00     0.183 C 
HETATM   13  C14 UNL     1      19.670  64.745 -14.420  1.00  0.00     0.204 C 
BRANCH  11  14
HETATM   14  O14 UNL     1      18.146  65.802 -16.718  1.00  0.00    -0.390 OA
ATOM     15  H14 UNL     1      17.765  66.542 -16.259  1.00  0.00     0.210 HD
ENDBRANCH  11  14
BRANCH  12  16
HETATM   16  O13 UNL     1      17.646  63.498 -14.009  1.00  0.00    -0.390 OA
ATOM     17  H13 UNL     1      18.023  62.707 -14.376  1.00  0.00     0.210 HD
ENDBRANCH  12  16
BRANCH  13  18
HETATM   18  O12 UNL     1      19.958  66.107 -14.426  1.00  0.00    -0.388 OA
ATOM     19  H12 UNL     1      20.077  66.384 -13.525  1.00  0.00     0.210 HD
ENDBRANCH  13  18
ENDBRANCH   6   7
ENDBRANCH   1   6
BRANCH   2  20
HETATM   20  O3  UNL     1      23.999  64.760 -15.810  1.00  0.00    -0.348 OA
BRANCH  20  21
HETATM   21  C6  UNL     1      23.990  66.098 -15.836  1.00  0.00     0.179 C 
HETATM   22  C7  UNL     1      25.221  66.792 -16.321  1.00  0.00     0.202 C 
HETATM   23  O4  UNL     1      25.043  68.163 -16.065  1.00  0.00    -0.386 OA
HETATM   24  C8  UNL     1      25.382  68.361 -14.714  1.00  0.00     0.201 C 
HETATM   25  C9  UNL     1      24.934  67.199 -13.863  1.00  0.00     0.173 C 
HETATM   26  C10 UNL     1      23.656  66.653 -14.468  1.00  0.00     0.180 C 
BRANCH  25  27
HETATM   27  O5  UNL     1      24.748  67.588 -12.535  1.00  0.00    -0.391 OA
ATOM     28  H5  UNL     1      24.520  66.845 -11.988  1.00  0.00     0.210 HD
ENDBRANCH  25  27
BRANCH  26  29
HETATM   29  O6  UNL     1      22.726  67.702 -14.563  1.00  0.00    -0.390 OA
ATOM     30  H6  UNL     1      21.987  67.556 -13.984  1.00  0.00     0.210 HD
ENDBRANCH  26  29
ENDBRANCH  20  21
ENDBRANCH   2  20
BRANCH   5  31
HETATM   31  O11 UNL     1      22.906  60.765 -16.596  1.00  0.00    -0.388 OA
ATOM     32  H11 UNL     1      22.441  60.159 -16.033  1.00  0.00     0.210 HD
ENDBRANCH   5  31
BRANCH   4  33
HETATM   33  O8  UNL     1      25.411  62.896 -15.390  1.00  0.00    -0.306 OA
BRANCH  33  34
HETATM   34  C12 UNL     1      26.768  62.933 -15.702  1.00  0.00     0.410 C 
BRANCH  34  35
HETATM   35  O9  UNL     1      27.112  64.040 -16.468  1.00  0.00    -0.350 OA
ATOM     36  H9  UNL     1      28.029  64.274 -16.384  1.00  0.00     0.215 HD
ENDBRANCH  34  35
BRANCH  34  37
HETATM   37  O10 UNL     1      27.477  63.028 -14.505  1.00  0.00    -0.350 OA
ATOM     38  H10 UNL     1      27.087  63.726 -13.992  1.00  0.00     0.215 HD
ENDBRANCH  34  37
ENDBRANCH  33  34
ENDBRANCH   4  33
TORSDOF 14
ENDMDL
