MODEL 1
REMARK VINA RESULT: -6.100594698      0.000      0.000
REMARK  13 active torsions:
REMARK  status: ('A' for Active; 'I' for Inactive)
REMARK    1  A    between atoms: C2_3  and  N2_4 
REMARK    2  A    between atoms: C2_3  and  C12_31 
REMARK    3  A    between atoms: N2_4  and  C3_6 
REMARK    4  A    between atoms: C5_10  and  O1_11 
REMARK    5  A    between atoms: C6_13  and  O2_14 
REMARK    6  A    between atoms: C8_17  and  N4_18 
REMARK    7  A    between atoms: C8_17  and  O3_22 
REMARK    8  A    between atoms: C9_24  and  C10_25 
REMARK    9  A    between atoms: C10_25  and  O4_26 
REMARK   10  A    between atoms: C10_25  and  C11_28 
REMARK   11  A    between atoms: N5_33  and  C14_34 
REMARK   12  A    between atoms: C14_34  and  C15_35 
REMARK   13  A    between atoms: C15_35  and  C16_36 
ROOT
HETATM    1  N1  UNL     1      17.997  66.383 -13.100  1.00  0.00    -0.195 NA
HETATM    2  C1  UNL     1      18.003  65.468 -13.821  1.00  0.00     0.091 C 
HETATM    3  C2  UNL     1      18.011  64.302 -14.720  1.00  0.00     0.243 C 
ENDROOT
BRANCH   3   4
HETATM    4  N2  UNL     1      16.979  64.491 -15.710  1.00  0.00    -0.357 N 
ATOM      5  H2  UNL     1      17.124  65.089 -16.524  1.00  0.00     0.162 HD
BRANCH   4   6
HETATM    6  C3  UNL     1      15.737  63.798 -15.496  1.00  0.00     0.094 C 
HETATM    7  N3  UNL     1      15.123  63.873 -14.381  1.00  0.00    -0.376 N 
HETATM    8  C4  UNL     1      13.917  63.121 -14.366  1.00  0.00     0.163 C 
ATOM      9  H3  UNL     1      15.461  64.413 -13.585  1.00  0.00     0.160 HD
HETATM   10  C5  UNL     1      13.985  62.273 -15.625  1.00  0.00     0.122 C 
HETATM   11  C6  UNL     1      12.639  62.394 -16.294  1.00  0.00     0.160 C 
HETATM   12  C9  UNL     1      15.012  62.931 -16.490  1.00  0.00     0.145 C 
HETATM   13  C7  UNL     1      12.896  62.971 -17.658  1.00  0.00     0.104 C 
HETATM   14  C8  UNL     1      14.195  63.725 -17.455  1.00  0.00     0.245 C 
BRANCH  10  15
HETATM   15  O1  UNL     1      14.311  60.955 -15.284  1.00  0.00    -0.384 OA
ATOM     16  H1  UNL     1      15.216  60.783 -15.515  1.00  0.00     0.210 HD
ENDBRANCH  10  15
BRANCH  11  17
HETATM   17  O2  UNL     1      11.929  61.210 -16.287  1.00  0.00    -0.392 OA
ATOM     18  H2  UNL     1      11.668  60.932 -17.157  1.00  0.00     0.210 HD
ENDBRANCH  11  17
BRANCH  14  19
HETATM   19  N4  UNL     1      14.857  64.062 -18.671  1.00  0.00    -0.045 N 
ATOM     20  H43 UNL     1      14.689  63.350 -19.382  1.00  0.00     0.278 HD
ATOM     21  H42 UNL     1      14.404  64.859 -19.119  1.00  0.00     0.278 HD
ATOM     22  H41 UNL     1      15.857  64.231 -18.560  1.00  0.00     0.278 HD
ENDBRANCH  14  19
BRANCH  14  23
HETATM   23  O3  UNL     1      13.856  64.929 -16.825  1.00  0.00    -0.364 OA
ATOM     24  H3  UNL     1      14.519  65.559 -17.081  1.00  0.00     0.212 HD
ENDBRANCH  14  23
BRANCH  12  25
HETATM   25  C10 UNL     1      15.981  61.979 -17.134  1.00  0.00     0.242 C 
BRANCH  25  26
HETATM   26  O4  UNL     1      16.913  61.599 -16.101  1.00  0.00    -0.383 OA
ATOM     27  H4  UNL     1      16.934  60.649 -16.102  1.00  0.00     0.210 HD
ENDBRANCH  25  26
BRANCH  25  28
HETATM   28  C11 UNL     1      16.724  62.432 -18.287  1.00  0.00     0.204 C 
HETATM   29  O5  UNL     1      16.550  61.839 -19.412  1.00  0.00    -0.646 OA
HETATM   30  O6  UNL     1      17.633  63.458 -18.362  1.00  0.00    -0.646 OA
ENDBRANCH  25  28
ENDBRANCH  12  25
ENDBRANCH   4   6
ENDBRANCH   3   4
BRANCH   3  31
HETATM   31  C12 UNL     1      19.334  64.104 -15.288  1.00  0.00     0.081 A 
HETATM   32  C13 UNL     1      20.512  64.650 -14.835  1.00  0.00     0.141 A 
HETATM   33  N5  UNL     1      21.514  64.228 -15.627  1.00  0.00    -0.287 N 
HETATM   34  N6  UNL     1      20.970  63.450 -16.533  1.00  0.00    -0.241 N 
HETATM   35  N7  UNL     1      19.643  63.355 -16.354  1.00  0.00    -0.286 N 
ATOM     36  H6  UNL     1      21.487  62.980 -17.277  1.00  0.00     0.208 HD
ATOM     37  H7  UNL     1      18.993  62.813 -16.923  1.00  0.00     0.188 HD
BRANCH  33  38
HETATM   38  C14 UNL     1      22.931  64.531 -15.553  1.00  0.00     0.150 C 
BRANCH  38  39
HETATM   39  C15 UNL     1      23.192  65.994 -15.276  1.00  0.00     0.033 C 
BRANCH  39  40
HETATM   40  C16 UNL     1      24.682  66.174 -15.123  1.00  0.00     0.088 C 
HETATM   41  S1  UNL     1      24.945  67.162 -13.613  1.00  0.00    -0.098 SA
ENDBRANCH  39  40
ENDBRANCH  38  39
ENDBRANCH  33  38
ENDBRANCH   3  31
TORSDOF 13
ENDMDL
MODEL 2
REMARK VINA RESULT: -6.002585485      1.362      1.505
REMARK  13 active torsions:
REMARK  status: ('A' for Active; 'I' for Inactive)
REMARK    1  A    between atoms: C2_3  and  N2_4 
REMARK    2  A    between atoms: C2_3  and  C12_31 
REMARK    3  A    between atoms: N2_4  and  C3_6 
REMARK    4  A    between atoms: C5_10  and  O1_11 
REMARK    5  A    between atoms: C6_13  and  O2_14 
REMARK    6  A    between atoms: C8_17  and  N4_18 
REMARK    7  A    between atoms: C8_17  and  O3_22 
REMARK    8  A    between atoms: C9_24  and  C10_25 
REMARK    9  A    between atoms: C10_25  and  O4_26 
REMARK   10  A    between atoms: C10_25  and  C11_28 
REMARK   11  A    between atoms: N5_33  and  C14_34 
REMARK   12  A    between atoms: C14_34  and  C15_35 
REMARK   13  A    between atoms: C15_35  and  C16_36 
ROOT
HETATM    1  N1  UNL     1      18.030  66.362 -13.148  1.00  0.00    -0.195 NA
HETATM    2  C1  UNL     1      17.999  65.441 -13.861  1.00  0.00     0.091 C 
HETATM    3  C2  UNL     1      17.958  64.268 -14.750  1.00  0.00     0.243 C 
ENDROOT
BRANCH   3   4
HETATM    4  N2  UNL     1      16.916  64.478 -15.725  1.00  0.00    -0.357 N 
ATOM      5  H2  UNL     1      17.060  65.074 -16.541  1.00  0.00     0.162 HD
BRANCH   4   6
HETATM    6  C3  UNL     1      15.664  63.810 -15.492  1.00  0.00     0.094 C 
HETATM    7  N3  UNL     1      15.064  63.903 -14.371  1.00  0.00    -0.376 N 
HETATM    8  C4  UNL     1      13.844  63.173 -14.338  1.00  0.00     0.163 C 
ATOM      9  H3  UNL     1      15.420  64.443 -13.583  1.00  0.00     0.160 HD
HETATM   10  C5  UNL     1      13.883  62.316 -15.592  1.00  0.00     0.122 C 
HETATM   11  C6  UNL     1      12.532  62.457 -16.247  1.00  0.00     0.160 C 
HETATM   12  C9  UNL     1      14.913  62.949 -16.473  1.00  0.00     0.145 C 
HETATM   13  C7  UNL     1      12.784  63.020 -17.618  1.00  0.00     0.104 C 
HETATM   14  C8  UNL     1      14.099  63.752 -17.434  1.00  0.00     0.245 C 
BRANCH  10  15
HETATM   15  O1  UNL     1      14.189  60.995 -15.245  1.00  0.00    -0.384 OA
ATOM     16  H1  UNL     1      15.120  60.845 -15.357  1.00  0.00     0.210 HD
ENDBRANCH  10  15
BRANCH  11  17
HETATM   17  O2  UNL     1      11.801  61.286 -16.224  1.00  0.00    -0.392 OA
ATOM     18  H2  UNL     1      10.905  61.418 -15.935  1.00  0.00     0.210 HD
ENDBRANCH  11  17
BRANCH  14  19
HETATM   19  N4  UNL     1      14.753  64.068 -18.660  1.00  0.00    -0.045 N 
ATOM     20  H43 UNL     1      14.104  64.509 -19.311  1.00  0.00     0.278 HD
ATOM     21  H42 UNL     1      15.411  64.836 -18.528  1.00  0.00     0.278 HD
ATOM     22  H41 UNL     1      15.214  63.270 -19.097  1.00  0.00     0.278 HD
ENDBRANCH  14  19
BRANCH  14  23
HETATM   23  O3  UNL     1      13.789  64.966 -16.809  1.00  0.00    -0.364 OA
ATOM     24  H3  UNL     1      13.893  64.818 -15.876  1.00  0.00     0.212 HD
ENDBRANCH  14  23
BRANCH  12  25
HETATM   25  C10 UNL     1      15.856  61.975 -17.120  1.00  0.00     0.242 C 
BRANCH  25  26
HETATM   26  O4  UNL     1      16.794  61.587 -16.095  1.00  0.00    -0.383 OA
ATOM     27  H4  UNL     1      16.372  61.781 -15.266  1.00  0.00     0.210 HD
ENDBRANCH  25  26
BRANCH  25  28
HETATM   28  C11 UNL     1      16.594  62.407 -18.285  1.00  0.00     0.204 C 
HETATM   29  O5  UNL     1      16.407  61.799 -19.400  1.00  0.00    -0.646 OA
HETATM   30  O6  UNL     1      17.509  63.425 -18.382  1.00  0.00    -0.646 OA
ENDBRANCH  25  28
ENDBRANCH  12  25
ENDBRANCH   4   6
ENDBRANCH   3   4
BRANCH   3  31
HETATM   31  C12 UNL     1      19.265  64.028 -15.339  1.00  0.00     0.081 A 
HETATM   32  C13 UNL     1      20.473  64.496 -14.875  1.00  0.00     0.141 A 
HETATM   33  N5  UNL     1      21.447  64.058 -15.693  1.00  0.00    -0.287 N 
HETATM   34  N6  UNL     1      20.858  63.347 -16.626  1.00  0.00    -0.241 N 
HETATM   35  N7  UNL     1      19.529  63.310 -16.438  1.00  0.00    -0.286 N 
ATOM     36  H6  UNL     1      21.345  62.883 -17.393  1.00  0.00     0.208 HD
ATOM     37  H7  UNL     1      18.848  62.827 -17.023  1.00  0.00     0.188 HD
BRANCH  33  38
HETATM   38  C14 UNL     1      22.878  64.286 -15.620  1.00  0.00     0.150 C 
BRANCH  38  39
HETATM   39  C15 UNL     1      23.641  63.475 -16.645  1.00  0.00     0.033 C 
BRANCH  39  40
HETATM   40  C16 UNL     1      24.529  62.510 -15.897  1.00  0.00     0.088 C 
HETATM   41  S1  UNL     1      23.606  60.945 -15.752  1.00  0.00    -0.098 SA
ENDBRANCH  39  40
ENDBRANCH  38  39
ENDBRANCH  33  38
ENDBRANCH   3  31
TORSDOF 13
ENDMDL
MODEL 3
REMARK VINA RESULT: -5.985930871      2.429      3.959
REMARK  13 active torsions:
REMARK  status: ('A' for Active; 'I' for Inactive)
REMARK    1  A    between atoms: C2_3  and  N2_4 
REMARK    2  A    between atoms: C2_3  and  C12_31 
REMARK    3  A    between atoms: N2_4  and  C3_6 
REMARK    4  A    between atoms: C5_10  and  O1_11 
REMARK    5  A    between atoms: C6_13  and  O2_14 
REMARK    6  A    between atoms: C8_17  and  N4_18 
REMARK    7  A    between atoms: C8_17  and  O3_22 
REMARK    8  A    between atoms: C9_24  and  C10_25 
REMARK    9  A    between atoms: C10_25  and  O4_26 
REMARK   10  A    between atoms: C10_25  and  C11_28 
REMARK   11  A    between atoms: N5_33  and  C14_34 
REMARK   12  A    between atoms: C14_34  and  C15_35 
REMARK   13  A    between atoms: C15_35  and  C16_36 
ROOT
HETATM    1  N1  UNL     1      21.612  63.879 -19.628  1.00  0.00    -0.195 NA
HETATM    2  C1  UNL     1      21.046  64.406 -18.757  1.00  0.00     0.091 C 
HETATM    3  C2  UNL     1      20.327  65.083 -17.665  1.00  0.00     0.243 C 
ENDROOT
BRANCH   3   4
HETATM    4  N2  UNL     1      19.416  64.136 -17.071  1.00  0.00    -0.357 N 
ATOM      5  H2  UNL     1      19.715  63.194 -16.818  1.00  0.00     0.162 HD
BRANCH   4   6
HETATM    6  C3  UNL     1      18.065  64.581 -16.855  1.00  0.00     0.094 C 
HETATM    7  N3  UNL     1      17.599  65.598 -17.466  1.00  0.00    -0.376 N 
HETATM    8  C4  UNL     1      16.249  65.878 -17.119  1.00  0.00     0.163 C 
ATOM      9  H3  UNL     1      18.136  66.152 -18.133  1.00  0.00     0.160 HD
HETATM   10  C5  UNL     1      15.980  64.999 -15.909  1.00  0.00     0.122 C 
HETATM   11  C6  UNL     1      14.651  64.331 -16.153  1.00  0.00     0.160 C 
HETATM   12  C9  UNL     1      17.054  63.957 -15.931  1.00  0.00     0.145 C 
HETATM   13  C7  UNL     1      14.914  62.850 -16.141  1.00  0.00     0.104 C 
HETATM   14  C8  UNL     1      16.375  62.774 -16.538  1.00  0.00     0.245 C 
BRANCH  10  15
HETATM   15  O1  UNL     1      15.995  65.784 -14.750  1.00  0.00    -0.384 OA
ATOM     16  H1  UNL     1      15.775  65.245 -14.000  1.00  0.00     0.210 HD
ENDBRANCH  10  15
BRANCH  11  17
HETATM   17  O2  UNL     1      13.670  64.756 -15.281  1.00  0.00    -0.392 OA
ATOM     18  H2  UNL     1      12.793  64.563 -15.591  1.00  0.00     0.210 HD
ENDBRANCH  11  17
BRANCH  14  19
HETATM   19  N4  UNL     1      16.981  61.517 -16.250  1.00  0.00    -0.045 N 
ATOM     20  H43 UNL     1      16.618  61.134 -15.378  1.00  0.00     0.278 HD
ATOM     21  H42 UNL     1      16.654  60.802 -16.900  1.00  0.00     0.278 HD
ATOM     22  H41 UNL     1      18.001  61.549 -16.232  1.00  0.00     0.278 HD
ENDBRANCH  14  19
BRANCH  14  23
HETATM   23  O3  UNL     1      16.412  62.938 -17.929  1.00  0.00    -0.364 OA
ATOM     24  H3  UNL     1      16.113  63.824 -18.099  1.00  0.00     0.212 HD
ENDBRANCH  14  23
BRANCH  12  25
HETATM   25  C10 UNL     1      17.685  63.691 -14.593  1.00  0.00     0.242 C 
BRANCH  25  26
HETATM   26  O4  UNL     1      16.598  63.619 -13.647  1.00  0.00    -0.383 OA
ATOM     27  H4  UNL     1      15.971  64.280 -13.916  1.00  0.00     0.210 HD
ENDBRANCH  25  26
BRANCH  25  28
HETATM   28  C11 UNL     1      18.668  64.627 -14.101  1.00  0.00     0.204 C 
HETATM   29  O5  UNL     1      19.891  64.250 -14.000  1.00  0.00    -0.646 OA
HETATM   30  O6  UNL     1      18.481  65.929 -13.708  1.00  0.00    -0.646 OA
ENDBRANCH  25  28
ENDBRANCH  12  25
ENDBRANCH   4   6
ENDBRANCH   3   4
BRANCH   3  31
HETATM   31  C12 UNL     1      21.265  65.661 -16.716  1.00  0.00     0.081 A 
HETATM   32  C13 UNL     1      22.606  65.372 -16.608  1.00  0.00     0.141 A 
HETATM   33  N5  UNL     1      23.126  66.111 -15.612  1.00  0.00    -0.287 N 
HETATM   34  N6  UNL     1      22.140  66.828 -15.126  1.00  0.00    -0.241 N 
HETATM   35  N7  UNL     1      20.993  66.576 -15.778  1.00  0.00    -0.286 N 
ATOM     36  H6  UNL     1      22.232  67.490 -14.355  1.00  0.00     0.208 HD
ATOM     37  H7  UNL     1      20.085  67.002 -15.592  1.00  0.00     0.188 HD
BRANCH  33  38
HETATM   38  C14 UNL     1      24.490  66.158 -15.121  1.00  0.00     0.150 C 
BRANCH  38  39
HETATM   39  C15 UNL     1      24.826  67.489 -14.485  1.00  0.00     0.033 C 
BRANCH  39  40
HETATM   40  C16 UNL     1      25.060  67.249 -13.014  1.00  0.00     0.088 C 
HETATM   41  S1  UNL     1      26.399  68.374 -12.500  1.00  0.00    -0.098 SA
ENDBRANCH  39  40
ENDBRANCH  38  39
ENDBRANCH  33  38
ENDBRANCH   3  31
TORSDOF 13
ENDMDL
MODEL 4
REMARK VINA RESULT: -5.978847407      1.834      2.805
REMARK  13 active torsions:
REMARK  status: ('A' for Active; 'I' for Inactive)
REMARK    1  A    between atoms: C2_3  and  N2_4 
REMARK    2  A    between atoms: C2_3  and  C12_31 
REMARK    3  A    between atoms: N2_4  and  C3_6 
REMARK    4  A    between atoms: C5_10  and  O1_11 
REMARK    5  A    between atoms: C6_13  and  O2_14 
REMARK    6  A    between atoms: C8_17  and  N4_18 
REMARK    7  A    between atoms: C8_17  and  O3_22 
REMARK    8  A    between atoms: C9_24  and  C10_25 
REMARK    9  A    between atoms: C10_25  and  O4_26 
REMARK   10  A    between atoms: C10_25  and  C11_28 
REMARK   11  A    between atoms: N5_33  and  C14_34 
REMARK   12  A    between atoms: C14_34  and  C15_35 
REMARK   13  A    between atoms: C15_35  and  C16_36 
ROOT
HETATM    1  N1  UNL     1      17.839  66.175 -13.157  1.00  0.00    -0.195 NA
HETATM    2  C1  UNL     1      18.133  65.676 -14.167  1.00  0.00     0.091 C 
HETATM    3  C2  UNL     1      18.513  65.034 -15.437  1.00  0.00     0.243 C 
ENDROOT
BRANCH   3   4
HETATM    4  N2  UNL     1      17.337  64.955 -16.269  1.00  0.00    -0.357 N 
ATOM      5  H2  UNL     1      17.018  65.754 -16.820  1.00  0.00     0.162 HD
BRANCH   4   6
HETATM    6  C3  UNL     1      16.636  63.700 -16.287  1.00  0.00     0.094 C 
HETATM    7  N3  UNL     1      17.263  62.592 -16.214  1.00  0.00    -0.376 N 
HETATM    8  C4  UNL     1      16.396  61.466 -16.246  1.00  0.00     0.163 C 
ATOM      9  H3  UNL     1      18.278  62.521 -16.140  1.00  0.00     0.160 HD
HETATM   10  C5  UNL     1      15.049  62.038 -16.654  1.00  0.00     0.122 C 
HETATM   11  C6  UNL     1      14.031  61.443 -15.714  1.00  0.00     0.160 C 
HETATM   12  C9  UNL     1      15.146  63.507 -16.389  1.00  0.00     0.145 C 
HETATM   13  C7  UNL     1      13.383  62.600 -15.005  1.00  0.00     0.104 C 
HETATM   14  C8  UNL     1      14.456  63.668 -15.074  1.00  0.00     0.245 C 
BRANCH  10  15
HETATM   15  O1  UNL     1      14.800  61.734 -17.997  1.00  0.00    -0.384 OA
ATOM     16  H1  UNL     1      14.442  62.497 -18.434  1.00  0.00     0.210 HD
ENDBRANCH  10  15
BRANCH  11  17
HETATM   17  O2  UNL     1      13.156  60.584 -16.348  1.00  0.00    -0.392 OA
ATOM     18  H2  UNL     1      13.065  59.752 -15.897  1.00  0.00     0.210 HD
ENDBRANCH  11  17
BRANCH  14  19
HETATM   19  N4  UNL     1      13.974  64.981 -14.804  1.00  0.00    -0.045 N 
ATOM     20  H43 UNL     1      12.955  64.990 -14.764  1.00  0.00     0.278 HD
ATOM     21  H42 UNL     1      14.185  65.251 -13.843  1.00  0.00     0.278 HD
ATOM     22  H41 UNL     1      14.314  65.686 -15.459  1.00  0.00     0.278 HD
ENDBRANCH  14  19
BRANCH  14  23
HETATM   23  O3  UNL     1      15.385  63.357 -14.073  1.00  0.00    -0.364 OA
ATOM     24  H3  UNL     1      16.109  63.962 -14.185  1.00  0.00     0.212 HD
ENDBRANCH  14  23
BRANCH  12  25
HETATM   25  C10 UNL     1      14.597  64.371 -17.488  1.00  0.00     0.242 C 
BRANCH  25  26
HETATM   26  O4  UNL     1      14.995  65.721 -17.171  1.00  0.00    -0.383 OA
ATOM     27  H4  UNL     1      14.493  66.286 -17.747  1.00  0.00     0.210 HD
ENDBRANCH  25  26
BRANCH  25  28
HETATM   28  C11 UNL     1      13.172  64.352 -17.728  1.00  0.00     0.204 C 
HETATM   29  O5  UNL     1      12.463  65.350 -17.343  1.00  0.00    -0.646 OA
HETATM   30  O6  UNL     1      12.427  63.376 -18.341  1.00  0.00    -0.646 OA
ENDBRANCH  25  28
ENDBRANCH  12  25
ENDBRANCH   4   6
ENDBRANCH   3   4
BRANCH   3  31
HETATM   31  C12 UNL     1      19.619  65.743 -16.058  1.00  0.00     0.081 A 
HETATM   32  C13 UNL     1      20.779  66.154 -15.443  1.00  0.00     0.141 A 
HETATM   33  N5  UNL     1      21.551  66.775 -16.353  1.00  0.00    -0.287 N 
HETATM   34  N6  UNL     1      20.888  66.747 -17.486  1.00  0.00    -0.241 N 
HETATM   35  N7  UNL     1      19.707  66.126 -17.338  1.00  0.00    -0.286 N 
ATOM     36  H6  UNL     1      21.225  67.145 -18.363  1.00  0.00     0.208 HD
ATOM     37  H7  UNL     1      19.008  65.974 -18.065  1.00  0.00     0.188 HD
BRANCH  33  38
HETATM   38  C14 UNL     1      22.860  67.377 -16.188  1.00  0.00     0.150 C 
BRANCH  38  39
HETATM   39  C15 UNL     1      23.275  67.458 -14.735  1.00  0.00     0.033 C 
BRANCH  39  40
HETATM   40  C16 UNL     1      24.668  66.889 -14.624  1.00  0.00     0.088 C 
HETATM   41  S1  UNL     1      25.275  67.297 -12.953  1.00  0.00    -0.098 SA
ENDBRANCH  39  40
ENDBRANCH  38  39
ENDBRANCH  33  38
ENDBRANCH   3  31
TORSDOF 13
ENDMDL
MODEL 5
REMARK VINA RESULT: -5.898461808      2.559      4.090
REMARK  13 active torsions:
REMARK  status: ('A' for Active; 'I' for Inactive)
REMARK    1  A    between atoms: C2_3  and  N2_4 
REMARK    2  A    between atoms: C2_3  and  C12_31 
REMARK    3  A    between atoms: N2_4  and  C3_6 
REMARK    4  A    between atoms: C5_10  and  O1_11 
REMARK    5  A    between atoms: C6_13  and  O2_14 
REMARK    6  A    between atoms: C8_17  and  N4_18 
REMARK    7  A    between atoms: C8_17  and  O3_22 
REMARK    8  A    between atoms: C9_24  and  C10_25 
REMARK    9  A    between atoms: C10_25  and  O4_26 
REMARK   10  A    between atoms: C10_25  and  C11_28 
REMARK   11  A    between atoms: N5_33  and  C14_34 
REMARK   12  A    between atoms: C14_34  and  C15_35 
REMARK   13  A    between atoms: C15_35  and  C16_36 
ROOT
HETATM    1  N1  UNL     1      21.932  63.775 -19.405  1.00  0.00    -0.195 NA
HETATM    2  C1  UNL     1      21.274  64.357 -18.639  1.00  0.00     0.091 C 
HETATM    3  C2  UNL     1      20.440  65.103 -17.681  1.00  0.00     0.243 C 
ENDROOT
BRANCH   3   4
HETATM    4  N2  UNL     1      19.509  64.179 -17.082  1.00  0.00    -0.357 N 
ATOM      5  H2  UNL     1      19.794  63.240 -16.802  1.00  0.00     0.162 HD
BRANCH   4   6
HETATM    6  C3  UNL     1      18.160  64.643 -16.898  1.00  0.00     0.094 C 
HETATM    7  N3  UNL     1      17.713  65.648 -17.544  1.00  0.00    -0.376 N 
HETATM    8  C4  UNL     1      16.361  65.950 -17.225  1.00  0.00     0.163 C 
ATOM      9  H3  UNL     1      18.266  66.177 -18.217  1.00  0.00     0.160 HD
HETATM   10  C5  UNL     1      16.066  65.107 -15.996  1.00  0.00     0.122 C 
HETATM   11  C6  UNL     1      14.733  64.445 -16.242  1.00  0.00     0.160 C 
HETATM   12  C9  UNL     1      17.128  64.054 -15.973  1.00  0.00     0.145 C 
HETATM   13  C7  UNL     1      14.981  62.963 -16.185  1.00  0.00     0.104 C 
HETATM   14  C8  UNL     1      16.446  62.862 -16.559  1.00  0.00     0.245 C 
BRANCH  10  15
HETATM   15  O1  UNL     1      16.071  65.922 -14.858  1.00  0.00    -0.384 OA
ATOM     16  H1  UNL     1      15.624  65.479 -14.148  1.00  0.00     0.210 HD
ENDBRANCH  10  15
BRANCH  11  17
HETATM   17  O2  UNL     1      13.744  64.903 -15.397  1.00  0.00    -0.392 OA
ATOM     18  H2  UNL     1      13.430  64.233 -14.800  1.00  0.00     0.210 HD
ENDBRANCH  11  17
BRANCH  14  19
HETATM   19  N4  UNL     1      17.035  61.607 -16.227  1.00  0.00    -0.045 N 
ATOM     20  H43 UNL     1      16.765  61.320 -15.287  1.00  0.00     0.278 HD
ATOM     21  H42 UNL     1      16.607  60.855 -16.766  1.00  0.00     0.278 HD
ATOM     22  H41 UNL     1      18.051  61.591 -16.330  1.00  0.00     0.278 HD
ENDBRANCH  14  19
BRANCH  14  23
HETATM   23  O3  UNL     1      16.506  62.988 -17.952  1.00  0.00    -0.364 OA
ATOM     24  H3  UNL     1      15.627  62.823 -18.272  1.00  0.00     0.212 HD
ENDBRANCH  14  23
BRANCH  12  25
HETATM   25  C10 UNL     1      17.736  63.818 -14.619  1.00  0.00     0.242 C 
BRANCH  25  26
HETATM   26  O4  UNL     1      16.635  63.787 -13.687  1.00  0.00    -0.383 OA
ATOM     27  H4  UNL     1      16.710  62.963 -13.220  1.00  0.00     0.210 HD
ENDBRANCH  25  26
BRANCH  25  28
HETATM   28  C11 UNL     1      18.725  64.756 -14.139  1.00  0.00     0.204 C 
HETATM   29  O5  UNL     1      19.940  64.365 -14.007  1.00  0.00    -0.646 OA
HETATM   30  O6  UNL     1      18.549  66.071 -13.788  1.00  0.00    -0.646 OA
ENDBRANCH  25  28
ENDBRANCH  12  25
ENDBRANCH   4   6
ENDBRANCH   3   4
BRANCH   3  31
HETATM   31  C12 UNL     1      21.272  65.800 -16.714  1.00  0.00     0.081 A 
HETATM   32  C13 UNL     1      22.584  65.522 -16.409  1.00  0.00     0.141 A 
HETATM   33  N5  UNL     1      22.999  66.389 -15.467  1.00  0.00    -0.287 N 
HETATM   34  N6  UNL     1      21.977  67.170 -15.204  1.00  0.00    -0.241 N 
HETATM   35  N7  UNL     1      20.911  66.836 -15.947  1.00  0.00    -0.286 N 
ATOM     36  H6  UNL     1      21.992  67.931 -14.524  1.00  0.00     0.208 HD
ATOM     37  H7  UNL     1      19.996  67.288 -15.931  1.00  0.00     0.188 HD
BRANCH  33  38
HETATM   38  C14 UNL     1      24.296  66.496 -14.826  1.00  0.00     0.150 C 
BRANCH  38  39
HETATM   39  C15 UNL     1      24.945  67.841 -15.065  1.00  0.00     0.033 C 
BRANCH  39  40
HETATM   40  C16 UNL     1      25.439  67.866 -16.491  1.00  0.00     0.088 C 
HETATM   41  S1  UNL     1      24.530  69.197 -17.344  1.00  0.00    -0.098 SA
ENDBRANCH  39  40
ENDBRANCH  38  39
ENDBRANCH  33  38
ENDBRANCH   3  31
TORSDOF 13
ENDMDL
