MODEL 1
REMARK VINA RESULT: -8.120315699      0.000      0.000
REMARK  21 active torsions:
REMARK  status: ('A' for Active; 'I' for Inactive)
REMARK    1  A    between atoms: C2_2  and  C3_3 
REMARK    2  A    between atoms: C2_2  and  C19_25 
REMARK    3  A    between atoms: C3_3  and  C4_4 
REMARK    4  A    between atoms: C4_4  and  C5_5 
REMARK    5  A    between atoms: N1_8  and  C8_9 
REMARK    6  A    between atoms: C8_9  and  O1_10 
REMARK    7  A    between atoms: O1_10  and  C9_11 
REMARK    8  A    between atoms: C9_11  and  C10_12 
REMARK    9  A    between atoms: C10_12  and  C11_13 
REMARK   10  A    between atoms: C11_13  and  C12_14 
REMARK   11  A    between atoms: C12_14  and  C13_15 
REMARK   12  A    between atoms: C13_15  and  C14_16 
REMARK   13  A    between atoms: C14_16  and  C15_17 
REMARK   14  A    between atoms: C15_17  and  C16_18 
REMARK   15  A    between atoms: C16_18  and  N2_19 
REMARK   16  A    between atoms: N2_19  and  N3_20 
REMARK   17  A    between atoms: C19_25  and  N4_26 
REMARK   18  A    between atoms: N4_26  and  C20_27 
REMARK   19  A    between atoms: N4_26  and  C21_29 
REMARK   20  A    between atoms: C21_29  and  C22_30 
REMARK   21  A    between atoms: C22_30  and  N5_31 
ROOT
HETATM    1  C5  UNL     1      22.655   3.085  50.308  1.00  0.00    -0.056 A 
HETATM    2  C6  UNL     1      21.837   2.104  50.795  1.00  0.00     0.024 A 
HETATM    3  C7  UNL     1      20.990   2.368  51.883  1.00  0.00     0.093 A 
HETATM    4  N1  UNL     1      21.004   3.576  52.421  1.00  0.00    -0.345 N 
HETATM    5  C17 UNL     1      21.800   4.587  51.972  1.00  0.00     0.093 A 
HETATM    6  C18 UNL     1      22.634   4.321  50.897  1.00  0.00     0.024 A 
ENDROOT
BRANCH   1   7
HETATM    7  C4  UNL     1      23.545   2.819  49.170  1.00  0.00     0.039 C 
BRANCH   7   8
HETATM    8  C3  UNL     1      22.923   1.702  48.369  1.00  0.00     0.010 C 
BRANCH   8   9
HETATM    9  C2  UNL     1      23.177   1.738  46.912  1.00  0.00    -0.000 C 
HETATM   10  C1  UNL     1      24.133   0.648  46.453  1.00  0.00     0.011 C 
BRANCH   9  11
HETATM   11  C19 UNL     1      23.492   3.065  46.308  1.00  0.00     0.129 C 
BRANCH  11  12
HETATM   12  N4  UNL     1      22.421   3.706  45.590  1.00  0.00    -0.357 N 
BRANCH  12  13
HETATM   13  C20 UNL     1      21.481   4.556  46.231  1.00  0.00     0.350 C 
HETATM   14  O2  UNL     1      20.830   4.190  47.233  1.00  0.00    -0.284 OA
ENDBRANCH  12  13
BRANCH  12  15
HETATM   15  C21 UNL     1      22.278   3.537  44.169  1.00  0.00     0.152 C 
BRANCH  15  16
HETATM   16  C22 UNL     1      21.128   4.228  43.537  1.00  0.00     0.249 C 
BRANCH  16  17
HETATM   17  N5  UNL     1      21.372   4.705  42.191  1.00  0.00    -0.078 N 
ATOM     18  H53 UNL     1      22.297   5.132  42.130  1.00  0.00     0.274 HD
ATOM     19  H52 UNL     1      21.499   3.918  41.555  1.00  0.00     0.274 HD
ATOM     20  H51 UNL     1      20.663   5.343  41.829  1.00  0.00     0.274 HD
ENDBRANCH  16  17
ENDBRANCH  15  16
ENDBRANCH  12  15
ENDBRANCH  11  12
ENDBRANCH   9  11
ENDBRANCH   8   9
ENDBRANCH   7   8
ENDBRANCH   1   7
BRANCH   4  21
HETATM   21  C8  UNL     1      20.166   3.955  53.568  1.00  0.00     0.297 C 
BRANCH  21  22
HETATM   22  O1  UNL     1      19.763   2.856  54.289  1.00  0.00    -0.372 OA
BRANCH  22  23
HETATM   23  C9  UNL     1      19.097   3.075  55.446  1.00  0.00     0.170 C 
BRANCH  23  24
HETATM   24  C10 UNL     1      19.903   3.439  56.646  1.00  0.00     0.026 C 
BRANCH  24  25
HETATM   25  C11 UNL     1      19.590   4.734  57.306  1.00  0.00     0.002 C 
BRANCH  25  26
HETATM   26  C12 UNL     1      19.320   5.906  56.449  1.00  0.00     0.000 C 
BRANCH  26  27
HETATM   27  C13 UNL     1      19.391   7.186  57.253  1.00  0.00     0.000 C 
BRANCH  27  28
HETATM   28  C14 UNL     1      18.100   7.930  57.123  1.00  0.00     0.006 C 
BRANCH  28  29
HETATM   29  C15 UNL     1      18.358   9.452  57.151  1.00  0.00     0.061 C 
BRANCH  29  30
HETATM   30  C16 UNL     1      19.784   9.626  57.479  1.00  0.00     0.181 C 
BRANCH  30  31
HETATM   31  N2  UNL     1      20.388  10.640  57.098  1.00  0.00    -0.350 NA
BRANCH  31  32
HETATM   32  N3  UNL     1      21.002  11.665  56.736  1.00  0.00    -0.281 N 
ATOM     33  H32 UNL     1      20.929  11.136  57.605  1.00  0.00     0.191 HD
ATOM     34  H31 UNL     1      21.496  12.501  56.423  1.00  0.00     0.191 HD
ENDBRANCH  31  32
ENDBRANCH  30  31
ENDBRANCH  29  30
ENDBRANCH  28  29
ENDBRANCH  27  28
ENDBRANCH  26  27
ENDBRANCH  25  26
ENDBRANCH  24  25
ENDBRANCH  23  24
ENDBRANCH  22  23
ENDBRANCH  21  22
ENDBRANCH   4  21
TORSDOF 21
ENDMDL
MODEL 2
REMARK VINA RESULT: -8.091685625      1.853      2.401
REMARK  21 active torsions:
REMARK  status: ('A' for Active; 'I' for Inactive)
REMARK    1  A    between atoms: C2_2  and  C3_3 
REMARK    2  A    between atoms: C2_2  and  C19_25 
REMARK    3  A    between atoms: C3_3  and  C4_4 
REMARK    4  A    between atoms: C4_4  and  C5_5 
REMARK    5  A    between atoms: N1_8  and  C8_9 
REMARK    6  A    between atoms: C8_9  and  O1_10 
REMARK    7  A    between atoms: O1_10  and  C9_11 
REMARK    8  A    between atoms: C9_11  and  C10_12 
REMARK    9  A    between atoms: C10_12  and  C11_13 
REMARK   10  A    between atoms: C11_13  and  C12_14 
REMARK   11  A    between atoms: C12_14  and  C13_15 
REMARK   12  A    between atoms: C13_15  and  C14_16 
REMARK   13  A    between atoms: C14_16  and  C15_17 
REMARK   14  A    between atoms: C15_17  and  C16_18 
REMARK   15  A    between atoms: C16_18  and  N2_19 
REMARK   16  A    between atoms: N2_19  and  N3_20 
REMARK   17  A    between atoms: C19_25  and  N4_26 
REMARK   18  A    between atoms: N4_26  and  C20_27 
REMARK   19  A    between atoms: N4_26  and  C21_29 
REMARK   20  A    between atoms: C21_29  and  C22_30 
REMARK   21  A    between atoms: C22_30  and  N5_31 
ROOT
HETATM    1  C5  UNL     1      22.713   3.129  50.339  1.00  0.00    -0.056 A 
HETATM    2  C6  UNL     1      22.821   4.342  50.960  1.00  0.00     0.024 A 
HETATM    3  C7  UNL     1      22.030   4.633  52.083  1.00  0.00     0.093 A 
HETATM    4  N1  UNL     1      21.184   3.715  52.518  1.00  0.00    -0.345 N 
HETATM    5  C17 UNL     1      21.039   2.491  51.935  1.00  0.00     0.093 A 
HETATM    6  C18 UNL     1      21.824   2.209  50.827  1.00  0.00     0.024 A 
ENDROOT
BRANCH   1   7
HETATM    7  C4  UNL     1      23.536   2.815  49.163  1.00  0.00     0.039 C 
BRANCH   7   8
HETATM    8  C3  UNL     1      22.816   1.739  48.389  1.00  0.00     0.010 C 
BRANCH   8   9
HETATM    9  C2  UNL     1      23.083   1.707  46.935  1.00  0.00    -0.000 C 
HETATM   10  C1  UNL     1      24.029   0.585  46.533  1.00  0.00     0.011 C 
BRANCH   9  11
HETATM   11  C19 UNL     1      23.420   3.001  46.275  1.00  0.00     0.129 C 
BRANCH  11  12
HETATM   12  N4  UNL     1      22.347   3.653  45.569  1.00  0.00    -0.357 N 
BRANCH  12  13
HETATM   13  C20 UNL     1      21.460   4.559  46.209  1.00  0.00     0.350 C 
HETATM   14  O2  UNL     1      20.749   4.220  47.179  1.00  0.00    -0.284 OA
ENDBRANCH  12  13
BRANCH  12  15
HETATM   15  C21 UNL     1      22.148   3.437  44.162  1.00  0.00     0.152 C 
BRANCH  15  16
HETATM   16  C22 UNL     1      21.088   4.248  43.515  1.00  0.00     0.249 C 
BRANCH  16  17
HETATM   17  N5  UNL     1      21.399   4.690  42.171  1.00  0.00    -0.078 N 
ATOM     18  H53 UNL     1      22.407   4.803  42.060  1.00  0.00     0.274 HD
ATOM     19  H52 UNL     1      21.232   3.938  41.504  1.00  0.00     0.274 HD
ATOM     20  H51 UNL     1      20.914   5.539  41.879  1.00  0.00     0.274 HD
ENDBRANCH  16  17
ENDBRANCH  15  16
ENDBRANCH  12  15
ENDBRANCH  11  12
ENDBRANCH   9  11
ENDBRANCH   8   9
ENDBRANCH   7   8
ENDBRANCH   1   7
BRANCH   4  21
HETATM   21  C8  UNL     1      20.302   3.919  53.677  1.00  0.00     0.297 C 
BRANCH  21  22
HETATM   22  O1  UNL     1      20.288   5.234  54.079  1.00  0.00    -0.372 OA
BRANCH  22  23
HETATM   23  C9  UNL     1      20.311   5.482  55.409  1.00  0.00     0.170 C 
BRANCH  23  24
HETATM   24  C10 UNL     1      19.148   6.209  55.995  1.00  0.00     0.026 C 
BRANCH  24  25
HETATM   25  C11 UNL     1      19.318   6.771  57.360  1.00  0.00     0.002 C 
BRANCH  25  26
HETATM   26  C12 UNL     1      19.941   8.104  57.492  1.00  0.00     0.000 C 
BRANCH  26  27
HETATM   27  C13 UNL     1      19.060   9.172  56.882  1.00  0.00     0.000 C 
BRANCH  27  28
HETATM   28  C14 UNL     1      17.686   9.078  57.465  1.00  0.00     0.006 C 
BRANCH  28  29
HETATM   29  C15 UNL     1      17.053  10.483  57.563  1.00  0.00     0.061 C 
BRANCH  29  30
HETATM   30  C16 UNL     1      15.664  10.283  58.012  1.00  0.00     0.181 C 
BRANCH  30  31
HETATM   31  N2  UNL     1      14.729  10.401  57.206  1.00  0.00    -0.350 NA
BRANCH  31  32
HETATM   32  N3  UNL     1      13.773  10.512  56.411  1.00  0.00    -0.281 N 
ATOM     33  H32 UNL     1      14.217   9.736  56.902  1.00  0.00     0.191 HD
ATOM     34  H31 UNL     1      12.994  10.621  55.760  1.00  0.00     0.191 HD
ENDBRANCH  31  32
ENDBRANCH  30  31
ENDBRANCH  29  30
ENDBRANCH  28  29
ENDBRANCH  27  28
ENDBRANCH  26  27
ENDBRANCH  25  26
ENDBRANCH  24  25
ENDBRANCH  23  24
ENDBRANCH  22  23
ENDBRANCH  21  22
ENDBRANCH   4  21
TORSDOF 21
ENDMDL
MODEL 3
REMARK VINA RESULT: -8.067421403      4.289     12.115
REMARK  21 active torsions:
REMARK  status: ('A' for Active; 'I' for Inactive)
REMARK    1  A    between atoms: C2_2  and  C3_3 
REMARK    2  A    between atoms: C2_2  and  C19_25 
REMARK    3  A    between atoms: C3_3  and  C4_4 
REMARK    4  A    between atoms: C4_4  and  C5_5 
REMARK    5  A    between atoms: N1_8  and  C8_9 
REMARK    6  A    between atoms: C8_9  and  O1_10 
REMARK    7  A    between atoms: O1_10  and  C9_11 
REMARK    8  A    between atoms: C9_11  and  C10_12 
REMARK    9  A    between atoms: C10_12  and  C11_13 
REMARK   10  A    between atoms: C11_13  and  C12_14 
REMARK   11  A    between atoms: C12_14  and  C13_15 
REMARK   12  A    between atoms: C13_15  and  C14_16 
REMARK   13  A    between atoms: C14_16  and  C15_17 
REMARK   14  A    between atoms: C15_17  and  C16_18 
REMARK   15  A    between atoms: C16_18  and  N2_19 
REMARK   16  A    between atoms: N2_19  and  N3_20 
REMARK   17  A    between atoms: C19_25  and  N4_26 
REMARK   18  A    between atoms: N4_26  and  C20_27 
REMARK   19  A    between atoms: N4_26  and  C21_29 
REMARK   20  A    between atoms: C21_29  and  C22_30 
REMARK   21  A    between atoms: C22_30  and  N5_31 
ROOT
HETATM    1  C5  UNL     1      18.517  10.020  57.462  1.00  0.00    -0.056 A 
HETATM    2  C6  UNL     1      19.834   9.657  57.484  1.00  0.00     0.024 A 
HETATM    3  C7  UNL     1      20.192   8.299  57.477  1.00  0.00     0.093 A 
HETATM    4  N1  UNL     1      19.232   7.390  57.451  1.00  0.00    -0.345 N 
HETATM    5  C17 UNL     1      17.905   7.700  57.429  1.00  0.00     0.093 A 
HETATM    6  C18 UNL     1      17.558   9.043  57.435  1.00  0.00     0.024 A 
ENDROOT
BRANCH   1   7
HETATM    7  C4  UNL     1      18.133  11.438  57.469  1.00  0.00     0.039 C 
BRANCH   7   8
HETATM    8  C3  UNL     1      19.084  12.153  58.397  1.00  0.00     0.010 C 
BRANCH   8   9
HETATM    9  C2  UNL     1      18.455  12.905  59.505  1.00  0.00    -0.000 C 
HETATM   10  C1  UNL     1      18.760  14.394  59.454  1.00  0.00     0.011 C 
BRANCH   9  11
HETATM   11  C19 UNL     1      18.596  12.340  60.878  1.00  0.00     0.129 C 
BRANCH  11  12
HETATM   12  N4  UNL     1      18.427  10.916  61.000  1.00  0.00    -0.357 N 
BRANCH  12  13
HETATM   13  C20 UNL     1      19.523  10.038  61.214  1.00  0.00     0.350 C 
HETATM   14  O2  UNL     1      19.404   8.797  61.141  1.00  0.00    -0.284 OA
ENDBRANCH  12  13
BRANCH  12  15
HETATM   15  C21 UNL     1      17.121  10.318  60.943  1.00  0.00     0.152 C 
BRANCH  15  16
HETATM   16  C22 UNL     1      15.971  11.253  60.888  1.00  0.00     0.249 C 
BRANCH  16  17
HETATM   17  N5  UNL     1      15.175  11.163  59.681  1.00  0.00    -0.078 N 
ATOM     18  H53 UNL     1      15.741  11.398  58.865  1.00  0.00     0.274 HD
ATOM     19  H52 UNL     1      14.959  10.189  59.472  1.00  0.00     0.274 HD
ATOM     20  H51 UNL     1      14.321  11.721  59.692  1.00  0.00     0.274 HD
ENDBRANCH  16  17
ENDBRANCH  15  16
ENDBRANCH  12  15
ENDBRANCH  11  12
ENDBRANCH   9  11
ENDBRANCH   8   9
ENDBRANCH   7   8
ENDBRANCH   1   7
BRANCH   4  21
HETATM   21  C8  UNL     1      19.495   5.943  57.453  1.00  0.00     0.297 C 
BRANCH  21  22
HETATM   22  O1  UNL     1      20.724   5.649  56.911  1.00  0.00    -0.372 OA
BRANCH  22  23
HETATM   23  C9  UNL     1      20.949   4.371  56.527  1.00  0.00     0.170 C 
BRANCH  23  24
HETATM   24  C10 UNL     1      19.760   3.527  56.212  1.00  0.00     0.026 C 
BRANCH  24  25
HETATM   25  C11 UNL     1      19.412   3.355  54.778  1.00  0.00     0.002 C 
BRANCH  25  26
HETATM   26  C12 UNL     1      19.031   4.555  54.004  1.00  0.00     0.000 C 
BRANCH  26  27
HETATM   27  C13 UNL     1      19.862   4.666  52.744  1.00  0.00     0.000 C 
BRANCH  27  28
HETATM   28  C14 UNL     1      21.109   5.438  53.035  1.00  0.00     0.006 C 
BRANCH  28  29
HETATM   29  C15 UNL     1      22.352   4.599  52.667  1.00  0.00     0.061 C 
BRANCH  29  30
HETATM   30  C16 UNL     1      22.514   4.714  51.208  1.00  0.00     0.181 C 
BRANCH  30  31
HETATM   31  N2  UNL     1      23.273   3.939  50.606  1.00  0.00    -0.350 NA
BRANCH  31  32
HETATM   32  N3  UNL     1      24.022   3.159  49.981  1.00  0.00    -0.281 N 
ATOM     33  H32 UNL     1      23.018   3.339  49.997  1.00  0.00     0.191 HD
ATOM     34  H31 UNL     1      24.650   2.530  49.481  1.00  0.00     0.191 HD
ENDBRANCH  31  32
ENDBRANCH  30  31
ENDBRANCH  29  30
ENDBRANCH  28  29
ENDBRANCH  27  28
ENDBRANCH  26  27
ENDBRANCH  25  26
ENDBRANCH  24  25
ENDBRANCH  23  24
ENDBRANCH  22  23
ENDBRANCH  21  22
ENDBRANCH   4  21
TORSDOF 21
ENDMDL
MODEL 4
REMARK VINA RESULT: -7.905666744      2.515      3.773
REMARK  21 active torsions:
REMARK  status: ('A' for Active; 'I' for Inactive)
REMARK    1  A    between atoms: C2_2  and  C3_3 
REMARK    2  A    between atoms: C2_2  and  C19_25 
REMARK    3  A    between atoms: C3_3  and  C4_4 
REMARK    4  A    between atoms: C4_4  and  C5_5 
REMARK    5  A    between atoms: N1_8  and  C8_9 
REMARK    6  A    between atoms: C8_9  and  O1_10 
REMARK    7  A    between atoms: O1_10  and  C9_11 
REMARK    8  A    between atoms: C9_11  and  C10_12 
REMARK    9  A    between atoms: C10_12  and  C11_13 
REMARK   10  A    between atoms: C11_13  and  C12_14 
REMARK   11  A    between atoms: C12_14  and  C13_15 
REMARK   12  A    between atoms: C13_15  and  C14_16 
REMARK   13  A    between atoms: C14_16  and  C15_17 
REMARK   14  A    between atoms: C15_17  and  C16_18 
REMARK   15  A    between atoms: C16_18  and  N2_19 
REMARK   16  A    between atoms: N2_19  and  N3_20 
REMARK   17  A    between atoms: C19_25  and  N4_26 
REMARK   18  A    between atoms: N4_26  and  C20_27 
REMARK   19  A    between atoms: N4_26  and  C21_29 
REMARK   20  A    between atoms: C21_29  and  C22_30 
REMARK   21  A    between atoms: C22_30  and  N5_31 
ROOT
HETATM    1  C5  UNL     1      20.728   4.196  52.925  1.00  0.00    -0.056 A 
HETATM    2  C6  UNL     1      19.785   3.296  53.334  1.00  0.00     0.024 A 
HETATM    3  C7  UNL     1      19.481   3.163  54.698  1.00  0.00     0.093 A 
HETATM    4  N1  UNL     1      20.124   3.922  55.569  1.00  0.00    -0.345 N 
HETATM    5  C17 UNL     1      21.071   4.835  55.213  1.00  0.00     0.093 A 
HETATM    6  C18 UNL     1      21.367   4.962  53.864  1.00  0.00     0.024 A 
ENDROOT
BRANCH   1   7
HETATM    7  C4  UNL     1      21.054   4.343  51.500  1.00  0.00     0.039 C 
BRANCH   7   8
HETATM    8  C3  UNL     1      22.438   3.777  51.300  1.00  0.00     0.010 C 
BRANCH   8   9
HETATM    9  C2  UNL     1      22.515   2.540  50.492  1.00  0.00    -0.000 C 
HETATM   10  C1  UNL     1      22.567   1.281  51.344  1.00  0.00     0.011 C 
BRANCH   9  11
HETATM   11  C19 UNL     1      23.504   2.515  49.376  1.00  0.00     0.129 C 
BRANCH  11  12
HETATM   12  N4  UNL     1      22.984   2.784  48.060  1.00  0.00    -0.357 N 
BRANCH  12  13
HETATM   13  C20 UNL     1      22.314   3.996  47.744  1.00  0.00     0.350 C 
HETATM   14  O2  UNL     1      21.069   4.073  47.690  1.00  0.00    -0.284 OA
ENDBRANCH  12  13
BRANCH  12  15
HETATM   15  C21 UNL     1      23.154   1.840  46.990  1.00  0.00     0.152 C 
BRANCH  15  16
HETATM   16  C22 UNL     1      23.525   2.402  45.669  1.00  0.00     0.249 C 
BRANCH  16  17
HETATM   17  N5  UNL     1      22.757   1.887  44.554  1.00  0.00    -0.078 N 
ATOM     18  H53 UNL     1      21.759   2.015  44.722  1.00  0.00     0.274 HD
ATOM     19  H52 UNL     1      22.876   2.485  43.736  1.00  0.00     0.274 HD
ATOM     20  H51 UNL     1      22.954   0.915  44.313  1.00  0.00     0.274 HD
ENDBRANCH  16  17
ENDBRANCH  15  16
ENDBRANCH  12  15
ENDBRANCH  11  12
ENDBRANCH   9  11
ENDBRANCH   8   9
ENDBRANCH   7   8
ENDBRANCH   1   7
BRANCH   4  21
HETATM   21  C8  UNL     1      19.890   3.856  57.019  1.00  0.00     0.297 C 
BRANCH  21  22
HETATM   22  O1  UNL     1      20.811   4.602  57.717  1.00  0.00    -0.372 OA
BRANCH  22  23
HETATM   23  C9  UNL     1      20.339   5.523  58.589  1.00  0.00     0.170 C 
BRANCH  23  24
HETATM   24  C10 UNL     1      20.629   6.957  58.299  1.00  0.00     0.026 C 
BRANCH  24  25
HETATM   25  C11 UNL     1      19.938   7.566  57.133  1.00  0.00     0.002 C 
BRANCH  25  26
HETATM   26  C12 UNL     1      18.462   7.514  57.092  1.00  0.00     0.000 C 
BRANCH  26  27
HETATM   27  C13 UNL     1      17.872   8.899  57.245  1.00  0.00     0.000 C 
BRANCH  27  28
HETATM   28  C14 UNL     1      16.613   8.819  58.047  1.00  0.00     0.006 C 
BRANCH  28  29
HETATM   29  C15 UNL     1      15.849  10.159  57.973  1.00  0.00     0.061 C 
BRANCH  29  30
HETATM   30  C16 UNL     1      14.711   9.940  57.063  1.00  0.00     0.181 C 
BRANCH  30  31
HETATM   31  N2  UNL     1      13.995  10.894  56.726  1.00  0.00    -0.350 NA
BRANCH  31  32
HETATM   32  N3  UNL     1      13.266  11.843  56.368  1.00  0.00    -0.281 N 
ATOM     33  H32 UNL     1      13.645  11.012  55.914  1.00  0.00     0.191 HD
ATOM     34  H31 UNL     1      12.671  12.625  56.094  1.00  0.00     0.191 HD
ENDBRANCH  31  32
ENDBRANCH  30  31
ENDBRANCH  29  30
ENDBRANCH  28  29
ENDBRANCH  27  28
ENDBRANCH  26  27
ENDBRANCH  25  26
ENDBRANCH  24  25
ENDBRANCH  23  24
ENDBRANCH  22  23
ENDBRANCH  21  22
ENDBRANCH   4  21
TORSDOF 21
ENDMDL
MODEL 5
REMARK VINA RESULT: -7.905654080      3.042      5.992
REMARK  21 active torsions:
REMARK  status: ('A' for Active; 'I' for Inactive)
REMARK    1  A    between atoms: C2_2  and  C3_3 
REMARK    2  A    between atoms: C2_2  and  C19_25 
REMARK    3  A    between atoms: C3_3  and  C4_4 
REMARK    4  A    between atoms: C4_4  and  C5_5 
REMARK    5  A    between atoms: N1_8  and  C8_9 
REMARK    6  A    between atoms: C8_9  and  O1_10 
REMARK    7  A    between atoms: O1_10  and  C9_11 
REMARK    8  A    between atoms: C9_11  and  C10_12 
REMARK    9  A    between atoms: C10_12  and  C11_13 
REMARK   10  A    between atoms: C11_13  and  C12_14 
REMARK   11  A    between atoms: C12_14  and  C13_15 
REMARK   12  A    between atoms: C13_15  and  C14_16 
REMARK   13  A    between atoms: C14_16  and  C15_17 
REMARK   14  A    between atoms: C15_17  and  C16_18 
REMARK   15  A    between atoms: C16_18  and  N2_19 
REMARK   16  A    between atoms: N2_19  and  N3_20 
REMARK   17  A    between atoms: C19_25  and  N4_26 
REMARK   18  A    between atoms: N4_26  and  C20_27 
REMARK   19  A    between atoms: N4_26  and  C21_29 
REMARK   20  A    between atoms: C21_29  and  C22_30 
REMARK   21  A    between atoms: C22_30  and  N5_31 
ROOT
HETATM    1  C5  UNL     1      19.894   5.464  55.639  1.00  0.00    -0.056 A 
HETATM    2  C6  UNL     1      20.770   4.658  56.312  1.00  0.00     0.024 A 
HETATM    3  C7  UNL     1      21.240   5.033  57.581  1.00  0.00     0.093 A 
HETATM    4  N1  UNL     1      20.820   6.173  58.103  1.00  0.00    -0.345 N 
HETATM    5  C17 UNL     1      19.948   7.010  57.473  1.00  0.00     0.093 A 
HETATM    6  C18 UNL     1      19.486   6.635  56.221  1.00  0.00     0.024 A 
ENDROOT
BRANCH   1   7
HETATM    7  C4  UNL     1      19.396   5.081  54.311  1.00  0.00     0.039 C 
BRANCH   7   8
HETATM    8  C3  UNL     1      20.476   5.424  53.315  1.00  0.00     0.010 C 
BRANCH   8   9
HETATM    9  C2  UNL     1      20.809   4.363  52.339  1.00  0.00    -0.000 C 
HETATM   10  C1  UNL     1      20.321   2.989  52.773  1.00  0.00     0.011 C 
BRANCH   9  11
HETATM   11  C19 UNL     1      22.205   4.333  51.815  1.00  0.00     0.129 C 
BRANCH  11  12
HETATM   12  N4  UNL     1      22.401   3.639  50.569  1.00  0.00    -0.357 N 
BRANCH  12  13
HETATM   13  C20 UNL     1      23.301   2.548  50.443  1.00  0.00     0.350 C 
HETATM   14  O2  UNL     1      23.133   1.474  51.059  1.00  0.00    -0.284 OA
ENDBRANCH  12  13
BRANCH  12  15
HETATM   15  C21 UNL     1      21.657   4.004  49.394  1.00  0.00     0.152 C 
BRANCH  15  16
HETATM   16  C22 UNL     1      22.395   3.963  48.109  1.00  0.00     0.249 C 
BRANCH  16  17
HETATM   17  N5  UNL     1      21.715   4.598  46.998  1.00  0.00    -0.078 N 
ATOM     18  H53 UNL     1      21.268   3.895  46.409  1.00  0.00     0.274 HD
ATOM     19  H52 UNL     1      20.892   5.100  47.329  1.00  0.00     0.274 HD
ATOM     20  H51 UNL     1      22.302   5.211  46.433  1.00  0.00     0.274 HD
ENDBRANCH  16  17
ENDBRANCH  15  16
ENDBRANCH  12  15
ENDBRANCH  11  12
ENDBRANCH   9  11
ENDBRANCH   8   9
ENDBRANCH   7   8
ENDBRANCH   1   7
BRANCH   4  21
HETATM   21  C8  UNL     1      21.257   6.665  59.418  1.00  0.00     0.297 C 
BRANCH  21  22
HETATM   22  O1  UNL     1      21.082   8.023  59.537  1.00  0.00    -0.372 OA
BRANCH  22  23
HETATM   23  C9  UNL     1      20.644   8.496  60.727  1.00  0.00     0.170 C 
BRANCH  23  24
HETATM   24  C10 UNL     1      19.583   9.543  60.703  1.00  0.00     0.026 C 
BRANCH  24  25
HETATM   25  C11 UNL     1      19.932  10.848  60.082  1.00  0.00     0.002 C 
BRANCH  25  26
HETATM   26  C12 UNL     1      18.990  11.428  59.102  1.00  0.00     0.000 C 
BRANCH  26  27
HETATM   27  C13 UNL     1      19.015  10.646  57.807  1.00  0.00     0.000 C 
BRANCH  27  28
HETATM   28  C14 UNL     1      17.642  10.620  57.213  1.00  0.00     0.006 C 
BRANCH  28  29
HETATM   29  C15 UNL     1      16.853   9.407  57.752  1.00  0.00     0.061 C 
BRANCH  29  30
HETATM   30  C16 UNL     1      15.532   9.918  58.159  1.00  0.00     0.181 C 
BRANCH  30  31
HETATM   31  N2  UNL     1      14.713  10.271  57.299  1.00  0.00    -0.350 NA
BRANCH  31  32
HETATM   32  N3  UNL     1      13.900  10.646  56.427  1.00  0.00    -0.281 N 
ATOM     33  H32 UNL     1      14.645  11.095  56.961  1.00  0.00     0.191 HD
ATOM     34  H31 UNL     1      13.229  10.934  55.714  1.00  0.00     0.191 HD
ENDBRANCH  31  32
ENDBRANCH  30  31
ENDBRANCH  29  30
ENDBRANCH  28  29
ENDBRANCH  27  28
ENDBRANCH  26  27
ENDBRANCH  25  26
ENDBRANCH  24  25
ENDBRANCH  23  24
ENDBRANCH  22  23
ENDBRANCH  21  22
ENDBRANCH   4  21
TORSDOF 21
ENDMDL
