MODEL 1
REMARK VINA RESULT: -7.792451965      0.000      0.000
REMARK  20 active torsions:
REMARK  status: ('A' for Active; 'I' for Inactive)
REMARK    1  A    between atoms: C2_2  and  C3_3 
REMARK    2  A    between atoms: C3_3  and  C4_4 
REMARK    3  A    between atoms: C4_4  and  O1_5 
REMARK    4  A    between atoms: O1_5  and  C5_6 
REMARK    5  A    between atoms: C5_6  and  C6_7 
REMARK    6  A    between atoms: C6_7  and  O2_8 
REMARK    7  A    between atoms: O2_8  and  C7_9 
REMARK    8  A    between atoms: C7_9  and  C8_10 
REMARK    9  A    between atoms: C8_10  and  C9_11 
REMARK   10  A    between atoms: C9_11  and  C10_12 
REMARK   11  A    between atoms: C10_12  and  C11_13 
REMARK   12  A    between atoms: C11_13  and  C12_14 
REMARK   13  A    between atoms: C12_14  and  C13_15 
REMARK   14  A    between atoms: C13_15  and  C14_16 
REMARK   15  A    between atoms: C14_16  and  O3_17 
REMARK   16  A    between atoms: O3_17  and  C15_18 
REMARK   17  A    between atoms: C15_18  and  C17_20 
REMARK   18  A    between atoms: C17_20  and  N1_21 
REMARK   19  A    between atoms: N1_21  and  O4_22 
REMARK   20  A    between atoms: N1_21  and  C18_24 
ROOT
HETATM    1  C13 UNL     1      21.196   5.141  53.274  1.00  0.00     0.030 C 
ENDROOT
BRANCH   1   2
HETATM    2  C12 UNL     1      19.700   5.135  52.996  1.00  0.00     0.029 C 
BRANCH   2   3
HETATM    3  C11 UNL     1      18.887   4.326  53.907  1.00  0.00    -0.031 C 
BRANCH   3   4
HETATM    4  C10 UNL     1      19.411   3.281  54.762  1.00  0.00    -0.031 C 
BRANCH   4   5
HETATM    5  C9  UNL     1      19.422   3.352  56.236  1.00  0.00     0.029 C 
BRANCH   5   6
HETATM    6  C8  UNL     1      20.552   4.055  56.874  1.00  0.00     0.030 C 
BRANCH   6   7
HETATM    7  C7  UNL     1      20.419   5.531  57.108  1.00  0.00     0.168 C 
BRANCH   7   8
HETATM    8  O2  UNL     1      21.336   6.261  57.683  1.00  0.00    -0.389 OA
BRANCH   8   9
HETATM    9  C6  UNL     1      21.355   6.900  58.838  1.00  0.00     0.193 C 
BRANCH   9  10
HETATM   10  C5  UNL     1      20.367   8.075  58.907  1.00  0.00     0.193 C 
BRANCH  10  11
HETATM   11  O1  UNL     1      20.477   8.977  57.938  1.00  0.00    -0.389 OA
BRANCH  11  12
HETATM   12  C4  UNL     1      19.595   9.276  57.002  1.00  0.00     0.171 C 
BRANCH  12  13
HETATM   13  C3  UNL     1      18.564  10.324  57.176  1.00  0.00     0.052 C 
BRANCH  13  14
HETATM   14  C2  UNL     1      17.226   9.860  57.546  1.00  0.00    -0.035 C 
HETATM   15  C1  UNL     1      16.885   8.552  57.510  1.00  0.00     0.007 C 
ENDBRANCH  13  14
ENDBRANCH  12  13
ENDBRANCH  11  12
ENDBRANCH  10  11
ENDBRANCH   9  10
ENDBRANCH   8   9
ENDBRANCH   7   8
ENDBRANCH   6   7
ENDBRANCH   5   6
ENDBRANCH   4   5
ENDBRANCH   3   4
ENDBRANCH   2   3
ENDBRANCH   1   2
BRANCH   1  16
HETATM   16  C14 UNL     1      21.999   4.746  52.082  1.00  0.00     0.168 C 
BRANCH  16  17
HETATM   17  O3  UNL     1      22.635   3.541  52.228  1.00  0.00    -0.385 OA
BRANCH  17  18
HETATM   18  C15 UNL     1      22.265   2.536  51.370  1.00  0.00     0.137 C 
HETATM   19  C16 UNL     1      21.111   1.726  51.856  1.00  0.00     0.041 C 
BRANCH  18  20
HETATM   20  C17 UNL     1      21.990   3.150  50.032  1.00  0.00     0.181 C 
BRANCH  20  21
HETATM   21  N1  UNL     1      23.092   3.289  49.163  1.00  0.00    -0.286 N 
BRANCH  21  22
HETATM   22  O4  UNL     1      24.200   3.211  49.689  1.00  0.00    -0.291 OA
ATOM     23  H4  UNL     1      24.943   3.312  49.105  1.00  0.00     0.244 HD
ENDBRANCH  21  22
BRANCH  21  24
HETATM   24  C18 UNL     1      23.068   3.507  47.762  1.00  0.00     0.131 C 
HETATM   25  C19 UNL     1      21.799   4.200  47.345  1.00  0.00    -0.004 C 
HETATM   26  C20 UNL     1      21.562   4.302  46.052  1.00  0.00    -0.029 C 
HETATM   27  C21 UNL     1      22.572   3.720  45.129  1.00  0.00     0.027 C 
HETATM   28  C22 UNL     1      22.999   2.340  45.551  1.00  0.00     0.006 C 
HETATM   29  C23 UNL     1      23.004   2.151  47.040  1.00  0.00     0.031 C 
ENDBRANCH  21  24
ENDBRANCH  20  21
ENDBRANCH  18  20
ENDBRANCH  17  18
ENDBRANCH  16  17
ENDBRANCH   1  16
TORSDOF 20
ENDMDL
MODEL 2
REMARK VINA RESULT: -7.648229396      1.859      2.409
REMARK  20 active torsions:
REMARK  status: ('A' for Active; 'I' for Inactive)
REMARK    1  A    between atoms: C2_2  and  C3_3 
REMARK    2  A    between atoms: C3_3  and  C4_4 
REMARK    3  A    between atoms: C4_4  and  O1_5 
REMARK    4  A    between atoms: O1_5  and  C5_6 
REMARK    5  A    between atoms: C5_6  and  C6_7 
REMARK    6  A    between atoms: C6_7  and  O2_8 
REMARK    7  A    between atoms: O2_8  and  C7_9 
REMARK    8  A    between atoms: C7_9  and  C8_10 
REMARK    9  A    between atoms: C8_10  and  C9_11 
REMARK   10  A    between atoms: C9_11  and  C10_12 
REMARK   11  A    between atoms: C10_12  and  C11_13 
REMARK   12  A    between atoms: C11_13  and  C12_14 
REMARK   13  A    between atoms: C12_14  and  C13_15 
REMARK   14  A    between atoms: C13_15  and  C14_16 
REMARK   15  A    between atoms: C14_16  and  O3_17 
REMARK   16  A    between atoms: O3_17  and  C15_18 
REMARK   17  A    between atoms: C15_18  and  C17_20 
REMARK   18  A    between atoms: C17_20  and  N1_21 
REMARK   19  A    between atoms: N1_21  and  O4_22 
REMARK   20  A    between atoms: N1_21  and  C18_24 
ROOT
HETATM    1  C13 UNL     1      21.087   5.590  53.133  1.00  0.00     0.030 C 
ENDROOT
BRANCH   1   2
HETATM    2  C12 UNL     1      19.662   5.086  52.957  1.00  0.00     0.029 C 
BRANCH   2   3
HETATM    3  C11 UNL     1      19.089   4.385  54.108  1.00  0.00    -0.031 C 
BRANCH   3   4
HETATM    4  C10 UNL     1      19.747   4.243  55.391  1.00  0.00    -0.031 C 
BRANCH   4   5
HETATM    5  C9  UNL     1      19.474   5.108  56.555  1.00  0.00     0.029 C 
BRANCH   5   6
HETATM    6  C8  UNL     1      19.463   6.567  56.332  1.00  0.00     0.030 C 
BRANCH   6   7
HETATM    7  C7  UNL     1      18.455   7.385  57.084  1.00  0.00     0.168 C 
BRANCH   7   8
HETATM    8  O2  UNL     1      18.742   8.100  58.138  1.00  0.00    -0.389 OA
BRANCH   8   9
HETATM    9  C6  UNL     1      19.426   9.221  58.280  1.00  0.00     0.193 C 
BRANCH   9  10
HETATM   10  C5  UNL     1      19.236  10.208  57.118  1.00  0.00     0.193 C 
BRANCH  10  11
HETATM   11  O1  UNL     1      18.979  11.464  57.465  1.00  0.00    -0.389 OA
BRANCH  11  12
HETATM   12  C4  UNL     1      18.387  11.898  58.563  1.00  0.00     0.171 C 
BRANCH  12  13
HETATM   13  C3  UNL     1      19.001  12.900  59.462  1.00  0.00     0.052 C 
BRANCH  13  14
HETATM   14  C2  UNL     1      18.804  14.304  59.097  1.00  0.00    -0.035 C 
HETATM   15  C1  UNL     1      18.436  15.236  60.005  1.00  0.00     0.007 C 
ENDBRANCH  13  14
ENDBRANCH  12  13
ENDBRANCH  11  12
ENDBRANCH  10  11
ENDBRANCH   9  10
ENDBRANCH   8   9
ENDBRANCH   7   8
ENDBRANCH   6   7
ENDBRANCH   5   6
ENDBRANCH   4   5
ENDBRANCH   3   4
ENDBRANCH   2   3
ENDBRANCH   1   2
BRANCH   1  16
HETATM   16  C14 UNL     1      22.089   4.706  52.472  1.00  0.00     0.168 C 
BRANCH  16  17
HETATM   17  O3  UNL     1      21.561   3.944  51.462  1.00  0.00    -0.385 OA
BRANCH  17  18
HETATM   18  C15 UNL     1      21.922   2.620  51.430  1.00  0.00     0.137 C 
HETATM   19  C16 UNL     1      20.943   1.714  52.094  1.00  0.00     0.041 C 
BRANCH  18  20
HETATM   20  C17 UNL     1      22.154   2.240  49.999  1.00  0.00     0.181 C 
BRANCH  20  21
HETATM   21  N1  UNL     1      23.121   2.988  49.296  1.00  0.00    -0.286 N 
BRANCH  21  22
HETATM   22  O4  UNL     1      24.154   3.237  49.912  1.00  0.00    -0.291 OA
ATOM     23  H4  UNL     1      24.729   3.879  49.511  1.00  0.00     0.244 HD
ENDBRANCH  21  22
BRANCH  21  24
HETATM   24  C18 UNL     1      23.036   3.480  47.969  1.00  0.00     0.131 C 
HETATM   25  C19 UNL     1      21.690   4.100  47.707  1.00  0.00    -0.004 C 
HETATM   26  C20 UNL     1      21.410   4.435  46.463  1.00  0.00    -0.029 C 
HETATM   27  C21 UNL     1      22.452   4.166  45.437  1.00  0.00     0.027 C 
HETATM   28  C22 UNL     1      23.035   2.785  45.567  1.00  0.00     0.006 C 
HETATM   29  C23 UNL     1      23.099   2.300  46.986  1.00  0.00     0.031 C 
ENDBRANCH  21  24
ENDBRANCH  20  21
ENDBRANCH  18  20
ENDBRANCH  17  18
ENDBRANCH  16  17
ENDBRANCH   1  16
TORSDOF 20
ENDMDL
MODEL 3
REMARK VINA RESULT: -7.592971945      2.171      3.602
REMARK  20 active torsions:
REMARK  status: ('A' for Active; 'I' for Inactive)
REMARK    1  A    between atoms: C2_2  and  C3_3 
REMARK    2  A    between atoms: C3_3  and  C4_4 
REMARK    3  A    between atoms: C4_4  and  O1_5 
REMARK    4  A    between atoms: O1_5  and  C5_6 
REMARK    5  A    between atoms: C5_6  and  C6_7 
REMARK    6  A    between atoms: C6_7  and  O2_8 
REMARK    7  A    between atoms: O2_8  and  C7_9 
REMARK    8  A    between atoms: C7_9  and  C8_10 
REMARK    9  A    between atoms: C8_10  and  C9_11 
REMARK   10  A    between atoms: C9_11  and  C10_12 
REMARK   11  A    between atoms: C10_12  and  C11_13 
REMARK   12  A    between atoms: C11_13  and  C12_14 
REMARK   13  A    between atoms: C12_14  and  C13_15 
REMARK   14  A    between atoms: C13_15  and  C14_16 
REMARK   15  A    between atoms: C14_16  and  O3_17 
REMARK   16  A    between atoms: O3_17  and  C15_18 
REMARK   17  A    between atoms: C15_18  and  C17_20 
REMARK   18  A    between atoms: C17_20  and  N1_21 
REMARK   19  A    between atoms: N1_21  and  O4_22 
REMARK   20  A    between atoms: N1_21  and  C18_24 
ROOT
HETATM    1  C13 UNL     1      22.627   3.304  50.234  1.00  0.00     0.030 C 
ENDROOT
BRANCH   1   2
HETATM    2  C12 UNL     1      21.706   2.294  50.902  1.00  0.00     0.029 C 
BRANCH   2   3
HETATM    3  C11 UNL     1      21.028   2.757  52.115  1.00  0.00    -0.031 C 
BRANCH   3   4
HETATM    4  C10 UNL     1      20.918   4.146  52.512  1.00  0.00    -0.031 C 
BRANCH   4   5
HETATM    5  C9  UNL     1      19.656   4.785  52.933  1.00  0.00     0.029 C 
BRANCH   5   6
HETATM    6  C8  UNL     1      19.464   5.025  54.377  1.00  0.00     0.030 C 
BRANCH   6   7
HETATM    7  C7  UNL     1      20.661   4.909  55.274  1.00  0.00     0.168 C 
BRANCH   7   8
HETATM    8  O2  UNL     1      20.675   4.217  56.380  1.00  0.00    -0.389 OA
BRANCH   8   9
HETATM    9  C6  UNL     1      19.936   4.290  57.471  1.00  0.00     0.193 C 
BRANCH   9  10
HETATM   10  C5  UNL     1      20.547   5.172  58.570  1.00  0.00     0.193 C 
BRANCH  10  11
HETATM   11  O1  UNL     1      20.059   6.405  58.659  1.00  0.00    -0.389 OA
BRANCH  11  12
HETATM   12  C4  UNL     1      20.368   7.455  57.920  1.00  0.00     0.171 C 
BRANCH  12  13
HETATM   13  C3  UNL     1      19.427   8.057  56.949  1.00  0.00     0.052 C 
BRANCH  13  14
HETATM   14  C2  UNL     1      18.019   7.687  57.097  1.00  0.00    -0.035 C 
HETATM   15  C1  UNL     1      17.076   8.584  57.461  1.00  0.00     0.007 C 
ENDBRANCH  13  14
ENDBRANCH  12  13
ENDBRANCH  11  12
ENDBRANCH  10  11
ENDBRANCH   9  10
ENDBRANCH   8   9
ENDBRANCH   7   8
ENDBRANCH   6   7
ENDBRANCH   5   6
ENDBRANCH   4   5
ENDBRANCH   3   4
ENDBRANCH   2   3
ENDBRANCH   1   2
BRANCH   1  16
HETATM   16  C14 UNL     1      21.994   3.962  49.057  1.00  0.00     0.168 C 
BRANCH  16  17
HETATM   17  O3  UNL     1      21.925   3.154  47.952  1.00  0.00    -0.385 OA
BRANCH  17  18
HETATM   18  C15 UNL     1      23.114   2.820  47.352  1.00  0.00     0.137 C 
HETATM   19  C16 UNL     1      23.234   1.373  47.019  1.00  0.00     0.041 C 
BRANCH  18  20
HETATM   20  C17 UNL     1      23.278   3.687  46.141  1.00  0.00     0.181 C 
BRANCH  20  21
HETATM   21  N1  UNL     1      22.099   4.036  45.451  1.00  0.00    -0.286 N 
BRANCH  21  22
HETATM   22  O4  UNL     1      21.611   5.125  45.745  1.00  0.00    -0.291 OA
ATOM     23  H4  UNL     1      20.662   5.170  45.728  1.00  0.00     0.244 HD
ENDBRANCH  21  22
BRANCH  21  24
HETATM   24  C18 UNL     1      21.417   3.280  44.464  1.00  0.00     0.131 C 
HETATM   25  C19 UNL     1      22.384   2.682  43.477  1.00  0.00    -0.004 C 
HETATM   26  C20 UNL     1      21.876   2.107  42.405  1.00  0.00    -0.029 C 
HETATM   27  C21 UNL     1      20.395   2.105  42.273  1.00  0.00     0.027 C 
HETATM   28  C22 UNL     1      19.796   3.453  42.567  1.00  0.00     0.006 C 
HETATM   29  C23 UNL     1      20.552   4.223  43.612  1.00  0.00     0.031 C 
ENDBRANCH  21  24
ENDBRANCH  20  21
ENDBRANCH  18  20
ENDBRANCH  17  18
ENDBRANCH  16  17
ENDBRANCH   1  16
TORSDOF 20
ENDMDL
MODEL 4
REMARK VINA RESULT: -7.471818347      3.071      5.931
REMARK  20 active torsions:
REMARK  status: ('A' for Active; 'I' for Inactive)
REMARK    1  A    between atoms: C2_2  and  C3_3 
REMARK    2  A    between atoms: C3_3  and  C4_4 
REMARK    3  A    between atoms: C4_4  and  O1_5 
REMARK    4  A    between atoms: O1_5  and  C5_6 
REMARK    5  A    between atoms: C5_6  and  C6_7 
REMARK    6  A    between atoms: C6_7  and  O2_8 
REMARK    7  A    between atoms: O2_8  and  C7_9 
REMARK    8  A    between atoms: C7_9  and  C8_10 
REMARK    9  A    between atoms: C8_10  and  C9_11 
REMARK   10  A    between atoms: C9_11  and  C10_12 
REMARK   11  A    between atoms: C10_12  and  C11_13 
REMARK   12  A    between atoms: C11_13  and  C12_14 
REMARK   13  A    between atoms: C12_14  and  C13_15 
REMARK   14  A    between atoms: C13_15  and  C14_16 
REMARK   15  A    between atoms: C14_16  and  O3_17 
REMARK   16  A    between atoms: O3_17  and  C15_18 
REMARK   17  A    between atoms: C15_18  and  C17_20 
REMARK   18  A    between atoms: C17_20  and  N1_21 
REMARK   19  A    between atoms: N1_21  and  O4_22 
REMARK   20  A    between atoms: N1_21  and  C18_24 
ROOT
HETATM    1  C13 UNL     1      19.375   7.109  57.345  1.00  0.00     0.030 C 
ENDROOT
BRANCH   1   2
HETATM    2  C12 UNL     1      18.221   8.071  57.104  1.00  0.00     0.029 C 
BRANCH   2   3
HETATM    3  C11 UNL     1      18.566   9.494  57.110  1.00  0.00    -0.031 C 
BRANCH   3   4
HETATM    4  C10 UNL     1      17.613  10.567  57.304  1.00  0.00    -0.031 C 
BRANCH   4   5
HETATM    5  C9  UNL     1      16.551  10.549  58.329  1.00  0.00     0.029 C 
BRANCH   5   6
HETATM    6  C8  UNL     1      16.916  10.969  59.695  1.00  0.00     0.030 C 
BRANCH   6   7
HETATM    7  C7  UNL     1      17.036   9.908  60.749  1.00  0.00     0.168 C 
BRANCH   7   8
HETATM    8  O2  UNL     1      18.166   9.355  61.097  1.00  0.00    -0.389 OA
BRANCH   8   9
HETATM    9  C6  UNL     1      19.406   9.561  60.693  1.00  0.00     0.193 C 
BRANCH   9  10
HETATM   10  C5  UNL     1      20.466   9.149  61.726  1.00  0.00     0.193 C 
BRANCH  10  11
HETATM   11  O1  UNL     1      21.008   7.949  61.550  1.00  0.00    -0.389 OA
BRANCH  11  12
HETATM   12  C4  UNL     1      21.552   7.458  60.452  1.00  0.00     0.171 C 
BRANCH  12  13
HETATM   13  C3  UNL     1      21.913   6.030  60.305  1.00  0.00     0.052 C 
BRANCH  13  14
HETATM   14  C2  UNL     1      22.421   5.622  58.995  1.00  0.00    -0.035 C 
HETATM   15  C1  UNL     1      23.720   5.308  58.795  1.00  0.00     0.007 C 
ENDBRANCH  13  14
ENDBRANCH  12  13
ENDBRANCH  11  12
ENDBRANCH  10  11
ENDBRANCH   9  10
ENDBRANCH   8   9
ENDBRANCH   7   8
ENDBRANCH   6   7
ENDBRANCH   5   6
ENDBRANCH   4   5
ENDBRANCH   3   4
ENDBRANCH   2   3
ENDBRANCH   1   2
BRANCH   1  16
HETATM   16  C14 UNL     1      19.792   6.396  56.104  1.00  0.00     0.168 C 
BRANCH  16  17
HETATM   17  O3  UNL     1      19.210   5.163  55.963  1.00  0.00    -0.385 OA
BRANCH  17  18
HETATM   18  C15 UNL     1      20.055   4.086  55.864  1.00  0.00     0.137 C 
HETATM   19  C16 UNL     1      20.229   3.339  57.142  1.00  0.00     0.041 C 
BRANCH  18  20
HETATM   20  C17 UNL     1      19.548   3.202  54.766  1.00  0.00     0.181 C 
BRANCH  20  21
HETATM   21  N1  UNL     1      19.373   3.802  53.502  1.00  0.00    -0.286 N 
BRANCH  21  22
HETATM   22  O4  UNL     1      18.327   4.429  53.349  1.00  0.00    -0.291 OA
ATOM     23  H4  UNL     1      17.700   4.045  52.747  1.00  0.00     0.244 HD
ENDBRANCH  21  22
BRANCH  21  24
HETATM   24  C18 UNL     1      20.259   3.765  52.396  1.00  0.00     0.131 C 
HETATM   25  C19 UNL     1      20.804   2.377  52.187  1.00  0.00    -0.004 C 
HETATM   26  C20 UNL     1      21.777   2.236  51.309  1.00  0.00    -0.029 C 
HETATM   27  C21 UNL     1      22.245   3.461  50.609  1.00  0.00     0.027 C 
HETATM   28  C22 UNL     1      22.459   4.610  51.558  1.00  0.00     0.006 C 
HETATM   29  C23 UNL     1      21.505   4.607  52.717  1.00  0.00     0.031 C 
ENDBRANCH  21  24
ENDBRANCH  20  21
ENDBRANCH  18  20
ENDBRANCH  17  18
ENDBRANCH  16  17
ENDBRANCH   1  16
TORSDOF 20
ENDMDL
MODEL 5
REMARK VINA RESULT: -7.429635582      1.144      1.464
REMARK  20 active torsions:
REMARK  status: ('A' for Active; 'I' for Inactive)
REMARK    1  A    between atoms: C2_2  and  C3_3 
REMARK    2  A    between atoms: C3_3  and  C4_4 
REMARK    3  A    between atoms: C4_4  and  O1_5 
REMARK    4  A    between atoms: O1_5  and  C5_6 
REMARK    5  A    between atoms: C5_6  and  C6_7 
REMARK    6  A    between atoms: C6_7  and  O2_8 
REMARK    7  A    between atoms: O2_8  and  C7_9 
REMARK    8  A    between atoms: C7_9  and  C8_10 
REMARK    9  A    between atoms: C8_10  and  C9_11 
REMARK   10  A    between atoms: C9_11  and  C10_12 
REMARK   11  A    between atoms: C10_12  and  C11_13 
REMARK   12  A    between atoms: C11_13  and  C12_14 
REMARK   13  A    between atoms: C12_14  and  C13_15 
REMARK   14  A    between atoms: C13_15  and  C14_16 
REMARK   15  A    between atoms: C14_16  and  O3_17 
REMARK   16  A    between atoms: O3_17  and  C15_18 
REMARK   17  A    between atoms: C15_18  and  C17_20 
REMARK   18  A    between atoms: C17_20  and  N1_21 
REMARK   19  A    between atoms: N1_21  and  O4_22 
REMARK   20  A    between atoms: N1_21  and  C18_24 
ROOT
HETATM    1  C13 UNL     1      21.455   4.918  53.241  1.00  0.00     0.030 C 
ENDROOT
BRANCH   1   2
HETATM    2  C12 UNL     1      20.001   5.345  53.104  1.00  0.00     0.029 C 
BRANCH   2   3
HETATM    3  C11 UNL     1      19.036   4.577  53.892  1.00  0.00    -0.031 C 
BRANCH   3   4
HETATM    4  C10 UNL     1      19.342   3.342  54.584  1.00  0.00    -0.031 C 
BRANCH   4   5
HETATM    5  C9  UNL     1      19.243   3.172  56.047  1.00  0.00     0.029 C 
BRANCH   5   6
HETATM    6  C8  UNL     1      20.347   3.703  56.870  1.00  0.00     0.030 C 
BRANCH   6   7
HETATM    7  C7  UNL     1      20.168   5.053  57.500  1.00  0.00     0.168 C 
BRANCH   7   8
HETATM    8  O2  UNL     1      19.337   5.956  57.057  1.00  0.00    -0.389 OA
BRANCH   8   9
HETATM    9  C6  UNL     1      19.527   7.188  56.622  1.00  0.00     0.193 C 
BRANCH   9  10
HETATM   10  C5  UNL     1      18.923   8.263  57.538  1.00  0.00     0.193 C 
BRANCH  10  11
HETATM   11  O1  UNL     1      17.841   8.877  57.072  1.00  0.00    -0.389 OA
BRANCH  11  12
HETATM   12  C4  UNL     1      16.598   8.768  57.502  1.00  0.00     0.171 C 
BRANCH  12  13
HETATM   13  C3  UNL     1      15.700   9.934  57.662  1.00  0.00     0.052 C 
BRANCH  13  14
HETATM   14  C2  UNL     1      15.712  10.585  58.972  1.00  0.00    -0.035 C 
HETATM   15  C1  UNL     1      15.634   9.881  60.124  1.00  0.00     0.007 C 
ENDBRANCH  13  14
ENDBRANCH  12  13
ENDBRANCH  11  12
ENDBRANCH  10  11
ENDBRANCH   9  10
ENDBRANCH   8   9
ENDBRANCH   7   8
ENDBRANCH   6   7
ENDBRANCH   5   6
ENDBRANCH   4   5
ENDBRANCH   3   4
ENDBRANCH   2   3
ENDBRANCH   1   2
BRANCH   1  16
HETATM   16  C14 UNL     1      22.095   4.642  51.923  1.00  0.00     0.168 C 
BRANCH  16  17
HETATM   17  O3  UNL     1      22.866   3.509  51.918  1.00  0.00    -0.385 OA
BRANCH  17  18
HETATM   18  C15 UNL     1      22.413   2.454  51.164  1.00  0.00     0.137 C 
HETATM   19  C16 UNL     1      21.292   1.703  51.795  1.00  0.00     0.041 C 
BRANCH  18  20
HETATM   20  C17 UNL     1      22.041   2.981  49.812  1.00  0.00     0.181 C 
BRANCH  20  21
HETATM   21  N1  UNL     1      23.093   3.153  48.890  1.00  0.00    -0.286 N 
BRANCH  21  22
HETATM   22  O4  UNL     1      24.225   2.975  49.333  1.00  0.00    -0.291 OA
ATOM     23  H4  UNL     1      24.275   2.534  50.173  1.00  0.00     0.244 HD
ENDBRANCH  21  22
BRANCH  21  24
HETATM   24  C18 UNL     1      22.995   3.505  47.520  1.00  0.00     0.131 C 
HETATM   25  C19 UNL     1      21.639   4.080  47.206  1.00  0.00    -0.004 C 
HETATM   26  C20 UNL     1      21.347   4.281  45.936  1.00  0.00    -0.029 C 
HETATM   27  C21 UNL     1      22.385   3.920  44.935  1.00  0.00     0.027 C 
HETATM   28  C22 UNL     1      22.985   2.566  45.202  1.00  0.00     0.006 C 
HETATM   29  C23 UNL     1      23.064   2.230  46.663  1.00  0.00     0.031 C 
ENDBRANCH  21  24
ENDBRANCH  20  21
ENDBRANCH  18  20
ENDBRANCH  17  18
ENDBRANCH  16  17
ENDBRANCH   1  16
TORSDOF 20
ENDMDL
