MODEL 1
REMARK VINA RESULT: -7.368556495      0.000      0.000
REMARK  18 active torsions:
REMARK  status: ('A' for Active; 'I' for Inactive)
REMARK    1  A    between atoms: C2_2  and  C3_3 
REMARK    2  A    between atoms: C3_3  and  C4_4 
REMARK    3  A    between atoms: C3_3  and  N3_21 
REMARK    4  A    between atoms: N1_8  and  C8_9 
REMARK    5  A    between atoms: C8_9  and  C9_10 
REMARK    6  A    between atoms: C9_10  and  N2_11 
REMARK    7  A    between atoms: N2_11  and  C10_12 
REMARK    8  A    between atoms: N2_11  and  C11_14 
REMARK    9  A    between atoms: C11_14  and  C13_16 
REMARK   10  A    between atoms: C13_16  and  C14_17 
REMARK   11  A    between atoms: C14_17  and  C15_18 
REMARK   12  A    between atoms: C15_18  and  C16_19 
REMARK   13  A    between atoms: N3_21  and  C18_22 
REMARK   14  A    between atoms: N3_21  and  N4_27 
REMARK   15  A    between atoms: C18_22  and  C19_23 
REMARK   16  A    between atoms: C19_23  and  C20_24 
REMARK   17  A    between atoms: C20_24  and  C21_25 
REMARK   18  A    between atoms: N4_27  and  C23_29 
ROOT
HETATM    1  C4  UNL     1      19.292  10.600  58.166  1.00  0.00     0.251 C 
HETATM    2  C5  UNL     1      18.018  10.976  57.533  1.00  0.00     0.040 C 
HETATM    3  C6  UNL     1      17.313   9.640  57.311  1.00  0.00     0.032 C 
HETATM    4  C7  UNL     1      17.783   8.891  58.502  1.00  0.00     0.273 C 
HETATM    5  N1  UNL     1      19.201   9.201  58.659  1.00  0.00     0.100 N 
ENDROOT
BRANCH   1   6
HETATM    6  C3  UNL     1      19.598  11.497  59.340  1.00  0.00     0.162 C 
BRANCH   6   7
HETATM    7  C2  UNL     1      18.632  12.671  59.128  1.00  0.00    -0.008 C 
HETATM    8  C1  UNL     1      19.026  13.910  59.072  1.00  0.00     0.009 C 
ENDBRANCH   6   7
BRANCH   6   9
HETATM    9  N3  UNL     1      19.266  11.003  60.605  1.00  0.00    -0.295 N 
BRANCH   9  10
HETATM   10  C18 UNL     1      18.060  11.213  61.240  1.00  0.00     0.084 C 
BRANCH  10  11
HETATM   11  C19 UNL     1      18.072  11.782  62.636  1.00  0.00     0.046 C 
BRANCH  11  12
HETATM   12  C20 UNL     1      17.632  13.227  62.691  1.00  0.00     0.005 C 
BRANCH  12  13
HETATM   13  C21 UNL     1      18.839  14.108  62.764  1.00  0.00    -0.004 C 
HETATM   14  C22 UNL     1      18.529  15.522  62.381  1.00  0.00     0.005 C 
ENDBRANCH  12  13
ENDBRANCH  11  12
ENDBRANCH  10  11
ENDBRANCH   9  10
BRANCH   9  15
HETATM   15  N4  UNL     1      20.360  10.695  61.394  1.00  0.00    -0.275 N 
ATOM     16  H4  UNL     1      20.997  11.461  61.614  1.00  0.00     0.189 HD
BRANCH  15  17
HETATM   17  C23 UNL     1      20.679   9.438  61.920  1.00  0.00     0.368 C 
HETATM   18  O2  UNL     1      20.722   9.157  63.144  1.00  0.00    -0.282 OA
ENDBRANCH  15  17
ENDBRANCH   9  15
ENDBRANCH   6   9
ENDBRANCH   1   6
BRANCH   5  19
HETATM   19  C8  UNL     1      19.935   8.329  57.781  1.00  0.00     0.318 C 
BRANCH  19  20
HETATM   20  C9  UNL     1      19.626   6.915  57.678  1.00  0.00     0.102 C 
BRANCH  20  21
HETATM   21  N2  UNL     1      20.493   5.911  58.190  1.00  0.00    -0.310 N 
BRANCH  21  22
HETATM   22  C10 UNL     1      21.197   6.225  59.408  1.00  0.00     0.359 C 
HETATM   23  O1  UNL     1      21.316   5.505  60.396  1.00  0.00    -0.283 OA
ENDBRANCH  21  22
BRANCH  21  24
HETATM   24  C11 UNL     1      20.578   4.634  57.566  1.00  0.00    -0.008 C 
HETATM   25  C12 UNL     1      21.975   4.422  57.020  1.00  0.00     0.064 C 
BRANCH  24  26
HETATM   26  C13 UNL     1      19.515   4.092  56.718  1.00  0.00     0.052 C 
BRANCH  26  27
HETATM   27  C14 UNL     1      19.760   3.756  55.303  1.00  0.00     0.006 C 
BRANCH  27  28
HETATM   28  C15 UNL     1      19.053   4.847  54.474  1.00  0.00     0.000 C 
BRANCH  28  29
HETATM   29  C16 UNL     1      19.663   4.958  53.111  1.00  0.00    -0.005 C 
HETATM   30  C17 UNL     1      21.050   5.538  53.285  1.00  0.00     0.005 C 
ENDBRANCH  28  29
ENDBRANCH  27  28
ENDBRANCH  26  27
ENDBRANCH  24  26
ENDBRANCH  21  24
ENDBRANCH  20  21
ENDBRANCH  19  20
ENDBRANCH   5  19
TORSDOF 18
ENDMDL
MODEL 2
REMARK VINA RESULT: -7.332997964      1.189      1.446
REMARK  18 active torsions:
REMARK  status: ('A' for Active; 'I' for Inactive)
REMARK    1  A    between atoms: C2_2  and  C3_3 
REMARK    2  A    between atoms: C3_3  and  C4_4 
REMARK    3  A    between atoms: C3_3  and  N3_21 
REMARK    4  A    between atoms: N1_8  and  C8_9 
REMARK    5  A    between atoms: C8_9  and  C9_10 
REMARK    6  A    between atoms: C9_10  and  N2_11 
REMARK    7  A    between atoms: N2_11  and  C10_12 
REMARK    8  A    between atoms: N2_11  and  C11_14 
REMARK    9  A    between atoms: C11_14  and  C13_16 
REMARK   10  A    between atoms: C13_16  and  C14_17 
REMARK   11  A    between atoms: C14_17  and  C15_18 
REMARK   12  A    between atoms: C15_18  and  C16_19 
REMARK   13  A    between atoms: N3_21  and  C18_22 
REMARK   14  A    between atoms: N3_21  and  N4_27 
REMARK   15  A    between atoms: C18_22  and  C19_23 
REMARK   16  A    between atoms: C19_23  and  C20_24 
REMARK   17  A    between atoms: C20_24  and  C21_25 
REMARK   18  A    between atoms: N4_27  and  C23_29 
ROOT
HETATM    1  C4  UNL     1      18.877  10.502  57.985  1.00  0.00     0.251 C 
HETATM    2  C5  UNL     1      17.647  11.111  57.454  1.00  0.00     0.040 C 
HETATM    3  C6  UNL     1      16.643   9.961  57.453  1.00  0.00     0.032 C 
HETATM    4  C7  UNL     1      17.085   9.221  58.661  1.00  0.00     0.273 C 
HETATM    5  N1  UNL     1      18.544   9.207  58.632  1.00  0.00     0.100 N 
ENDROOT
BRANCH   1   6
HETATM    6  C3  UNL     1      19.521  11.396  59.017  1.00  0.00     0.162 C 
BRANCH   6   7
HETATM    7  C2  UNL     1      18.626  12.643  58.988  1.00  0.00    -0.008 C 
HETATM    8  C1  UNL     1      19.101  13.854  59.025  1.00  0.00     0.009 C 
ENDBRANCH   6   7
BRANCH   6   9
HETATM    9  N3  UNL     1      19.461  10.959  60.344  1.00  0.00    -0.295 N 
BRANCH   9  10
HETATM   10  C18 UNL     1      18.622  11.482  61.306  1.00  0.00     0.084 C 
BRANCH  10  11
HETATM   11  C19 UNL     1      17.372  10.719  61.662  1.00  0.00     0.046 C 
BRANCH  11  12
HETATM   12  C20 UNL     1      16.105  11.496  61.388  1.00  0.00     0.005 C 
BRANCH  12  13
HETATM   13  C21 UNL     1      16.245  12.879  61.941  1.00  0.00    -0.004 C 
HETATM   14  C22 UNL     1      15.474  13.885  61.143  1.00  0.00     0.005 C 
ENDBRANCH  12  13
ENDBRANCH  11  12
ENDBRANCH  10  11
ENDBRANCH   9  10
BRANCH   9  15
HETATM   15  N4  UNL     1      20.602  10.307  60.774  1.00  0.00    -0.275 N 
ATOM     16  H4  UNL     1      21.494  10.675  60.443  1.00  0.00     0.189 HD
BRANCH  15  17
HETATM   17  C23 UNL     1      20.655   9.192  61.620  1.00  0.00     0.368 C 
HETATM   18  O2  UNL     1      20.792   9.238  62.867  1.00  0.00    -0.282 OA
ENDBRANCH  15  17
ENDBRANCH   9  15
ENDBRANCH   6   9
ENDBRANCH   1   6
BRANCH   5  19
HETATM   19  C8  UNL     1      18.949   8.120  57.780  1.00  0.00     0.318 C 
BRANCH  19  20
HETATM   20  C9  UNL     1      20.263   7.514  57.889  1.00  0.00     0.102 C 
BRANCH  20  21
HETATM   21  N2  UNL     1      20.455   6.107  57.815  1.00  0.00    -0.310 N 
BRANCH  21  22
HETATM   22  C10 UNL     1      21.229   5.504  58.871  1.00  0.00     0.359 C 
HETATM   23  O1  UNL     1      20.927   5.439  60.060  1.00  0.00    -0.283 OA
ENDBRANCH  21  22
BRANCH  21  24
HETATM   24  C11 UNL     1      19.831   5.339  56.790  1.00  0.00    -0.008 C 
HETATM   25  C12 UNL     1      20.047   3.863  57.053  1.00  0.00     0.064 C 
BRANCH  24  26
HETATM   26  C13 UNL     1      19.886   5.710  55.375  1.00  0.00     0.052 C 
BRANCH  26  27
HETATM   27  C14 UNL     1      19.127   4.961  54.357  1.00  0.00     0.006 C 
BRANCH  27  28
HETATM   28  C15 UNL     1      19.929   5.088  53.046  1.00  0.00     0.000 C 
BRANCH  28  29
HETATM   29  C16 UNL     1      21.355   5.445  53.327  1.00  0.00    -0.005 C 
HETATM   30  C17 UNL     1      22.222   4.496  52.527  1.00  0.00     0.005 C 
ENDBRANCH  28  29
ENDBRANCH  27  28
ENDBRANCH  26  27
ENDBRANCH  24  26
ENDBRANCH  21  24
ENDBRANCH  20  21
ENDBRANCH  19  20
ENDBRANCH   5  19
TORSDOF 18
ENDMDL
MODEL 3
REMARK VINA RESULT: -7.316648622      1.099      1.918
REMARK  18 active torsions:
REMARK  status: ('A' for Active; 'I' for Inactive)
REMARK    1  A    between atoms: C2_2  and  C3_3 
REMARK    2  A    between atoms: C3_3  and  C4_4 
REMARK    3  A    between atoms: C3_3  and  N3_21 
REMARK    4  A    between atoms: N1_8  and  C8_9 
REMARK    5  A    between atoms: C8_9  and  C9_10 
REMARK    6  A    between atoms: C9_10  and  N2_11 
REMARK    7  A    between atoms: N2_11  and  C10_12 
REMARK    8  A    between atoms: N2_11  and  C11_14 
REMARK    9  A    between atoms: C11_14  and  C13_16 
REMARK   10  A    between atoms: C13_16  and  C14_17 
REMARK   11  A    between atoms: C14_17  and  C15_18 
REMARK   12  A    between atoms: C15_18  and  C16_19 
REMARK   13  A    between atoms: N3_21  and  C18_22 
REMARK   14  A    between atoms: N3_21  and  N4_27 
REMARK   15  A    between atoms: C18_22  and  C19_23 
REMARK   16  A    between atoms: C19_23  and  C20_24 
REMARK   17  A    between atoms: C20_24  and  C21_25 
REMARK   18  A    between atoms: N4_27  and  C23_29 
ROOT
HETATM    1  C4  UNL     1      19.379  10.368  59.286  1.00  0.00     0.251 C 
HETATM    2  C5  UNL     1      19.830  11.403  58.344  1.00  0.00     0.040 C 
HETATM    3  C6  UNL     1      19.701  10.734  56.978  1.00  0.00     0.032 C 
HETATM    4  C7  UNL     1      18.505   9.887  57.209  1.00  0.00     0.273 C 
HETATM    5  N1  UNL     1      18.654   9.307  58.540  1.00  0.00     0.100 N 
ENDROOT
BRANCH   1   6
HETATM    6  C3  UNL     1      18.442  10.947  60.318  1.00  0.00     0.162 C 
BRANCH   6   7
HETATM    7  C2  UNL     1      17.401   9.832  60.492  1.00  0.00    -0.008 C 
HETATM    8  C1  UNL     1      16.148  10.069  60.750  1.00  0.00     0.009 C 
ENDBRANCH   6   7
BRANCH   6   9
HETATM    9  N3  UNL     1      18.966  11.133  61.601  1.00  0.00    -0.295 N 
BRANCH   9  10
HETATM   10  C18 UNL     1      18.524  12.082  62.499  1.00  0.00     0.084 C 
BRANCH  10  11
HETATM   11  C19 UNL     1      18.798  13.535  62.203  1.00  0.00     0.046 C 
BRANCH  11  12
HETATM   12  C20 UNL     1      17.688  14.200  61.421  1.00  0.00     0.005 C 
BRANCH  12  13
HETATM   13  C21 UNL     1      18.267  15.276  60.558  1.00  0.00    -0.004 C 
HETATM   14  C22 UNL     1      18.758  14.743  59.247  1.00  0.00     0.005 C 
ENDBRANCH  12  13
ENDBRANCH  11  12
ENDBRANCH  10  11
ENDBRANCH   9  10
BRANCH   9  15
HETATM   15  N4  UNL     1      20.251  10.649  61.761  1.00  0.00    -0.275 N 
ATOM     16  H4  UNL     1      21.006  11.212  61.369  1.00  0.00     0.189 HD
BRANCH  15  17
HETATM   17  C23 UNL     1      20.620   9.463  62.408  1.00  0.00     0.368 C 
HETATM   18  O2  UNL     1      20.673   9.308  63.653  1.00  0.00    -0.282 OA
ENDBRANCH  15  17
ENDBRANCH   9  15
ENDBRANCH   6   9
ENDBRANCH   1   6
BRANCH   5  19
HETATM   19  C8  UNL     1      19.492   8.144  58.413  1.00  0.00     0.318 C 
BRANCH  19  20
HETATM   20  C9  UNL     1      19.073   6.981  57.654  1.00  0.00     0.102 C 
BRANCH  20  21
HETATM   21  N2  UNL     1      19.870   5.808  57.565  1.00  0.00    -0.310 N 
BRANCH  21  22
HETATM   22  C10 UNL     1      20.746   5.535  58.677  1.00  0.00     0.359 C 
HETATM   23  O1  UNL     1      20.460   4.939  59.712  1.00  0.00    -0.283 OA
ENDBRANCH  21  22
BRANCH  21  24
HETATM   24  C11 UNL     1      19.730   4.912  56.466  1.00  0.00    -0.008 C 
HETATM   25  C12 UNL     1      20.818   3.859  56.520  1.00  0.00     0.064 C 
BRANCH  24  26
HETATM   26  C13 UNL     1      19.398   5.363  55.113  1.00  0.00     0.052 C 
BRANCH  26  27
HETATM   27  C14 UNL     1      19.049   4.402  54.050  1.00  0.00     0.006 C 
BRANCH  27  28
HETATM   28  C15 UNL     1      19.802   4.868  52.788  1.00  0.00     0.000 C 
BRANCH  28  29
HETATM   29  C16 UNL     1      21.050   5.608  53.155  1.00  0.00    -0.005 C 
HETATM   30  C17 UNL     1      22.221   4.707  52.823  1.00  0.00     0.005 C 
ENDBRANCH  28  29
ENDBRANCH  27  28
ENDBRANCH  26  27
ENDBRANCH  24  26
ENDBRANCH  21  24
ENDBRANCH  20  21
ENDBRANCH  19  20
ENDBRANCH   5  19
TORSDOF 18
ENDMDL
MODEL 4
REMARK VINA RESULT: -7.314133491      1.788      2.818
REMARK  18 active torsions:
REMARK  status: ('A' for Active; 'I' for Inactive)
REMARK    1  A    between atoms: C2_2  and  C3_3 
REMARK    2  A    between atoms: C3_3  and  C4_4 
REMARK    3  A    between atoms: C3_3  and  N3_21 
REMARK    4  A    between atoms: N1_8  and  C8_9 
REMARK    5  A    between atoms: C8_9  and  C9_10 
REMARK    6  A    between atoms: C9_10  and  N2_11 
REMARK    7  A    between atoms: N2_11  and  C10_12 
REMARK    8  A    between atoms: N2_11  and  C11_14 
REMARK    9  A    between atoms: C11_14  and  C13_16 
REMARK   10  A    between atoms: C13_16  and  C14_17 
REMARK   11  A    between atoms: C14_17  and  C15_18 
REMARK   12  A    between atoms: C15_18  and  C16_19 
REMARK   13  A    between atoms: N3_21  and  C18_22 
REMARK   14  A    between atoms: N3_21  and  N4_27 
REMARK   15  A    between atoms: C18_22  and  C19_23 
REMARK   16  A    between atoms: C19_23  and  C20_24 
REMARK   17  A    between atoms: C20_24  and  C21_25 
REMARK   18  A    between atoms: N4_27  and  C23_29 
ROOT
HETATM    1  C4  UNL     1      19.385   9.267  58.935  1.00  0.00     0.251 C 
HETATM    2  C5  UNL     1      19.779  10.526  58.283  1.00  0.00     0.040 C 
HETATM    3  C6  UNL     1      18.987  10.523  56.978  1.00  0.00     0.032 C 
HETATM    4  C7  UNL     1      17.745   9.844  57.422  1.00  0.00     0.273 C 
HETATM    5  N1  UNL     1      18.158   8.740  58.284  1.00  0.00     0.100 N 
ENDROOT
BRANCH   1   6
HETATM    6  C3  UNL     1      19.088   9.487  60.398  1.00  0.00     0.162 C 
BRANCH   6   7
HETATM    7  C2  UNL     1      20.461   9.868  60.968  1.00  0.00    -0.008 C 
HETATM    8  C1  UNL     1      21.258   9.004  61.526  1.00  0.00     0.009 C 
ENDBRANCH   6   7
BRANCH   6   9
HETATM    9  N3  UNL     1      18.271  10.578  60.711  1.00  0.00    -0.295 N 
BRANCH   9  10
HETATM   10  C18 UNL     1      18.716  11.874  60.869  1.00  0.00     0.084 C 
BRANCH  10  11
HETATM   11  C19 UNL     1      17.995  12.977  60.135  1.00  0.00     0.046 C 
BRANCH  11  12
HETATM   12  C20 UNL     1      18.916  13.830  59.294  1.00  0.00     0.005 C 
BRANCH  12  13
HETATM   13  C21 UNL     1      18.527  15.267  59.437  1.00  0.00    -0.004 C 
HETATM   14  C22 UNL     1      18.319  15.654  60.869  1.00  0.00     0.005 C 
ENDBRANCH  12  13
ENDBRANCH  11  12
ENDBRANCH  10  11
ENDBRANCH   9  10
BRANCH   9  15
HETATM   15  N4  UNL     1      17.078  10.233  61.320  1.00  0.00    -0.275 N 
ATOM     16  H4  UNL     1      17.063  10.244  62.340  1.00  0.00     0.189 HD
BRANCH  15  17
HETATM   17  C23 UNL     1      15.889   9.870  60.676  1.00  0.00     0.368 C 
HETATM   18  O2  UNL     1      15.287  10.571  59.825  1.00  0.00    -0.282 OA
ENDBRANCH  15  17
ENDBRANCH   9  15
ENDBRANCH   6   9
ENDBRANCH   1   6
BRANCH   5  19
HETATM   19  C8  UNL     1      18.498   7.631  57.434  1.00  0.00     0.318 C 
BRANCH  19  20
HETATM   20  C9  UNL     1      19.802   6.996  57.493  1.00  0.00     0.102 C 
BRANCH  20  21
HETATM   21  N2  UNL     1      19.974   5.601  57.283  1.00  0.00    -0.310 N 
BRANCH  21  22
HETATM   22  C10 UNL     1      20.593   4.858  58.352  1.00  0.00     0.359 C 
HETATM   23  O1  UNL     1      20.157   4.703  59.490  1.00  0.00    -0.283 OA
ENDBRANCH  21  22
BRANCH  21  24
HETATM   24  C11 UNL     1      19.471   4.973  56.108  1.00  0.00    -0.008 C 
HETATM   25  C12 UNL     1      19.490   3.468  56.283  1.00  0.00     0.064 C 
BRANCH  24  26
HETATM   26  C13 UNL     1      19.816   5.423  54.758  1.00  0.00     0.052 C 
BRANCH  26  27
HETATM   27  C14 UNL     1      19.124   4.886  53.571  1.00  0.00     0.006 C 
BRANCH  27  28
HETATM   28  C15 UNL     1      20.214   4.226  52.703  1.00  0.00     0.000 C 
BRANCH  28  29
HETATM   29  C16 UNL     1      21.556   4.827  52.985  1.00  0.00    -0.005 C 
HETATM   30  C17 UNL     1      22.428   4.569  51.775  1.00  0.00     0.005 C 
ENDBRANCH  28  29
ENDBRANCH  27  28
ENDBRANCH  26  27
ENDBRANCH  24  26
ENDBRANCH  21  24
ENDBRANCH  20  21
ENDBRANCH  19  20
ENDBRANCH   5  19
TORSDOF 18
ENDMDL
MODEL 5
REMARK VINA RESULT: -7.214465293      1.960      3.001
REMARK  18 active torsions:
REMARK  status: ('A' for Active; 'I' for Inactive)
REMARK    1  A    between atoms: C2_2  and  C3_3 
REMARK    2  A    between atoms: C3_3  and  C4_4 
REMARK    3  A    between atoms: C3_3  and  N3_21 
REMARK    4  A    between atoms: N1_8  and  C8_9 
REMARK    5  A    between atoms: C8_9  and  C9_10 
REMARK    6  A    between atoms: C9_10  and  N2_11 
REMARK    7  A    between atoms: N2_11  and  C10_12 
REMARK    8  A    between atoms: N2_11  and  C11_14 
REMARK    9  A    between atoms: C11_14  and  C13_16 
REMARK   10  A    between atoms: C13_16  and  C14_17 
REMARK   11  A    between atoms: C14_17  and  C15_18 
REMARK   12  A    between atoms: C15_18  and  C16_19 
REMARK   13  A    between atoms: N3_21  and  C18_22 
REMARK   14  A    between atoms: N3_21  and  N4_27 
REMARK   15  A    between atoms: C18_22  and  C19_23 
REMARK   16  A    between atoms: C19_23  and  C20_24 
REMARK   17  A    between atoms: C20_24  and  C21_25 
REMARK   18  A    between atoms: N4_27  and  C23_29 
ROOT
HETATM    1  C4  UNL     1      19.675   9.446  59.163  1.00  0.00     0.251 C 
HETATM    2  C5  UNL     1      19.317  10.482  58.182  1.00  0.00     0.040 C 
HETATM    3  C6  UNL     1      19.071   9.697  56.896  1.00  0.00     0.032 C 
HETATM    4  C7  UNL     1      18.496   8.448  57.454  1.00  0.00     0.273 C 
HETATM    5  N1  UNL     1      19.287   8.113  58.634  1.00  0.00     0.100 N 
ENDROOT
BRANCH   1   6
HETATM    6  C3  UNL     1      18.953   9.666  60.470  1.00  0.00     0.162 C 
BRANCH   6   7
HETATM    7  C2  UNL     1      20.105   9.877  61.462  1.00  0.00    -0.008 C 
HETATM    8  C1  UNL     1      20.840   8.900  61.909  1.00  0.00     0.009 C 
ENDBRANCH   6   7
BRANCH   6   9
HETATM    9  N3  UNL     1      18.192  10.835  60.572  1.00  0.00    -0.295 N 
BRANCH   9  10
HETATM   10  C18 UNL     1      18.679  12.055  60.993  1.00  0.00     0.084 C 
BRANCH  10  11
HETATM   11  C19 UNL     1      18.100  13.308  60.387  1.00  0.00     0.046 C 
BRANCH  11  12
HETATM   12  C20 UNL     1      18.901  13.822  59.212  1.00  0.00     0.005 C 
BRANCH  12  13
HETATM   13  C21 UNL     1      18.800  15.314  59.160  1.00  0.00    -0.004 C 
HETATM   14  C22 UNL     1      17.930  15.858  60.252  1.00  0.00     0.005 C 
ENDBRANCH  12  13
ENDBRANCH  11  12
ENDBRANCH  10  11
ENDBRANCH   9  10
BRANCH   9  15
HETATM   15  N4  UNL     1      16.832  10.614  60.687  1.00  0.00    -0.275 N 
ATOM     16  H4  UNL     1      16.403  10.846  61.583  1.00  0.00     0.189 HD
BRANCH  15  17
HETATM   17  C23 UNL     1      15.985  10.104  59.696  1.00  0.00     0.368 C 
HETATM   18  O2  UNL     1      15.811  10.615  58.562  1.00  0.00    -0.282 OA
ENDBRANCH  15  17
ENDBRANCH   9  15
ENDBRANCH   6   9
ENDBRANCH   1   6
BRANCH   5  19
HETATM   19  C8  UNL     1      20.459   7.409  58.184  1.00  0.00     0.318 C 
BRANCH  19  20
HETATM   20  C9  UNL     1      20.592   5.973  58.336  1.00  0.00     0.102 C 
BRANCH  20  21
HETATM   21  N2  UNL     1      20.747   5.105  57.221  1.00  0.00    -0.310 N 
BRANCH  21  22
HETATM   22  C10 UNL     1      22.031   4.466  57.072  1.00  0.00     0.359 C 
HETATM   23  O1  UNL     1      23.119   4.910  57.428  1.00  0.00    -0.283 OA
ENDBRANCH  21  22
BRANCH  21  24
HETATM   24  C11 UNL     1      19.650   4.824  56.357  1.00  0.00    -0.008 C 
HETATM   25  C12 UNL     1      19.493   3.326  56.198  1.00  0.00     0.064 C 
BRANCH  24  26
HETATM   26  C13 UNL     1      19.385   5.587  55.136  1.00  0.00     0.052 C 
BRANCH  26  27
HETATM   27  C14 UNL     1      19.684   5.029  53.804  1.00  0.00     0.006 C 
BRANCH  27  28
HETATM   28  C15 UNL     1      20.976   5.723  53.328  1.00  0.00     0.000 C 
BRANCH  28  29
HETATM   29  C16 UNL     1      22.049   4.718  53.049  1.00  0.00    -0.005 C 
HETATM   30  C17 UNL     1      21.415   3.591  52.261  1.00  0.00     0.005 C 
ENDBRANCH  28  29
ENDBRANCH  27  28
ENDBRANCH  26  27
ENDBRANCH  24  26
ENDBRANCH  21  24
ENDBRANCH  20  21
ENDBRANCH  19  20
ENDBRANCH   5  19
TORSDOF 18
ENDMDL
