MODEL 1
REMARK VINA RESULT: -8.063749688      0.000      0.000
REMARK  18 active torsions:
REMARK  status: ('A' for Active; 'I' for Inactive)
REMARK    1  A    between atoms: C2_2  and  C3_3 
REMARK    2  A    between atoms: C4_4  and  C5_5 
REMARK    3  A    between atoms: C5_5  and  C6_6 
REMARK    4  A    between atoms: C6_6  and  C7_7 
REMARK    5  A    between atoms: C7_7  and  O1_8 
REMARK    6  A    between atoms: O1_8  and  C8_9 
REMARK    7  A    between atoms: C8_9  and  C9_10 
REMARK    8  A    between atoms: C9_10  and  O2_11 
REMARK    9  A    between atoms: O2_11  and  C10_12 
REMARK   10  A    between atoms: C10_12  and  C11_13 
REMARK   11  A    between atoms: C11_13  and  O3_14 
REMARK   12  A    between atoms: O3_14  and  C12_15 
REMARK   13  A    between atoms: C12_15  and  C13_16 
REMARK   14  A    between atoms: C13_16  and  N1_17 
REMARK   15  A    between atoms: C16_20  and  C17_21 
REMARK   16  A    between atoms: C17_21  and  C18_22 
REMARK   17  A    between atoms: C18_22  and  C19_23 
REMARK   18  A    between atoms: C23_27  and  O4_28 
ROOT
HETATM    1  C12 UNL     1      20.916   1.957  52.132  1.00  0.00     0.196 C 
ENDROOT
BRANCH   1   2
HETATM    2  O3  UNL     1      22.049   1.593  51.418  1.00  0.00    -0.387 OA
BRANCH   2   3
HETATM    3  C11 UNL     1      22.729   2.627  50.830  1.00  0.00     0.193 C 
BRANCH   3   4
HETATM    4  C10 UNL     1      22.600   2.408  49.309  1.00  0.00     0.193 C 
BRANCH   4   5
HETATM    5  O2  UNL     1      21.647   3.306  48.879  1.00  0.00    -0.387 OA
BRANCH   5   6
HETATM    6  C9  UNL     1      21.939   3.967  47.701  1.00  0.00     0.193 C 
BRANCH   6   7
HETATM    7  C8  UNL     1      23.147   3.351  47.022  1.00  0.00     0.193 C 
BRANCH   7   8
HETATM    8  O1  UNL     1      23.469   4.120  45.919  1.00  0.00    -0.389 OA
BRANCH   8   9
HETATM    9  C7  UNL     1      23.988   3.384  44.894  1.00  0.00     0.171 C 
BRANCH   9  10
HETATM   10  C6  UNL     1      22.808   2.834  44.057  1.00  0.00     0.053 C 
BRANCH  10  11
HETATM   11  C5  UNL     1      21.869   3.961  43.848  1.00  0.00    -0.025 C 
BRANCH  11  12
HETATM   12  C4  UNL     1      20.505   3.795  43.369  1.00  0.00    -0.008 C 
HETATM   13  C3  UNL     1      19.995   3.059  42.254  1.00  0.00    -0.027 C 
BRANCH  13  14
HETATM   14  C2  UNL     1      20.027   1.614  42.036  1.00  0.00     0.022 C 
HETATM   15  C1  UNL     1      21.096   0.971  41.256  1.00  0.00     0.009 C 
ENDBRANCH  13  14
ENDBRANCH  11  12
ENDBRANCH  10  11
ENDBRANCH   9  10
ENDBRANCH   8   9
ENDBRANCH   7   8
ENDBRANCH   6   7
ENDBRANCH   5   6
ENDBRANCH   4   5
ENDBRANCH   3   4
ENDBRANCH   2   3
ENDBRANCH   1   2
BRANCH   1  16
HETATM   16  C13 UNL     1      20.690   3.422  52.193  1.00  0.00     0.266 C 
BRANCH  16  17
HETATM   17  N1  UNL     1      20.267   3.819  53.463  1.00  0.00    -0.037 N 
HETATM   18  C14 UNL     1      19.650   2.872  54.358  1.00  0.00     0.242 C 
HETATM   19  C15 UNL     1      19.405   3.804  55.566  1.00  0.00     0.043 C 
HETATM   20  C16 UNL     1      19.919   5.071  54.976  1.00  0.00     0.038 C 
HETATM   21  C22 UNL     1      21.174   4.630  54.272  1.00  0.00     0.254 C 
HETATM   22  C23 UNL     1      19.359   4.975  53.550  1.00  0.00     0.333 C 
BRANCH  20  23
HETATM   23  C17 UNL     1      19.845   6.327  55.662  1.00  0.00     0.016 C 
BRANCH  23  24
HETATM   24  C18 UNL     1      19.070   6.168  56.965  1.00  0.00     0.005 C 
BRANCH  24  25
HETATM   25  C19 UNL     1      18.909   7.487  57.659  1.00  0.00    -0.014 A 
HETATM   26  C20 UNL     1      18.898   8.746  56.894  1.00  0.00     0.005 A 
HETATM   27  C21 UNL     1      17.614   8.203  57.406  1.00  0.00     0.005 A 
ENDBRANCH  24  25
ENDBRANCH  23  24
ENDBRANCH  20  23
BRANCH  22  28
HETATM   28  O4  UNL     1      18.018   4.632  53.625  1.00  0.00    -0.369 OA
ATOM     29  H4  UNL     1      17.590   4.920  54.423  1.00  0.00     0.212 HD
ENDBRANCH  22  28
ENDBRANCH  16  17
ENDBRANCH   1  16
TORSDOF 18
ENDMDL
MODEL 2
REMARK VINA RESULT: -7.734042741      5.905     11.818
REMARK  18 active torsions:
REMARK  status: ('A' for Active; 'I' for Inactive)
REMARK    1  A    between atoms: C2_2  and  C3_3 
REMARK    2  A    between atoms: C4_4  and  C5_5 
REMARK    3  A    between atoms: C5_5  and  C6_6 
REMARK    4  A    between atoms: C6_6  and  C7_7 
REMARK    5  A    between atoms: C7_7  and  O1_8 
REMARK    6  A    between atoms: O1_8  and  C8_9 
REMARK    7  A    between atoms: C8_9  and  C9_10 
REMARK    8  A    between atoms: C9_10  and  O2_11 
REMARK    9  A    between atoms: O2_11  and  C10_12 
REMARK   10  A    between atoms: C10_12  and  C11_13 
REMARK   11  A    between atoms: C11_13  and  O3_14 
REMARK   12  A    between atoms: O3_14  and  C12_15 
REMARK   13  A    between atoms: C12_15  and  C13_16 
REMARK   14  A    between atoms: C13_16  and  N1_17 
REMARK   15  A    between atoms: C16_20  and  C17_21 
REMARK   16  A    between atoms: C17_21  and  C18_22 
REMARK   17  A    between atoms: C18_22  and  C19_23 
REMARK   18  A    between atoms: C23_27  and  O4_28 
ROOT
HETATM    1  C12 UNL     1      21.989   6.487  59.056  1.00  0.00     0.196 C 
ENDROOT
BRANCH   1   2
HETATM    2  O3  UNL     1      22.019   7.447  60.058  1.00  0.00    -0.387 OA
BRANCH   2   3
HETATM    3  C11 UNL     1      20.819   8.046  60.335  1.00  0.00     0.193 C 
BRANCH   3   4
HETATM    4  C10 UNL     1      20.862   8.408  61.833  1.00  0.00     0.193 C 
BRANCH   4   5
HETATM    5  O2  UNL     1      19.847   9.320  62.029  1.00  0.00    -0.387 OA
BRANCH   5   6
HETATM    6  C9  UNL     1      19.552  10.126  60.946  1.00  0.00     0.193 C 
BRANCH   6   7
HETATM    7  C8  UNL     1      18.128  10.641  61.029  1.00  0.00     0.193 C 
BRANCH   7   8
HETATM    8  O1  UNL     1      17.276   9.557  61.137  1.00  0.00    -0.389 OA
BRANCH   8   9
HETATM    9  C7  UNL     1      16.006   9.841  60.726  1.00  0.00     0.171 C 
BRANCH   9  10
HETATM   10  C6  UNL     1      16.101  10.733  59.465  1.00  0.00     0.053 C 
BRANCH  10  11
HETATM   11  C5  UNL     1      15.740   9.882  58.308  1.00  0.00    -0.025 C 
BRANCH  11  12
HETATM   12  C4  UNL     1      16.540   8.754  57.856  1.00  0.00    -0.008 C 
HETATM   13  C3  UNL     1      17.714   8.714  57.041  1.00  0.00    -0.027 C 
BRANCH  13  14
HETATM   14  C2  UNL     1      19.035   9.268  57.334  1.00  0.00     0.022 C 
HETATM   15  C1  UNL     1      19.341  10.694  57.135  1.00  0.00     0.009 C 
ENDBRANCH  13  14
ENDBRANCH  11  12
ENDBRANCH  10  11
ENDBRANCH   9  10
ENDBRANCH   8   9
ENDBRANCH   7   8
ENDBRANCH   6   7
ENDBRANCH   5   6
ENDBRANCH   4   5
ENDBRANCH   3   4
ENDBRANCH   2   3
ENDBRANCH   1   2
BRANCH   1  16
HETATM   16  C13 UNL     1      20.997   5.408  59.289  1.00  0.00     0.266 C 
BRANCH  16  17
HETATM   17  N1  UNL     1      20.445   4.958  58.088  1.00  0.00    -0.037 N 
HETATM   18  C14 UNL     1      20.381   3.548  57.796  1.00  0.00     0.242 C 
HETATM   19  C15 UNL     1      19.698   3.618  56.411  1.00  0.00     0.043 C 
HETATM   20  C16 UNL     1      19.615   5.098  56.279  1.00  0.00     0.038 C 
HETATM   21  C22 UNL     1      19.174   5.534  57.652  1.00  0.00     0.254 C 
HETATM   22  C23 UNL     1      20.983   5.517  56.836  1.00  0.00     0.333 C 
BRANCH  20  23
HETATM   23  C17 UNL     1      19.127   5.741  55.096  1.00  0.00     0.016 C 
BRANCH  23  24
HETATM   24  C18 UNL     1      18.931   4.716  53.985  1.00  0.00     0.005 C 
BRANCH  24  25
HETATM   25  C19 UNL     1      19.770   5.052  52.789  1.00  0.00    -0.014 A 
HETATM   26  C20 UNL     1      21.236   5.145  52.899  1.00  0.00     0.005 A 
HETATM   27  C21 UNL     1      20.636   3.942  52.269  1.00  0.00     0.005 A 
ENDBRANCH  24  25
ENDBRANCH  23  24
ENDBRANCH  20  23
BRANCH  22  28
HETATM   28  O4  UNL     1      21.959   4.731  56.244  1.00  0.00    -0.369 OA
ATOM     29  H4  UNL     1      22.372   5.133  55.488  1.00  0.00     0.212 HD
ENDBRANCH  22  28
ENDBRANCH  16  17
ENDBRANCH   1  16
TORSDOF 18
ENDMDL
MODEL 3
REMARK VINA RESULT: -7.708961383      0.981      1.360
REMARK  18 active torsions:
REMARK  status: ('A' for Active; 'I' for Inactive)
REMARK    1  A    between atoms: C2_2  and  C3_3 
REMARK    2  A    between atoms: C4_4  and  C5_5 
REMARK    3  A    between atoms: C5_5  and  C6_6 
REMARK    4  A    between atoms: C6_6  and  C7_7 
REMARK    5  A    between atoms: C7_7  and  O1_8 
REMARK    6  A    between atoms: O1_8  and  C8_9 
REMARK    7  A    between atoms: C8_9  and  C9_10 
REMARK    8  A    between atoms: C9_10  and  O2_11 
REMARK    9  A    between atoms: O2_11  and  C10_12 
REMARK   10  A    between atoms: C10_12  and  C11_13 
REMARK   11  A    between atoms: C11_13  and  O3_14 
REMARK   12  A    between atoms: O3_14  and  C12_15 
REMARK   13  A    between atoms: C12_15  and  C13_16 
REMARK   14  A    between atoms: C13_16  and  N1_17 
REMARK   15  A    between atoms: C16_20  and  C17_21 
REMARK   16  A    between atoms: C17_21  and  C18_22 
REMARK   17  A    between atoms: C18_22  and  C19_23 
REMARK   18  A    between atoms: C23_27  and  O4_28 
ROOT
HETATM    1  C12 UNL     1      22.193   3.917  51.781  1.00  0.00     0.196 C 
ENDROOT
BRANCH   1   2
HETATM    2  O3  UNL     1      23.038   2.979  51.202  1.00  0.00    -0.387 OA
BRANCH   2   3
HETATM    3  C11 UNL     1      23.400   3.236  49.907  1.00  0.00     0.193 C 
BRANCH   3   4
HETATM    4  C10 UNL     1      22.482   2.362  49.029  1.00  0.00     0.193 C 
BRANCH   4   5
HETATM    5  O2  UNL     1      21.649   3.237  48.366  1.00  0.00    -0.387 OA
BRANCH   5   6
HETATM    6  C9  UNL     1      22.222   3.927  47.316  1.00  0.00     0.193 C 
BRANCH   6   7
HETATM    7  C8  UNL     1      22.782   2.970  46.282  1.00  0.00     0.193 C 
BRANCH   7   8
HETATM    8  O1  UNL     1      21.922   2.940  45.200  1.00  0.00    -0.389 OA
BRANCH   8   9
HETATM    9  C7  UNL     1      21.297   4.134  44.989  1.00  0.00     0.171 C 
BRANCH   9  10
HETATM   10  C6  UNL     1      21.212   4.362  43.460  1.00  0.00     0.053 C 
BRANCH  10  11
HETATM   11  C5  UNL     1      20.335   3.300  42.915  1.00  0.00    -0.025 C 
BRANCH  11  12
HETATM   12  C4  UNL     1      20.688   2.470  41.773  1.00  0.00    -0.008 C 
HETATM   13  C3  UNL     1      20.794   1.050  41.653  1.00  0.00    -0.027 C 
BRANCH  13  14
HETATM   14  C2  UNL     1      19.735   0.051  41.788  1.00  0.00     0.022 C 
HETATM   15  C1  UNL     1      19.940  -1.354  41.402  1.00  0.00     0.009 C 
ENDBRANCH  13  14
ENDBRANCH  11  12
ENDBRANCH  10  11
ENDBRANCH   9  10
ENDBRANCH   8   9
ENDBRANCH   7   8
ENDBRANCH   6   7
ENDBRANCH   5   6
ENDBRANCH   4   5
ENDBRANCH   3   4
ENDBRANCH   2   3
ENDBRANCH   1   2
BRANCH   1  16
HETATM   16  C13 UNL     1      20.825   3.408  52.046  1.00  0.00     0.266 C 
BRANCH  16  17
HETATM   17  N1  UNL     1      20.378   3.788  53.313  1.00  0.00    -0.037 N 
HETATM   18  C14 UNL     1      19.779   2.821  54.198  1.00  0.00     0.242 C 
HETATM   19  C15 UNL     1      19.495   3.741  55.407  1.00  0.00     0.043 C 
HETATM   20  C16 UNL     1      19.979   5.024  54.827  1.00  0.00     0.038 C 
HETATM   21  C22 UNL     1      21.253   4.621  54.134  1.00  0.00     0.254 C 
HETATM   22  C23 UNL     1      19.437   4.918  53.394  1.00  0.00     0.333 C 
BRANCH  20  23
HETATM   23  C17 UNL     1      19.863   6.274  55.517  1.00  0.00     0.016 C 
BRANCH  23  24
HETATM   24  C18 UNL     1      19.127   6.078  56.837  1.00  0.00     0.005 C 
BRANCH  24  25
HETATM   25  C19 UNL     1      18.979   7.379  57.568  1.00  0.00    -0.014 A 
HETATM   26  C20 UNL     1      18.959   8.658  56.836  1.00  0.00     0.005 A 
HETATM   27  C21 UNL     1      17.682   8.103  57.354  1.00  0.00     0.005 A 
ENDBRANCH  24  25
ENDBRANCH  23  24
ENDBRANCH  20  23
BRANCH  22  28
HETATM   28  O4  UNL     1      18.105   4.537  53.454  1.00  0.00    -0.369 OA
ATOM     29  H4  UNL     1      17.810   4.047  52.695  1.00  0.00     0.212 HD
ENDBRANCH  22  28
ENDBRANCH  16  17
ENDBRANCH   1  16
TORSDOF 18
ENDMDL
MODEL 4
REMARK VINA RESULT: -7.706401721      4.801     11.848
REMARK  18 active torsions:
REMARK  status: ('A' for Active; 'I' for Inactive)
REMARK    1  A    between atoms: C2_2  and  C3_3 
REMARK    2  A    between atoms: C4_4  and  C5_5 
REMARK    3  A    between atoms: C5_5  and  C6_6 
REMARK    4  A    between atoms: C6_6  and  C7_7 
REMARK    5  A    between atoms: C7_7  and  O1_8 
REMARK    6  A    between atoms: O1_8  and  C8_9 
REMARK    7  A    between atoms: C8_9  and  C9_10 
REMARK    8  A    between atoms: C9_10  and  O2_11 
REMARK    9  A    between atoms: O2_11  and  C10_12 
REMARK   10  A    between atoms: C10_12  and  C11_13 
REMARK   11  A    between atoms: C11_13  and  O3_14 
REMARK   12  A    between atoms: O3_14  and  C12_15 
REMARK   13  A    between atoms: C12_15  and  C13_16 
REMARK   14  A    between atoms: C13_16  and  N1_17 
REMARK   15  A    between atoms: C16_20  and  C17_21 
REMARK   16  A    between atoms: C17_21  and  C18_22 
REMARK   17  A    between atoms: C18_22  and  C19_23 
REMARK   18  A    between atoms: C23_27  and  O4_28 
ROOT
HETATM    1  C12 UNL     1      20.214   6.584  57.186  1.00  0.00     0.196 C 
ENDROOT
BRANCH   1   2
HETATM    2  O3  UNL     1      19.959   6.315  58.523  1.00  0.00    -0.387 OA
BRANCH   2   3
HETATM    3  C11 UNL     1      21.010   5.790  59.227  1.00  0.00     0.193 C 
BRANCH   3   4
HETATM    4  C10 UNL     1      21.517   6.923  60.141  1.00  0.00     0.193 C 
BRANCH   4   5
HETATM    5  O2  UNL     1      20.442   7.764  60.330  1.00  0.00    -0.387 OA
BRANCH   5   6
HETATM    6  C9  UNL     1      20.606   8.734  61.301  1.00  0.00     0.193 C 
BRANCH   6   7
HETATM    7  C8  UNL     1      19.653   9.892  61.074  1.00  0.00     0.193 C 
BRANCH   7   8
HETATM    8  O1  UNL     1      18.358   9.419  61.173  1.00  0.00    -0.389 OA
BRANCH   8   9
HETATM    9  C7  UNL     1      17.426  10.413  61.106  1.00  0.00     0.171 C 
BRANCH   9  10
HETATM   10  C6  UNL     1      16.050   9.758  60.831  1.00  0.00     0.053 C 
BRANCH  10  11
HETATM   11  C5  UNL     1      15.422  10.525  59.730  1.00  0.00    -0.025 C 
BRANCH  11  12
HETATM   12  C4  UNL     1      15.516  10.147  58.328  1.00  0.00    -0.008 C 
HETATM   13  C3  UNL     1      16.612  10.232  57.415  1.00  0.00    -0.027 C 
BRANCH  13  14
HETATM   14  C2  UNL     1      17.894   9.533  57.475  1.00  0.00     0.022 C 
HETATM   15  C1  UNL     1      19.151  10.177  57.060  1.00  0.00     0.009 C 
ENDBRANCH  13  14
ENDBRANCH  11  12
ENDBRANCH  10  11
ENDBRANCH   9  10
ENDBRANCH   8   9
ENDBRANCH   7   8
ENDBRANCH   6   7
ENDBRANCH   5   6
ENDBRANCH   4   5
ENDBRANCH   3   4
ENDBRANCH   2   3
ENDBRANCH   1   2
BRANCH   1  16
HETATM   16  C13 UNL     1      19.085   6.254  56.282  1.00  0.00     0.266 C 
BRANCH  16  17
HETATM   17  N1  UNL     1      19.408   5.194  55.431  1.00  0.00    -0.037 N 
HETATM   18  C14 UNL     1      19.515   3.851  55.944  1.00  0.00     0.242 C 
HETATM   19  C15 UNL     1      19.864   3.117  54.630  1.00  0.00     0.043 C 
HETATM   20  C16 UNL     1      19.913   4.297  53.723  1.00  0.00     0.038 C 
HETATM   21  C22 UNL     1      18.713   5.099  54.150  1.00  0.00     0.254 C 
HETATM   22  C23 UNL     1      20.628   5.320  54.616  1.00  0.00     0.333 C 
BRANCH  20  23
HETATM   23  C17 UNL     1      20.297   4.197  52.346  1.00  0.00     0.016 C 
BRANCH  23  24
HETATM   24  C18 UNL     1      20.976   2.857  52.088  1.00  0.00     0.005 C 
BRANCH  24  25
HETATM   25  C19 UNL     1      21.691   2.862  50.770  1.00  0.00    -0.014 A 
HETATM   26  C20 UNL     1      22.931   3.637  50.587  1.00  0.00     0.005 A 
HETATM   27  C21 UNL     1      23.019   2.163  50.746  1.00  0.00     0.005 A 
ENDBRANCH  24  25
ENDBRANCH  23  24
ENDBRANCH  20  23
BRANCH  22  28
HETATM   28  O4  UNL     1      21.743   4.715  55.175  1.00  0.00    -0.369 OA
ATOM     29  H4  UNL     1      21.672   3.770  55.247  1.00  0.00     0.212 HD
ENDBRANCH  22  28
ENDBRANCH  16  17
ENDBRANCH   1  16
TORSDOF 18
ENDMDL
MODEL 5
REMARK VINA RESULT: -7.644605451      4.411     11.677
REMARK  18 active torsions:
REMARK  status: ('A' for Active; 'I' for Inactive)
REMARK    1  A    between atoms: C2_2  and  C3_3 
REMARK    2  A    between atoms: C4_4  and  C5_5 
REMARK    3  A    between atoms: C5_5  and  C6_6 
REMARK    4  A    between atoms: C6_6  and  C7_7 
REMARK    5  A    between atoms: C7_7  and  O1_8 
REMARK    6  A    between atoms: O1_8  and  C8_9 
REMARK    7  A    between atoms: C8_9  and  C9_10 
REMARK    8  A    between atoms: C9_10  and  O2_11 
REMARK    9  A    between atoms: O2_11  and  C10_12 
REMARK   10  A    between atoms: C10_12  and  C11_13 
REMARK   11  A    between atoms: C11_13  and  O3_14 
REMARK   12  A    between atoms: O3_14  and  C12_15 
REMARK   13  A    between atoms: C12_15  and  C13_16 
REMARK   14  A    between atoms: C13_16  and  N1_17 
REMARK   15  A    between atoms: C16_20  and  C17_21 
REMARK   16  A    between atoms: C17_21  and  C18_22 
REMARK   17  A    between atoms: C18_22  and  C19_23 
REMARK   18  A    between atoms: C23_27  and  O4_28 
ROOT
HETATM    1  C12 UNL     1      19.407   5.730  57.665  1.00  0.00     0.196 C 
ENDROOT
BRANCH   1   2
HETATM    2  O3  UNL     1      19.845   6.777  58.464  1.00  0.00    -0.387 OA
BRANCH   2   3
HETATM    3  C11 UNL     1      21.199   6.984  58.468  1.00  0.00     0.193 C 
BRANCH   3   4
HETATM    4  C10 UNL     1      21.619   7.007  59.951  1.00  0.00     0.193 C 
BRANCH   4   5
HETATM    5  O2  UNL     1      20.590   7.629  60.625  1.00  0.00    -0.387 OA
BRANCH   5   6
HETATM    6  C9  UNL     1      20.972   8.489  61.636  1.00  0.00     0.193 C 
BRANCH   6   7
HETATM    7  C8  UNL     1      20.091   9.723  61.657  1.00  0.00     0.193 C 
BRANCH   7   8
HETATM    8  O1  UNL     1      18.828   9.367  61.220  1.00  0.00    -0.389 OA
BRANCH   8   9
HETATM    9  C7  UNL     1      18.156  10.406  60.646  1.00  0.00     0.171 C 
BRANCH   9  10
HETATM   10  C6  UNL     1      19.186  11.282  59.892  1.00  0.00     0.053 C 
BRANCH  10  11
HETATM   11  C5  UNL     1      18.540  11.718  58.632  1.00  0.00    -0.025 C 
BRANCH  11  12
HETATM   12  C4  UNL     1      18.491  10.904  57.427  1.00  0.00    -0.008 C 
HETATM   13  C3  UNL     1      18.111   9.538  57.243  1.00  0.00    -0.027 C 
BRANCH  13  14
HETATM   14  C2  UNL     1      16.799   8.930  57.457  1.00  0.00     0.022 C 
HETATM   15  C1  UNL     1      15.568   9.735  57.502  1.00  0.00     0.009 C 
ENDBRANCH  13  14
ENDBRANCH  11  12
ENDBRANCH  10  11
ENDBRANCH   9  10
ENDBRANCH   8   9
ENDBRANCH   7   8
ENDBRANCH   6   7
ENDBRANCH   5   6
ENDBRANCH   4   5
ENDBRANCH   3   4
ENDBRANCH   2   3
ENDBRANCH   1   2
BRANCH   1  16
HETATM   16  C13 UNL     1      19.117   6.124  56.264  1.00  0.00     0.266 C 
BRANCH  16  17
HETATM   17  N1  UNL     1      19.467   5.111  55.369  1.00  0.00    -0.037 N 
HETATM   18  C14 UNL     1      19.657   3.759  55.831  1.00  0.00     0.242 C 
HETATM   19  C15 UNL     1      20.003   3.088  54.483  1.00  0.00     0.043 C 
HETATM   20  C16 UNL     1      19.965   4.299  53.616  1.00  0.00     0.038 C 
HETATM   21  C22 UNL     1      18.739   5.023  54.105  1.00  0.00     0.254 C 
HETATM   22  C23 UNL     1      20.654   5.327  54.524  1.00  0.00     0.333 C 
BRANCH  20  23
HETATM   23  C17 UNL     1      20.312   4.264  52.227  1.00  0.00     0.016 C 
BRANCH  23  24
HETATM   24  C18 UNL     1      21.009   2.951  51.893  1.00  0.00     0.005 C 
BRANCH  24  25
HETATM   25  C19 UNL     1      22.335   3.197  51.237  1.00  0.00    -0.014 A 
HETATM   26  C20 UNL     1      23.126   2.080  50.693  1.00  0.00     0.005 A 
HETATM   27  C21 UNL     1      22.383   2.960  49.756  1.00  0.00     0.005 A 
ENDBRANCH  24  25
ENDBRANCH  23  24
ENDBRANCH  20  23
BRANCH  22  28
HETATM   28  O4  UNL     1      21.814   4.761  55.030  1.00  0.00    -0.369 OA
ATOM     29  H4  UNL     1      22.564   5.345  55.021  1.00  0.00     0.212 HD
ENDBRANCH  22  28
ENDBRANCH  16  17
ENDBRANCH   1  16
TORSDOF 18
ENDMDL
