MODEL 1
REMARK VINA RESULT: -7.546119530      0.000      0.000
REMARK  3 active torsions:
REMARK  status: ('A' for Active; 'I' for Inactive)
REMARK    1  A    between atoms: C2_2  and  N1_3 
REMARK       I    between atoms: N1_3  and  C3_5 
REMARK       I    between atoms: C3_5  and  N5_19 
REMARK       I    between atoms: N2_6  and  C4_8 
REMARK       I    between atoms: C4_8  and  N3_10 
REMARK    2  A    between atoms: N3_10  and  N4_12 
REMARK       I    between atoms: N4_12  and  C5_14 
REMARK    3  A    between atoms: C5_14  and  C6_16 
ROOT
HETATM    1  N1  UNL     1      19.774  68.622   9.461  1.00  0.00    -0.226 N 
ATOM      2  H1  UNL     1      19.417  69.128  10.272  1.00  0.00     0.177 HD
HETATM    3  C3  UNL     1      20.629  67.493   9.657  1.00  0.00     0.679 C 
HETATM    4  N2  UNL     1      21.862  67.717   9.726  1.00  0.00    -0.140 N 
ATOM      5  H2  UNL     1      22.114  68.701   9.633  1.00  0.00     0.189 HD
HETATM    6  C4  UNL     1      22.949  66.863   9.907  1.00  0.00     0.353 C 
HETATM    7  O1  UNL     1      22.948  65.657   9.608  1.00  0.00    -0.245 OA
HETATM    8  N3  UNL     1      24.124  67.426  10.469  1.00  0.00    -0.248 N 
ATOM      9  H3  UNL     1      24.164  68.412  10.729  1.00  0.00     0.192 HD
HETATM   10  N5  UNL     1      20.095  66.188   9.763  1.00  0.00    -0.227 N 
HETATM   11  C9  UNL     1      19.404  65.593   8.619  1.00  0.00     0.168 C 
HETATM   12  C10 UNL     1      20.183  65.379  10.962  1.00  0.00     0.168 C 
ENDROOT
BRANCH   8  13
HETATM   13  N4  UNL     1      25.228  66.583  10.655  1.00  0.00    -0.266 N 
HETATM   14  C5  UNL     1      26.373  67.163  11.285  1.00  0.00     0.240 C 
HETATM   15  O2  UNL     1      26.388  68.365  11.654  1.00  0.00    -0.271 OA
ATOM     16  H4  UNL     1      25.216  65.609  10.356  1.00  0.00     0.190 HD
BRANCH  14  17
HETATM   17  C6  UNL     1      27.552  66.294  11.495  1.00  0.00     0.080 A 
HETATM   18  C7  UNL     1      28.022  65.612  10.234  1.00  0.00     0.015 A 
HETATM   19  C8  UNL     1      28.882  66.641  10.912  1.00  0.00     0.015 A 
ENDBRANCH  14  17
ENDBRANCH   8  13
BRANCH   1  20
HETATM   20  C2  UNL     1      19.406  69.060   8.123  1.00  0.00     0.133 C 
HETATM   21  C1  UNL     1      20.533  69.788   7.456  1.00  0.00     0.027 C 
ENDBRANCH   1  20
TORSDOF 3
ENDMDL
MODEL 2
REMARK VINA RESULT: -6.878067124      1.360      1.501
REMARK  3 active torsions:
REMARK  status: ('A' for Active; 'I' for Inactive)
REMARK    1  A    between atoms: C2_2  and  N1_3 
REMARK       I    between atoms: N1_3  and  C3_5 
REMARK       I    between atoms: C3_5  and  N5_19 
REMARK       I    between atoms: N2_6  and  C4_8 
REMARK       I    between atoms: C4_8  and  N3_10 
REMARK    2  A    between atoms: N3_10  and  N4_12 
REMARK       I    between atoms: N4_12  and  C5_14 
REMARK    3  A    between atoms: C5_14  and  C6_16 
ROOT
HETATM    1  N1  UNL     1      20.275  68.128   8.482  1.00  0.00    -0.226 N 
ATOM      2  H1  UNL     1      19.550  68.007   9.189  1.00  0.00     0.177 HD
HETATM    3  C3  UNL     1      21.365  67.204   8.426  1.00  0.00     0.679 C 
HETATM    4  N2  UNL     1      22.373  67.470   9.123  1.00  0.00    -0.140 N 
ATOM      5  H2  UNL     1      22.295  68.333   9.660  1.00  0.00     0.189 HD
HETATM    6  C4  UNL     1      23.583  66.797   9.295  1.00  0.00     0.353 C 
HETATM    7  O1  UNL     1      24.074  66.019   8.461  1.00  0.00    -0.245 OA
HETATM    8  N3  UNL     1      24.283  67.032  10.507  1.00  0.00    -0.248 N 
ATOM      9  H3  UNL     1      23.912  67.663  11.217  1.00  0.00     0.192 HD
HETATM   10  N5  UNL     1      21.295  66.048   7.615  1.00  0.00    -0.227 N 
HETATM   11  C9  UNL     1      21.208  66.188   6.160  1.00  0.00     0.168 C 
HETATM   12  C10 UNL     1      21.300  64.697   8.138  1.00  0.00     0.168 C 
ENDROOT
BRANCH   8  13
HETATM   13  N4  UNL     1      25.503  66.367  10.696  1.00  0.00    -0.266 N 
HETATM   14  C5  UNL     1      26.541  67.111  11.336  1.00  0.00     0.240 C 
HETATM   15  O2  UNL     1      26.370  68.299  11.711  1.00  0.00    -0.271 OA
ATOM     16  H4  UNL     1      25.642  65.403  10.392  1.00  0.00     0.190 HD
BRANCH  14  17
HETATM   17  C6  UNL     1      27.838  66.433  11.550  1.00  0.00     0.080 A 
HETATM   18  C7  UNL     1      28.162  65.416  10.483  1.00  0.00     0.015 A 
HETATM   19  C8  UNL     1      28.991  66.661  10.629  1.00  0.00     0.015 A 
ENDBRANCH  14  17
ENDBRANCH   8  13
BRANCH   1  20
HETATM   20  C2  UNL     1      20.185  69.238   7.546  1.00  0.00     0.133 C 
HETATM   21  C1  UNL     1      18.946  69.148   6.708  1.00  0.00     0.027 C 
ENDBRANCH   1  20
TORSDOF 3
ENDMDL
MODEL 3
REMARK VINA RESULT: -6.769696091     11.394     12.688
REMARK  3 active torsions:
REMARK  status: ('A' for Active; 'I' for Inactive)
REMARK    1  A    between atoms: C2_2  and  N1_3 
REMARK       I    between atoms: N1_3  and  C3_5 
REMARK       I    between atoms: C3_5  and  N5_19 
REMARK       I    between atoms: N2_6  and  C4_8 
REMARK       I    between atoms: C4_8  and  N3_10 
REMARK    2  A    between atoms: N3_10  and  N4_12 
REMARK       I    between atoms: N4_12  and  C5_14 
REMARK    3  A    between atoms: C5_14  and  C6_16 
ROOT
HETATM    1  N1  UNL     1      31.075  71.951   1.325  1.00  0.00    -0.226 N 
ATOM      2  H1  UNL     1      31.006  72.218   0.343  1.00  0.00     0.177 HD
HETATM    3  C3  UNL     1      32.015  70.947   1.716  1.00  0.00     0.679 C 
HETATM    4  N2  UNL     1      31.618  69.757   1.696  1.00  0.00    -0.140 N 
ATOM      5  H2  UNL     1      30.650  69.644   1.396  1.00  0.00     0.189 HD
HETATM    6  C4  UNL     1      32.262  68.561   2.011  1.00  0.00     0.353 C 
HETATM    7  O1  UNL     1      33.229  68.471   2.786  1.00  0.00    -0.245 OA
HETATM    8  N3  UNL     1      31.765  67.380   1.400  1.00  0.00    -0.248 N 
ATOM      9  H3  UNL     1      30.973  67.413   0.757  1.00  0.00     0.192 HD
HETATM   10  N5  UNL     1      33.328  71.294   2.107  1.00  0.00    -0.227 N 
HETATM   11  C9  UNL     1      33.536  72.101   3.311  1.00  0.00     0.168 C 
HETATM   12  C10 UNL     1      34.516  70.902   1.375  1.00  0.00     0.168 C 
ENDROOT
BRANCH   8  13
HETATM   13  N4  UNL     1      32.398  66.169   1.708  1.00  0.00    -0.266 N 
HETATM   14  C5  UNL     1      31.668  65.262   2.536  1.00  0.00     0.240 C 
HETATM   15  O2  UNL     1      30.519  65.536   2.966  1.00  0.00    -0.271 OA
ATOM     16  H4  UNL     1      33.330  65.946   1.359  1.00  0.00     0.190 HD
BRANCH  14  17
HETATM   17  C6  UNL     1      32.313  63.974   2.875  1.00  0.00     0.080 A 
HETATM   18  C7  UNL     1      33.687  64.135   3.478  1.00  0.00     0.015 A 
HETATM   19  C8  UNL     1      32.555  63.580   4.295  1.00  0.00     0.015 A 
ENDBRANCH  14  17
ENDBRANCH   8  13
BRANCH   1  20
HETATM   20  C2  UNL     1      30.218  72.598   2.306  1.00  0.00     0.133 C 
HETATM   21  C1  UNL     1      28.858  71.969   2.343  1.00  0.00     0.027 C 
ENDBRANCH   1  20
TORSDOF 3
ENDMDL
MODEL 4
REMARK VINA RESULT: -6.720641821      9.772     12.376
REMARK  3 active torsions:
REMARK  status: ('A' for Active; 'I' for Inactive)
REMARK    1  A    between atoms: C2_2  and  N1_3 
REMARK       I    between atoms: N1_3  and  C3_5 
REMARK       I    between atoms: C3_5  and  N5_19 
REMARK       I    between atoms: N2_6  and  C4_8 
REMARK       I    between atoms: C4_8  and  N3_10 
REMARK    2  A    between atoms: N3_10  and  N4_12 
REMARK       I    between atoms: N4_12  and  C5_14 
REMARK    3  A    between atoms: C5_14  and  C6_16 
ROOT
HETATM    1  N1  UNL     1      32.747  69.049   0.864  1.00  0.00    -0.226 N 
ATOM      2  H1  UNL     1      33.073  69.026  -0.102  1.00  0.00     0.177 HD
HETATM    3  C3  UNL     1      32.613  67.825   1.591  1.00  0.00     0.679 C 
HETATM    4  N2  UNL     1      31.509  67.235   1.513  1.00  0.00    -0.140 N 
ATOM      5  H2  UNL     1      30.822  67.708   0.926  1.00  0.00     0.189 HD
HETATM    6  C4  UNL     1      31.052  66.048   2.084  1.00  0.00     0.353 C 
HETATM    7  O1  UNL     1      31.506  65.556   3.131  1.00  0.00    -0.245 OA
HETATM    8  N3  UNL     1      29.998  65.373   1.413  1.00  0.00    -0.248 N 
ATOM      9  H3  UNL     1      29.600  65.745   0.551  1.00  0.00     0.192 HD
HETATM   10  N5  UNL     1      33.684  67.317   2.361  1.00  0.00    -0.227 N 
HETATM   11  C9  UNL     1      34.164  68.071   3.520  1.00  0.00     0.168 C 
HETATM   12  C10 UNL     1      34.363  66.070   2.071  1.00  0.00     0.168 C 
ENDROOT
BRANCH   8  13
HETATM   13  N4  UNL     1      29.524  64.180   1.975  1.00  0.00    -0.266 N 
HETATM   14  C5  UNL     1      28.350  64.280   2.784  1.00  0.00     0.240 C 
HETATM   15  O2  UNL     1      27.773  65.380   2.981  1.00  0.00    -0.271 OA
ATOM     16  H4  UNL     1      29.991  63.288   1.816  1.00  0.00     0.190 HD
BRANCH  14  17
HETATM   17  C6  UNL     1      27.827  63.035   3.389  1.00  0.00     0.080 A 
HETATM   18  C7  UNL     1      28.205  62.873   4.840  1.00  0.00     0.015 A 
HETATM   19  C8  UNL     1      26.769  63.072   4.442  1.00  0.00     0.015 A 
ENDBRANCH  14  17
ENDBRANCH   8  13
BRANCH   1  20
HETATM   20  C2  UNL     1      32.426  70.327   1.481  1.00  0.00     0.133 C 
HETATM   21  C1  UNL     1      32.750  71.472   0.570  1.00  0.00     0.027 C 
ENDBRANCH   1  20
TORSDOF 3
ENDMDL
MODEL 5
REMARK VINA RESULT: -6.667395452      2.603      2.808
REMARK  3 active torsions:
REMARK  status: ('A' for Active; 'I' for Inactive)
REMARK    1  A    between atoms: C2_2  and  N1_3 
REMARK       I    between atoms: N1_3  and  C3_5 
REMARK       I    between atoms: C3_5  and  N5_19 
REMARK       I    between atoms: N2_6  and  C4_8 
REMARK       I    between atoms: C4_8  and  N3_10 
REMARK    2  A    between atoms: N3_10  and  N4_12 
REMARK       I    between atoms: N4_12  and  C5_14 
REMARK    3  A    between atoms: C5_14  and  C6_16 
ROOT
HETATM    1  N1  UNL     1      20.548  66.209   7.116  1.00  0.00    -0.226 N 
ATOM      2  H1  UNL     1      19.811  65.836   7.713  1.00  0.00     0.177 HD
HETATM    3  C3  UNL     1      21.869  65.669   7.209  1.00  0.00     0.679 C 
HETATM    4  N2  UNL     1      22.643  66.200   8.042  1.00  0.00    -0.140 N 
ATOM      5  H2  UNL     1      22.229  66.970   8.566  1.00  0.00     0.189 HD
HETATM    6  C4  UNL     1      23.968  65.926   8.379  1.00  0.00     0.353 C 
HETATM    7  O1  UNL     1      24.784  65.378   7.619  1.00  0.00    -0.245 OA
HETATM    8  N3  UNL     1      24.395  66.306   9.678  1.00  0.00    -0.248 N 
ATOM      9  H3  UNL     1      23.754  66.757  10.332  1.00  0.00     0.192 HD
HETATM   10  N5  UNL     1      22.271  64.589   6.391  1.00  0.00    -0.227 N 
HETATM   11  C9  UNL     1      22.337  64.764   4.939  1.00  0.00     0.168 C 
HETATM   12  C10 UNL     1      22.628  63.282   6.904  1.00  0.00     0.168 C 
ENDROOT
BRANCH   8  13
HETATM   13  N4  UNL     1      25.724  66.042  10.033  1.00  0.00    -0.266 N 
HETATM   14  C5  UNL     1      26.235  66.751  11.164  1.00  0.00     0.240 C 
HETATM   15  O2  UNL     1      25.528  67.569  11.806  1.00  0.00    -0.271 OA
ATOM     16  H4  UNL     1      26.298  65.379   9.512  1.00  0.00     0.190 HD
BRANCH  14  17
HETATM   17  C6  UNL     1      27.636  66.489  11.561  1.00  0.00     0.080 A 
HETATM   18  C7  UNL     1      28.331  65.490  10.670  1.00  0.00     0.015 A 
HETATM   19  C8  UNL     1      28.777  66.925  10.704  1.00  0.00     0.015 A 
ENDBRANCH  14  17
ENDBRANCH   8  13
BRANCH   1  20
HETATM   20  C2  UNL     1      20.241  67.281   6.181  1.00  0.00     0.133 C 
HETATM   21  C1  UNL     1      18.840  67.168   5.661  1.00  0.00     0.027 C 
ENDBRANCH   1  20
TORSDOF 3
ENDMDL
