MODEL 1
REMARK VINA RESULT: -6.668549752      0.000      0.000
REMARK  5 active torsions:
REMARK  status: ('A' for Active; 'I' for Inactive)
REMARK    1  A    between atoms: O1_1  and  C1_3 
REMARK    2  A    between atoms: C3_11  and  C4_12 
REMARK    3  A    between atoms: C4_12  and  C5_13 
REMARK    4  A    between atoms: C5_13  and  C6_14 
REMARK    5  A    between atoms: C6_14  and  N3_15 
ROOT
HETATM    1  C1  UNL     1      27.900  67.227  11.168  1.00  0.00     0.351 C 
HETATM    2  N1  UNL     1      26.699  68.062  11.315  1.00  0.00    -0.023 N 
ATOM      3  H11 UNL     1      26.641  68.811  10.625  1.00  0.00     0.282 HD
ATOM      4  H12 UNL     1      26.719  68.655  12.145  1.00  0.00     0.282 HD
HETATM    5  C2  UNL     1      25.580  67.172  11.282  1.00  0.00     0.466 C 
HETATM    6  N2  UNL     1      26.094  65.847  10.964  1.00  0.00    -0.043 N 
ATOM      7  H21 UNL     1      25.457  65.260  10.424  1.00  0.00     0.279 HD
ATOM      8  H22 UNL     1      26.165  65.214  11.760  1.00  0.00     0.279 HD
HETATM    9  C3  UNL     1      27.328  66.135  10.320  1.00  0.00     0.244 C 
ENDROOT
BRANCH   9  10
HETATM   10  C4  UNL     1      28.228  64.977  10.098  1.00  0.00     0.050 C 
BRANCH  10  11
HETATM   11  C5  UNL     1      28.398  64.558   8.720  1.00  0.00     0.107 C 
BRANCH  11  12
HETATM   12  C6  UNL     1      27.284  64.361   8.032  1.00  0.00    -0.062 C 
BRANCH  12  13
HETATM   13  N3  UNL     1      26.167  64.154   7.492  1.00  0.00    -0.295 N 
HETATM   14  C7  UNL     1      24.871  64.654   7.778  1.00  0.00     0.115 C 
HETATM   15  C8  UNL     1      24.036  63.612   8.442  1.00  0.00     0.028 C 
HETATM   16  C11 UNL     1      24.669  64.774   6.260  1.00  0.00     0.112 C 
HETATM   17  C9  UNL     1      23.433  62.591   7.532  1.00  0.00     0.013 C 
HETATM   18  C10 UNL     1      24.498  61.893   6.671  1.00  0.00     0.086 C 
HETATM   19  S1  UNL     1      25.613  63.218   6.197  1.00  0.00    -0.115 SA
ENDBRANCH  12  13
ENDBRANCH  11  12
ENDBRANCH  10  11
ENDBRANCH   9  10
BRANCH   1  20
HETATM   20  O1  UNL     1      28.250  66.815  12.437  1.00  0.00    -0.368 OA
ATOM     21  H1  UNL     1      29.163  67.047  12.555  1.00  0.00     0.212 HD
ENDBRANCH   1  20
TORSDOF 5
ENDMDL
MODEL 2
REMARK VINA RESULT: -6.444443035      3.223      4.154
REMARK  5 active torsions:
REMARK  status: ('A' for Active; 'I' for Inactive)
REMARK    1  A    between atoms: O1_1  and  C1_3 
REMARK    2  A    between atoms: C3_11  and  C4_12 
REMARK    3  A    between atoms: C4_12  and  C5_13 
REMARK    4  A    between atoms: C5_13  and  C6_14 
REMARK    5  A    between atoms: C6_14  and  N3_15 
ROOT
HETATM    1  C1  UNL     1      26.195  67.201  11.903  1.00  0.00     0.351 C 
HETATM    2  N1  UNL     1      27.501  66.782  12.432  1.00  0.00    -0.023 N 
ATOM      3  H11 UNL     1      27.430  66.165  13.241  1.00  0.00     0.282 HD
ATOM      4  H12 UNL     1      28.011  67.536  12.892  1.00  0.00     0.282 HD
HETATM    5  C2  UNL     1      28.214  66.201  11.337  1.00  0.00     0.466 C 
HETATM    6  N2  UNL     1      27.293  66.132  10.211  1.00  0.00    -0.043 N 
ATOM      7  H21 UNL     1      27.443  65.341   9.585  1.00  0.00     0.279 HD
ATOM      8  H22 UNL     1      27.431  66.851   9.502  1.00  0.00     0.279 HD
HETATM    9  C3  UNL     1      26.021  66.156  10.845  1.00  0.00     0.244 C 
ENDROOT
BRANCH   9  10
HETATM   10  C4  UNL     1      24.856  66.359   9.949  1.00  0.00     0.050 C 
BRANCH  10  11
HETATM   11  C5  UNL     1      24.357  65.175   9.277  1.00  0.00     0.107 C 
BRANCH  11  12
HETATM   12  C6  UNL     1      23.321  64.578   9.846  1.00  0.00    -0.062 C 
BRANCH  12  13
HETATM   13  N3  UNL     1      22.388  63.899  10.347  1.00  0.00    -0.295 N 
HETATM   14  C7  UNL     1      22.292  62.523  10.675  1.00  0.00     0.115 C 
HETATM   15  C8  UNL     1      21.441  61.801   9.687  1.00  0.00     0.028 C 
HETATM   16  C11 UNL     1      21.566  62.961  11.957  1.00  0.00     0.112 C 
HETATM   17  C9  UNL     1      19.965  61.942   9.880  1.00  0.00     0.013 C 
HETATM   18  C10 UNL     1      19.533  63.416   9.918  1.00  0.00     0.086 C 
HETATM   19  S1  UNL     1      20.816  64.224  10.879  1.00  0.00    -0.115 SA
ENDBRANCH  12  13
ENDBRANCH  11  12
ENDBRANCH  10  11
ENDBRANCH   9  10
BRANCH   1  20
HETATM   20  O1  UNL     1      26.365  68.474  11.399  1.00  0.00    -0.368 OA
ATOM     21  H1  UNL     1      26.032  69.072  12.058  1.00  0.00     0.212 HD
ENDBRANCH   1  20
TORSDOF 5
ENDMDL
MODEL 3
REMARK VINA RESULT: -6.393043276      3.317      4.169
REMARK  5 active torsions:
REMARK  status: ('A' for Active; 'I' for Inactive)
REMARK    1  A    between atoms: O1_1  and  C1_3 
REMARK    2  A    between atoms: C3_11  and  C4_12 
REMARK    3  A    between atoms: C4_12  and  C5_13 
REMARK    4  A    between atoms: C5_13  and  C6_14 
REMARK    5  A    between atoms: C6_14  and  N3_15 
ROOT
HETATM    1  C1  UNL     1      26.197  67.190  11.893  1.00  0.00     0.351 C 
HETATM    2  N1  UNL     1      27.498  66.772  12.434  1.00  0.00    -0.023 N 
ATOM      3  H11 UNL     1      27.420  66.140  13.231  1.00  0.00     0.282 HD
ATOM      4  H12 UNL     1      27.995  67.522  12.915  1.00  0.00     0.282 HD
HETATM    5  C2  UNL     1      28.232  66.217  11.339  1.00  0.00     0.466 C 
HETATM    6  N2  UNL     1      27.327  66.161  10.199  1.00  0.00    -0.043 N 
ATOM      7  H21 UNL     1      27.493  65.382   9.561  1.00  0.00     0.279 HD
ATOM      8  H22 UNL     1      27.470  66.893   9.504  1.00  0.00     0.279 HD
HETATM    9  C3  UNL     1      26.046  66.163  10.815  1.00  0.00     0.244 C 
ENDROOT
BRANCH   9  10
HETATM   10  C4  UNL     1      24.893  66.373   9.906  1.00  0.00     0.050 C 
BRANCH  10  11
HETATM   11  C5  UNL     1      24.451  65.210   9.159  1.00  0.00     0.107 C 
BRANCH  11  12
HETATM   12  C6  UNL     1      23.411  64.562   9.657  1.00  0.00    -0.062 C 
BRANCH  12  13
HETATM   13  N3  UNL     1      22.371  63.949  10.012  1.00  0.00    -0.295 N 
HETATM   14  C7  UNL     1      20.995  64.244   9.841  1.00  0.00     0.115 C 
HETATM   15  C8  UNL     1      20.391  64.719  11.118  1.00  0.00     0.028 C 
HETATM   16  C11 UNL     1      20.793  62.750   9.546  1.00  0.00     0.112 C 
HETATM   17  C9  UNL     1      20.032  63.651  12.100  1.00  0.00     0.013 C 
HETATM   18  C10 UNL     1      21.232  62.749  12.428  1.00  0.00     0.086 C 
HETATM   19  S1  UNL     1      22.047  62.513  10.846  1.00  0.00    -0.115 SA
ENDBRANCH  12  13
ENDBRANCH  11  12
ENDBRANCH  10  11
ENDBRANCH   9  10
BRANCH   1  20
HETATM   20  O1  UNL     1      26.363  68.473  11.415  1.00  0.00    -0.368 OA
ATOM     21  H1  UNL     1      25.885  69.045  12.003  1.00  0.00     0.212 HD
ENDBRANCH   1  20
TORSDOF 5
ENDMDL
MODEL 4
REMARK VINA RESULT: -6.324706852      3.336      4.249
REMARK  5 active torsions:
REMARK  status: ('A' for Active; 'I' for Inactive)
REMARK    1  A    between atoms: O1_1  and  C1_3 
REMARK    2  A    between atoms: C3_11  and  C4_12 
REMARK    3  A    between atoms: C4_12  and  C5_13 
REMARK    4  A    between atoms: C5_13  and  C6_14 
REMARK    5  A    between atoms: C6_14  and  N3_15 
ROOT
HETATM    1  C1  UNL     1      26.290  67.187  11.982  1.00  0.00     0.351 C 
HETATM    2  N1  UNL     1      27.638  66.748  12.369  1.00  0.00    -0.023 N 
ATOM      3  H11 UNL     1      27.645  66.139  13.188  1.00  0.00     0.282 HD
ATOM      4  H12 UNL     1      28.209  67.496  12.762  1.00  0.00     0.282 HD
HETATM    5  C2  UNL     1      28.216  66.144  11.208  1.00  0.00     0.466 C 
HETATM    6  N2  UNL     1      27.175  66.082  10.192  1.00  0.00    -0.043 N 
ATOM      7  H21 UNL     1      27.242  65.283   9.561  1.00  0.00     0.279 HD
ATOM      8  H22 UNL     1      27.247  66.793   9.464  1.00  0.00     0.279 HD
HETATM    9  C3  UNL     1      25.982  66.137  10.961  1.00  0.00     0.244 C 
ENDROOT
BRANCH   9  10
HETATM   10  C4  UNL     1      24.729  66.353  10.197  1.00  0.00     0.050 C 
BRANCH  10  11
HETATM   11  C5  UNL     1      24.740  65.909   8.817  1.00  0.00     0.107 C 
BRANCH  11  12
HETATM   12  C6  UNL     1      23.664  66.200   8.104  1.00  0.00    -0.062 C 
BRANCH  12  13
HETATM   13  N3  UNL     1      22.596  66.538   7.532  1.00  0.00    -0.295 N 
HETATM   14  C7  UNL     1      21.935  66.027   6.386  1.00  0.00     0.115 C 
HETATM   15  C8  UNL     1      22.109  66.941   5.222  1.00  0.00     0.028 C 
HETATM   16  C11 UNL     1      20.621  66.209   7.161  1.00  0.00     0.112 C 
HETATM   17  C9  UNL     1      21.211  68.136   5.198  1.00  0.00     0.013 C 
HETATM   18  C10 UNL     1      21.320  68.959   6.490  1.00  0.00     0.086 C 
HETATM   19  S1  UNL     1      21.416  67.723   7.789  1.00  0.00    -0.115 SA
ENDBRANCH  12  13
ENDBRANCH  11  12
ENDBRANCH  10  11
ENDBRANCH   9  10
BRANCH   1  20
HETATM   20  O1  UNL     1      26.426  68.452  11.449  1.00  0.00    -0.368 OA
ATOM     21  H1  UNL     1      26.368  69.060  12.176  1.00  0.00     0.212 HD
ENDBRANCH   1  20
TORSDOF 5
ENDMDL
MODEL 5
REMARK VINA RESULT: -6.312615392      2.862      3.730
REMARK  5 active torsions:
REMARK  status: ('A' for Active; 'I' for Inactive)
REMARK    1  A    between atoms: O1_1  and  C1_3 
REMARK    2  A    between atoms: C3_11  and  C4_12 
REMARK    3  A    between atoms: C4_12  and  C5_13 
REMARK    4  A    between atoms: C5_13  and  C6_14 
REMARK    5  A    between atoms: C6_14  and  N3_15 
ROOT
HETATM    1  C1  UNL     1      26.198  67.201  11.873  1.00  0.00     0.351 C 
HETATM    2  N1  UNL     1      27.484  66.800  12.461  1.00  0.00    -0.023 N 
ATOM      3  H11 UNL     1      27.385  66.166  13.254  1.00  0.00     0.282 HD
ATOM      4  H12 UNL     1      27.953  67.556  12.960  1.00  0.00     0.282 HD
HETATM    5  C2  UNL     1      28.264  66.254  11.394  1.00  0.00     0.466 C 
HETATM    6  N2  UNL     1      27.403  66.187  10.222  1.00  0.00    -0.043 N 
ATOM      7  H21 UNL     1      27.602  65.411   9.590  1.00  0.00     0.279 HD
ATOM      8  H22 UNL     1      27.561  66.922   9.533  1.00  0.00     0.279 HD
HETATM    9  C3  UNL     1      26.100  66.173  10.790  1.00  0.00     0.244 C 
ENDROOT
BRANCH   9  10
HETATM   10  C4  UNL     1      24.978  66.368   9.839  1.00  0.00     0.050 C 
BRANCH  10  11
HETATM   11  C5  UNL     1      24.798  65.328   8.845  1.00  0.00     0.107 C 
BRANCH  11  12
HETATM   12  C6  UNL     1      23.844  64.446   9.094  1.00  0.00    -0.062 C 
BRANCH  12  13
HETATM   13  N3  UNL     1      22.882  63.697   9.404  1.00  0.00    -0.295 N 
HETATM   14  C7  UNL     1      21.868  63.087   8.622  1.00  0.00     0.115 C 
HETATM   15  C8  UNL     1      20.564  63.786   8.808  1.00  0.00     0.028 C 
HETATM   16  C11 UNL     1      22.062  61.836   9.492  1.00  0.00     0.112 C 
HETATM   17  C9  UNL     1      19.811  63.429  10.049  1.00  0.00     0.013 C 
HETATM   18  C10 UNL     1      20.662  63.632  11.312  1.00  0.00     0.086 C 
HETATM   19  S1  UNL     1      22.289  63.035  10.843  1.00  0.00    -0.115 SA
ENDBRANCH  12  13
ENDBRANCH  11  12
ENDBRANCH  10  11
ENDBRANCH   9  10
BRANCH   1  20
HETATM   20  O1  UNL     1      26.365  68.486  11.401  1.00  0.00    -0.368 OA
ATOM     21  H1  UNL     1      25.507  68.788  11.128  1.00  0.00     0.212 HD
ENDBRANCH   1  20
TORSDOF 5
ENDMDL
