MODEL 1
REMARK VINA RESULT: -6.566505416      0.000      0.000
REMARK  14 active torsions:
REMARK  status: ('A' for Active; 'I' for Inactive)
REMARK    1  A    between atoms: C2_2  and  C3_3 
REMARK    2  A    between atoms: C3_3  and  C4_4 
REMARK    3  A    between atoms: C4_4  and  C5_5 
REMARK    4  A    between atoms: C4_4  and  C8_8 
REMARK    5  A    between atoms: C4_4  and  C12_16 
REMARK    6  A    between atoms: C5_5  and  C6_6 
REMARK    7  A    between atoms: C8_8  and  C9_9 
REMARK    8  A    between atoms: C9_9  and  C10_10 
REMARK    9  A    between atoms: C10_10  and  C11_11 
REMARK   10  A    between atoms: C11_11  and  N1_12 
REMARK   11  A    between atoms: C12_16  and  C13_17 
REMARK   12  A    between atoms: C13_17  and  O1_18 
REMARK   13  A    between atoms: O1_18  and  N2_19 
REMARK   14  A    between atoms: N2_19  and  C14_21 
ROOT
HETATM    1  C4  UNL     1      29.115   7.795  14.472  1.00  0.00    -0.038 C 
ENDROOT
BRANCH   1   2
HETATM    2  C3  UNL     1      29.835   6.527  14.666  1.00  0.00     0.009 C 
BRANCH   2   3
HETATM    3  C2  UNL     1      29.791   5.458  13.669  1.00  0.00    -0.004 C 
HETATM    4  C1  UNL     1      31.243   4.954  13.490  1.00  0.00     0.005 C 
ENDBRANCH   2   3
ENDBRANCH   1   2
BRANCH   1   5
HETATM    5  C5  UNL     1      29.047   8.297  13.064  1.00  0.00     0.009 C 
BRANCH   5   6
HETATM    6  C6  UNL     1      27.719   8.837  12.660  1.00  0.00    -0.004 C 
HETATM    7  C7  UNL     1      27.748   9.267  11.201  1.00  0.00     0.005 C 
ENDBRANCH   5   6
ENDBRANCH   1   5
BRANCH   1   8
HETATM    8  C8  UNL     1      30.086   8.794  15.259  1.00  0.00     0.010 C 
BRANCH   8   9
HETATM    9  C9  UNL     1      31.371   8.175  15.576  1.00  0.00     0.002 C 
BRANCH   9  10
HETATM   10  C10 UNL     1      32.039   8.728  16.801  1.00  0.00     0.027 C 
BRANCH  10  11
HETATM   11  C11 UNL     1      31.181   9.006  17.986  1.00  0.00     0.229 C 
BRANCH  11  12
HETATM   12  N1  UNL     1      31.543   8.430  19.225  1.00  0.00    -0.079 N 
ATOM     13  H13 UNL     1      30.729   7.968  19.628  1.00  0.00     0.274 HD
ATOM     14  H12 UNL     1      32.156   7.632  19.054  1.00  0.00     0.274 HD
ATOM     15  H11 UNL     1      31.969   9.031  19.931  1.00  0.00     0.274 HD
ENDBRANCH  11  12
ENDBRANCH  10  11
ENDBRANCH   9  10
ENDBRANCH   8   9
ENDBRANCH   1   8
BRANCH   1  16
HETATM   16  C12 UNL     1      27.843   7.916  15.201  1.00  0.00     0.038 C 
BRANCH  16  17
HETATM   17  C13 UNL     1      27.763   8.736  16.436  1.00  0.00     0.202 C 
BRANCH  17  18
HETATM   18  O1  UNL     1      26.466   8.396  17.020  1.00  0.00    -0.278 OA
BRANCH  18  19
HETATM   19  N2  UNL     1      25.982   9.245  17.958  1.00  0.00    -0.244 N 
ATOM     20  H2  UNL     1      26.498   9.438  18.817  1.00  0.00     0.196 HD
BRANCH  19  21
HETATM   21  C14 UNL     1      24.818   9.810  17.716  1.00  0.00     0.168 A 
HETATM   22  N3  UNL     1      24.019  10.462  18.559  1.00  0.00    -0.345 N 
HETATM   23  C15 UNL     1      22.897  10.951  18.114  1.00  0.00     0.097 A 
ATOM     24  H3  UNL     1      24.282  10.576  19.537  1.00  0.00     0.167 HD
HETATM   25  C16 UNL     1      22.598  10.765  16.790  1.00  0.00     0.070 A 
HETATM   26  S1  UNL     1      23.954   9.889  16.239  1.00  0.00    -0.063 SA
ENDBRANCH  19  21
ENDBRANCH  18  19
ENDBRANCH  17  18
ENDBRANCH  16  17
ENDBRANCH   1  16
TORSDOF 14
ENDMDL
MODEL 2
REMARK VINA RESULT: -6.382374191      3.350      4.621
REMARK  14 active torsions:
REMARK  status: ('A' for Active; 'I' for Inactive)
REMARK    1  A    between atoms: C2_2  and  C3_3 
REMARK    2  A    between atoms: C3_3  and  C4_4 
REMARK    3  A    between atoms: C4_4  and  C5_5 
REMARK    4  A    between atoms: C4_4  and  C8_8 
REMARK    5  A    between atoms: C4_4  and  C12_16 
REMARK    6  A    between atoms: C5_5  and  C6_6 
REMARK    7  A    between atoms: C8_8  and  C9_9 
REMARK    8  A    between atoms: C9_9  and  C10_10 
REMARK    9  A    between atoms: C10_10  and  C11_11 
REMARK   10  A    between atoms: C11_11  and  N1_12 
REMARK   11  A    between atoms: C12_16  and  C13_17 
REMARK   12  A    between atoms: C13_17  and  O1_18 
REMARK   13  A    between atoms: O1_18  and  N2_19 
REMARK   14  A    between atoms: N2_19  and  C14_21 
ROOT
HETATM    1  C4  UNL     1      31.708   5.736  14.306  1.00  0.00    -0.038 C 
ENDROOT
BRANCH   1   2
HETATM    2  C3  UNL     1      32.291   5.318  15.590  1.00  0.00     0.009 C 
BRANCH   2   3
HETATM    3  C2  UNL     1      32.337   3.913  15.992  1.00  0.00    -0.004 C 
HETATM    4  C1  UNL     1      33.830   3.544  16.158  1.00  0.00     0.005 C 
ENDBRANCH   2   3
ENDBRANCH   1   2
BRANCH   1   5
HETATM    5  C5  UNL     1      32.531   5.440  13.091  1.00  0.00     0.009 C 
BRANCH   5   6
HETATM    6  C6  UNL     1      32.071   4.264  12.301  1.00  0.00    -0.004 C 
HETATM    7  C7  UNL     1      33.205   3.265  12.135  1.00  0.00     0.005 C 
ENDBRANCH   5   6
ENDBRANCH   1   5
BRANCH   1   8
HETATM    8  C8  UNL     1      31.735   7.326  14.488  1.00  0.00     0.010 C 
BRANCH   8   9
HETATM    9  C9  UNL     1      32.526   7.733  15.648  1.00  0.00     0.002 C 
BRANCH   9  10
HETATM   10  C10 UNL     1      32.041   8.985  16.320  1.00  0.00     0.027 C 
BRANCH  10  11
HETATM   11  C11 UNL     1      31.021   8.838  17.395  1.00  0.00     0.229 C 
BRANCH  11  12
HETATM   12  N1  UNL     1      31.465   8.525  18.699  1.00  0.00    -0.079 N 
ATOM     13  H13 UNL     1      32.479   8.624  18.739  1.00  0.00     0.274 HD
ATOM     14  H12 UNL     1      31.172   9.266  19.337  1.00  0.00     0.274 HD
ATOM     15  H11 UNL     1      31.203   7.623  19.095  1.00  0.00     0.274 HD
ENDBRANCH  11  12
ENDBRANCH  10  11
ENDBRANCH   9  10
ENDBRANCH   8   9
ENDBRANCH   1   8
BRANCH   1  16
HETATM   16  C12 UNL     1      30.279   5.439  14.134  1.00  0.00     0.038 C 
BRANCH  16  17
HETATM   17  C13 UNL     1      29.263   6.499  14.357  1.00  0.00     0.202 C 
BRANCH  17  18
HETATM   18  O1  UNL     1      28.867   6.916  13.012  1.00  0.00    -0.278 OA
BRANCH  18  19
HETATM   19  N2  UNL     1      28.794   8.251  12.788  1.00  0.00    -0.244 N 
ATOM     20  H2  UNL     1      29.627   8.840  12.809  1.00  0.00     0.196 HD
BRANCH  19  21
HETATM   21  C14 UNL     1      27.603   8.756  12.541  1.00  0.00     0.168 A 
HETATM   22  N3  UNL     1      26.545   8.823  13.347  1.00  0.00    -0.345 N 
HETATM   23  C15 UNL     1      25.448   9.369  12.904  1.00  0.00     0.097 A 
ATOM     24  H3  UNL     1      26.593   8.453  14.296  1.00  0.00     0.167 HD
HETATM   25  C16 UNL     1      25.445   9.848  11.620  1.00  0.00     0.070 A 
HETATM   26  S1  UNL     1      27.030   9.489  11.103  1.00  0.00    -0.063 SA
ENDBRANCH  19  21
ENDBRANCH  18  19
ENDBRANCH  17  18
ENDBRANCH  16  17
ENDBRANCH   1  16
TORSDOF 14
ENDMDL
MODEL 3
REMARK VINA RESULT: -6.311398874      1.437      4.113
REMARK  14 active torsions:
REMARK  status: ('A' for Active; 'I' for Inactive)
REMARK    1  A    between atoms: C2_2  and  C3_3 
REMARK    2  A    between atoms: C3_3  and  C4_4 
REMARK    3  A    between atoms: C4_4  and  C5_5 
REMARK    4  A    between atoms: C4_4  and  C8_8 
REMARK    5  A    between atoms: C4_4  and  C12_16 
REMARK    6  A    between atoms: C5_5  and  C6_6 
REMARK    7  A    between atoms: C8_8  and  C9_9 
REMARK    8  A    between atoms: C9_9  and  C10_10 
REMARK    9  A    between atoms: C10_10  and  C11_11 
REMARK   10  A    between atoms: C11_11  and  N1_12 
REMARK   11  A    between atoms: C12_16  and  C13_17 
REMARK   12  A    between atoms: C13_17  and  O1_18 
REMARK   13  A    between atoms: O1_18  and  N2_19 
REMARK   14  A    between atoms: N2_19  and  C14_21 
ROOT
HETATM    1  C4  UNL     1      29.091   7.770  14.807  1.00  0.00    -0.038 C 
ENDROOT
BRANCH   1   2
HETATM    2  C3  UNL     1      30.222   8.605  15.239  1.00  0.00     0.009 C 
BRANCH   2   3
HETATM    3  C2  UNL     1      31.331   8.054  16.018  1.00  0.00    -0.004 C 
HETATM    4  C1  UNL     1      31.378   8.840  17.348  1.00  0.00     0.005 C 
ENDBRANCH   2   3
ENDBRANCH   1   2
BRANCH   1   5
HETATM    5  C5  UNL     1      29.343   6.295  14.780  1.00  0.00     0.009 C 
BRANCH   5   6
HETATM    6  C6  UNL     1      29.842   5.774  13.477  1.00  0.00    -0.004 C 
HETATM    7  C7  UNL     1      30.971   4.780  13.705  1.00  0.00     0.005 C 
ENDBRANCH   5   6
ENDBRANCH   1   5
BRANCH   1   8
HETATM    8  C8  UNL     1      28.967   8.232  13.279  1.00  0.00     0.010 C 
BRANCH   8   9
HETATM    9  C9  UNL     1      27.657   8.811  12.985  1.00  0.00     0.002 C 
BRANCH   9  10
HETATM   10  C10 UNL     1      27.433   9.131  11.536  1.00  0.00     0.027 C 
BRANCH  10  11
HETATM   11  C11 UNL     1      26.036   9.403  11.100  1.00  0.00     0.229 C 
BRANCH  11  12
HETATM   12  N1  UNL     1      24.979   8.945  11.918  1.00  0.00    -0.079 N 
ATOM     13  H13 UNL     1      24.818   7.956  11.732  1.00  0.00     0.274 HD
ATOM     14  H12 UNL     1      25.298   8.912  12.887  1.00  0.00     0.274 HD
ATOM     15  H11 UNL     1      24.088   9.440  11.878  1.00  0.00     0.274 HD
ENDBRANCH  11  12
ENDBRANCH  10  11
ENDBRANCH   9  10
ENDBRANCH   8   9
ENDBRANCH   1   8
BRANCH   1  16
HETATM   16  C12 UNL     1      27.785   8.133  15.377  1.00  0.00     0.038 C 
BRANCH  16  17
HETATM   17  C13 UNL     1      27.702   8.759  16.720  1.00  0.00     0.202 C 
BRANCH  17  18
HETATM   18  O1  UNL     1      26.336   8.491  17.168  1.00  0.00    -0.278 OA
BRANCH  18  19
HETATM   19  N2  UNL     1      25.766   9.421  17.971  1.00  0.00    -0.244 N 
ATOM     20  H2  UNL     1      26.224   9.738  18.826  1.00  0.00     0.196 HD
BRANCH  19  21
HETATM   21  C14 UNL     1      24.597   9.900  17.602  1.00  0.00     0.168 A 
HETATM   22  N3  UNL     1      23.663  10.481  18.352  1.00  0.00    -0.345 N 
HETATM   23  C15 UNL     1      22.562  10.890  17.786  1.00  0.00     0.097 A 
ATOM     24  H3  UNL     1      23.806  10.604  19.354  1.00  0.00     0.167 HD
HETATM   25  C16 UNL     1      22.427  10.697  16.436  1.00  0.00     0.070 A 
HETATM   26  S1  UNL     1      23.898   9.931  16.038  1.00  0.00    -0.063 SA
ENDBRANCH  19  21
ENDBRANCH  18  19
ENDBRANCH  17  18
ENDBRANCH  16  17
ENDBRANCH   1  16
TORSDOF 14
ENDMDL
MODEL 4
REMARK VINA RESULT: -6.300925537      3.896      6.320
REMARK  14 active torsions:
REMARK  status: ('A' for Active; 'I' for Inactive)
REMARK    1  A    between atoms: C2_2  and  C3_3 
REMARK    2  A    between atoms: C3_3  and  C4_4 
REMARK    3  A    between atoms: C4_4  and  C5_5 
REMARK    4  A    between atoms: C4_4  and  C8_8 
REMARK    5  A    between atoms: C4_4  and  C12_16 
REMARK    6  A    between atoms: C5_5  and  C6_6 
REMARK    7  A    between atoms: C8_8  and  C9_9 
REMARK    8  A    between atoms: C9_9  and  C10_10 
REMARK    9  A    between atoms: C10_10  and  C11_11 
REMARK   10  A    between atoms: C11_11  and  N1_12 
REMARK   11  A    between atoms: C12_16  and  C13_17 
REMARK   12  A    between atoms: C13_17  and  O1_18 
REMARK   13  A    between atoms: O1_18  and  N2_19 
REMARK   14  A    between atoms: N2_19  and  C14_21 
ROOT
HETATM    1  C4  UNL     1      31.823   5.515  14.430  1.00  0.00    -0.038 C 
ENDROOT
BRANCH   1   2
HETATM    2  C3  UNL     1      32.050   6.958  14.597  1.00  0.00     0.009 C 
BRANCH   2   3
HETATM    3  C2  UNL     1      32.048   7.589  15.916  1.00  0.00    -0.004 C 
HETATM    4  C1  UNL     1      31.382   8.975  15.748  1.00  0.00     0.005 C 
ENDBRANCH   2   3
ENDBRANCH   1   2
BRANCH   1   5
HETATM    5  C5  UNL     1      32.254   4.651  15.573  1.00  0.00     0.009 C 
BRANCH   5   6
HETATM    6  C6  UNL     1      33.576   3.989  15.388  1.00  0.00    -0.004 C 
HETATM    7  C7  UNL     1      33.973   3.242  16.653  1.00  0.00     0.005 C 
ENDBRANCH   5   6
ENDBRANCH   1   5
BRANCH   1   8
HETATM    8  C8  UNL     1      32.834   5.206  13.229  1.00  0.00     0.010 C 
BRANCH   8   9
HETATM    9  C9  UNL     1      32.262   4.279  12.254  1.00  0.00     0.002 C 
BRANCH   9  10
HETATM   10  C10 UNL     1      33.172   3.150  11.865  1.00  0.00     0.027 C 
BRANCH  10  11
HETATM   11  C11 UNL     1      34.571   3.494  11.490  1.00  0.00     0.229 C 
BRANCH  11  12
HETATM   12  N1  UNL     1      35.455   2.439  11.165  1.00  0.00    -0.079 N 
ATOM     13  H13 UNL     1      36.115   2.310  11.931  1.00  0.00     0.274 HD
ATOM     14  H12 UNL     1      34.945   1.556  11.197  1.00  0.00     0.274 HD
ATOM     15  H11 UNL     1      35.970   2.494  10.287  1.00  0.00     0.274 HD
ENDBRANCH  11  12
ENDBRANCH  10  11
ENDBRANCH   9  10
ENDBRANCH   8   9
ENDBRANCH   1   8
BRANCH   1  16
HETATM   16  C12 UNL     1      30.513   5.142  13.874  1.00  0.00     0.038 C 
BRANCH  16  17
HETATM   17  C13 UNL     1      29.307   5.944  14.198  1.00  0.00     0.202 C 
BRANCH  17  18
HETATM   18  O1  UNL     1      29.039   6.712  12.982  1.00  0.00    -0.278 OA
BRANCH  18  19
HETATM   19  N2  UNL     1      28.913   8.054  13.127  1.00  0.00    -0.244 N 
ATOM     20  H2  UNL     1      29.663   8.618  13.528  1.00  0.00     0.196 HD
BRANCH  19  21
HETATM   21  C14 UNL     1      27.783   8.599  12.729  1.00  0.00     0.168 A 
HETATM   22  N3  UNL     1      26.658   8.779  13.420  1.00  0.00    -0.345 N 
HETATM   23  C15 UNL     1      25.642   9.345  12.834  1.00  0.00     0.097 A 
ATOM     24  H3  UNL     1      26.594   8.477  14.391  1.00  0.00     0.167 HD
HETATM   25  C16 UNL     1      25.788   9.728  11.526  1.00  0.00     0.070 A 
HETATM   26  S1  UNL     1      27.393   9.253  11.195  1.00  0.00    -0.063 SA
ENDBRANCH  19  21
ENDBRANCH  18  19
ENDBRANCH  17  18
ENDBRANCH  16  17
ENDBRANCH   1  16
TORSDOF 14
ENDMDL
MODEL 5
REMARK VINA RESULT: -6.188071099      1.255      3.405
REMARK  14 active torsions:
REMARK  status: ('A' for Active; 'I' for Inactive)
REMARK    1  A    between atoms: C2_2  and  C3_3 
REMARK    2  A    between atoms: C3_3  and  C4_4 
REMARK    3  A    between atoms: C4_4  and  C5_5 
REMARK    4  A    between atoms: C4_4  and  C8_8 
REMARK    5  A    between atoms: C4_4  and  C12_16 
REMARK    6  A    between atoms: C5_5  and  C6_6 
REMARK    7  A    between atoms: C8_8  and  C9_9 
REMARK    8  A    between atoms: C9_9  and  C10_10 
REMARK    9  A    between atoms: C10_10  and  C11_11 
REMARK   10  A    between atoms: C11_11  and  N1_12 
REMARK   11  A    between atoms: C12_16  and  C13_17 
REMARK   12  A    between atoms: C13_17  and  O1_18 
REMARK   13  A    between atoms: O1_18  and  N2_19 
REMARK   14  A    between atoms: N2_19  and  C14_21 
ROOT
HETATM    1  C4  UNL     1      29.039   8.110  14.726  1.00  0.00    -0.038 C 
ENDROOT
BRANCH   1   2
HETATM    2  C3  UNL     1      28.882   8.223  13.268  1.00  0.00     0.009 C 
BRANCH   2   3
HETATM    3  C2  UNL     1      27.719   8.875  12.668  1.00  0.00    -0.004 C 
HETATM    4  C1  UNL     1      28.114   9.251  11.221  1.00  0.00     0.005 C 
ENDBRANCH   2   3
ENDBRANCH   1   2
BRANCH   1   5
HETATM    5  C5  UNL     1      30.200   8.848  15.316  1.00  0.00     0.009 C 
BRANCH   5   6
HETATM    6  C6  UNL     1      31.078   8.025  16.194  1.00  0.00    -0.004 C 
HETATM    7  C7  UNL     1      31.541   8.843  17.390  1.00  0.00     0.005 C 
ENDBRANCH   5   6
ENDBRANCH   1   5
BRANCH   1   8
HETATM    8  C8  UNL     1      29.386   6.553  14.853  1.00  0.00     0.010 C 
BRANCH   8   9
HETATM    9  C9  UNL     1      29.863   5.992  13.590  1.00  0.00     0.002 C 
BRANCH   9  10
HETATM   10  C10 UNL     1      30.795   4.825  13.744  1.00  0.00     0.027 C 
BRANCH  10  11
HETATM   11  C11 UNL     1      32.196   5.114  14.156  1.00  0.00     0.229 C 
BRANCH  11  12
HETATM   12  N1  UNL     1      32.589   4.778  15.472  1.00  0.00    -0.079 N 
ATOM     13  H13 UNL     1      31.944   5.209  16.133  1.00  0.00     0.274 HD
ATOM     14  H12 UNL     1      32.400   3.788  15.633  1.00  0.00     0.274 HD
ATOM     15  H11 UNL     1      33.546   4.984  15.757  1.00  0.00     0.274 HD
ENDBRANCH  11  12
ENDBRANCH  10  11
ENDBRANCH   9  10
ENDBRANCH   8   9
ENDBRANCH   1   8
BRANCH   1  16
HETATM   16  C12 UNL     1      27.800   8.244  15.507  1.00  0.00     0.038 C 
BRANCH  16  17
HETATM   17  C13 UNL     1      27.828   8.868  16.854  1.00  0.00     0.202 C 
BRANCH  17  18
HETATM   18  O1  UNL     1      26.550   8.495  17.459  1.00  0.00    -0.278 OA
BRANCH  18  19
HETATM   19  N2  UNL     1      25.985   9.401  18.292  1.00  0.00    -0.244 N 
ATOM     20  H2  UNL     1      26.453   9.702  19.148  1.00  0.00     0.196 HD
BRANCH  19  21
HETATM   21  C14 UNL     1      24.806   9.879  17.952  1.00  0.00     0.168 A 
HETATM   22  N3  UNL     1      23.867  10.409  18.733  1.00  0.00    -0.345 N 
HETATM   23  C15 UNL     1      22.757  10.827  18.193  1.00  0.00     0.097 A 
ATOM     24  H3  UNL     1      24.014  10.486  19.739  1.00  0.00     0.167 HD
HETATM   25  C16 UNL     1      22.618  10.696  16.836  1.00  0.00     0.070 A 
HETATM   26  S1  UNL     1      24.098   9.972  16.395  1.00  0.00    -0.063 SA
ENDBRANCH  19  21
ENDBRANCH  18  19
ENDBRANCH  17  18
ENDBRANCH  16  17
ENDBRANCH   1  16
TORSDOF 14
ENDMDL
