MODEL 1
REMARK VINA RESULT: -7.131813897      0.000      0.000
REMARK  14 active torsions:
REMARK  status: ('A' for Active; 'I' for Inactive)
REMARK    1  A    between atoms: C2_2  and  C3_3 
REMARK    2  A    between atoms: C3_3  and  C4_4 
REMARK    3  A    between atoms: C4_4  and  C5_5 
REMARK    4  A    between atoms: C5_5  and  O1_6 
REMARK    5  A    between atoms: O1_6  and  C6_7 
REMARK    6  A    between atoms: C6_7  and  C8_9 
REMARK    7  A    between atoms: C10_11  and  O2_12 
REMARK    8  A    between atoms: N1_14  and  C11_15 
REMARK    9  A    between atoms: C11_15  and  C12_16 
REMARK   10  A    between atoms: C12_16  and  O3_17 
REMARK   11  A    between atoms: O3_17  and  C13_18 
REMARK   12  A    between atoms: C13_18  and  C14_19 
REMARK   13  A    between atoms: C14_19  and  O4_20 
REMARK   14  A    between atoms: C14_19  and  C15_22 
ROOT
HETATM    1  C8  UNL     1      27.697   8.536  15.943  1.00  0.00    -0.010 A 
HETATM    2  C9  UNL     1      27.788   8.490  14.575  1.00  0.00     0.067 A 
HETATM    3  C10 UNL     1      29.120   8.418  14.243  1.00  0.00     0.142 A 
HETATM    4  N1  UNL     1      29.838   8.419  15.379  1.00  0.00    -0.335 N 
HETATM    5  C17 UNL     1      28.979   8.491  16.419  1.00  0.00     0.103 A 
ENDROOT
BRANCH   4   6
HETATM    6  C11 UNL     1      31.302   8.353  15.463  1.00  0.00     0.156 C 
BRANCH   6   7
HETATM    7  C12 UNL     1      31.821   7.027  15.012  1.00  0.00     0.188 C 
BRANCH   7   8
HETATM    8  O3  UNL     1      31.221   6.007  15.686  1.00  0.00    -0.387 OA
BRANCH   8   9
HETATM    9  C13 UNL     1      30.962   4.877  14.949  1.00  0.00     0.199 C 
BRANCH   9  10
HETATM   10  C14 UNL     1      30.904   5.169  13.457  1.00  0.00     0.141 C 
BRANCH  10  11
HETATM   11  O4  UNL     1      29.541   5.265  13.094  1.00  0.00    -0.393 OA
ATOM     12  H4  UNL     1      29.487   5.821  12.326  1.00  0.00     0.210 HD
ENDBRANCH  10  11
BRANCH  10  13
HETATM   13  C15 UNL     1      31.481   4.056  12.640  1.00  0.00     0.029 C 
HETATM   14  C16 UNL     1      32.989   4.100  12.667  1.00  0.00     0.007 C 
ENDBRANCH  10  13
ENDBRANCH   9  10
ENDBRANCH   8   9
ENDBRANCH   7   8
ENDBRANCH   6   7
ENDBRANCH   4   6
BRANCH   3  15
HETATM   15  O2  UNL     1      29.688   8.352  12.960  1.00  0.00    -0.346 OA
ATOM     16  H2  UNL     1      30.175   9.027  12.503  1.00  0.00     0.219 HD
ENDBRANCH   3  15
BRANCH   1  17
HETATM   17  C6  UNL     1      26.487   8.619  16.831  1.00  0.00     0.151 C 
HETATM   18  C7  UNL     1      26.516   9.965  17.573  1.00  0.00     0.045 C 
BRANCH  17  19
HETATM   19  O1  UNL     1      25.344   8.400  16.174  1.00  0.00    -0.382 OA
BRANCH  19  20
HETATM   20  C5  UNL     1      24.481   9.338  15.802  1.00  0.00     0.168 C 
BRANCH  20  21
HETATM   21  C4  UNL     1      24.352   9.822  14.420  1.00  0.00     0.026 C 
BRANCH  21  22
HETATM   22  C3  UNL     1      24.708   8.940  13.286  1.00  0.00     0.002 C 
BRANCH  22  23
HETATM   23  C2  UNL     1      25.231   9.841  12.134  1.00  0.00    -0.004 C 
HETATM   24  C1  UNL     1      26.222   9.085  11.292  1.00  0.00     0.005 C 
ENDBRANCH  22  23
ENDBRANCH  21  22
ENDBRANCH  20  21
ENDBRANCH  19  20
ENDBRANCH  17  19
ENDBRANCH   1  17
TORSDOF 14
ENDMDL
MODEL 2
REMARK VINA RESULT: -7.119037808      2.070      7.681
REMARK  14 active torsions:
REMARK  status: ('A' for Active; 'I' for Inactive)
REMARK    1  A    between atoms: C2_2  and  C3_3 
REMARK    2  A    between atoms: C3_3  and  C4_4 
REMARK    3  A    between atoms: C4_4  and  C5_5 
REMARK    4  A    between atoms: C5_5  and  O1_6 
REMARK    5  A    between atoms: O1_6  and  C6_7 
REMARK    6  A    between atoms: C6_7  and  C8_9 
REMARK    7  A    between atoms: C10_11  and  O2_12 
REMARK    8  A    between atoms: N1_14  and  C11_15 
REMARK    9  A    between atoms: C11_15  and  C12_16 
REMARK   10  A    between atoms: C12_16  and  O3_17 
REMARK   11  A    between atoms: O3_17  and  C13_18 
REMARK   12  A    between atoms: C13_18  and  C14_19 
REMARK   13  A    between atoms: C14_19  and  O4_20 
REMARK   14  A    between atoms: C14_19  and  C15_22 
ROOT
HETATM    1  C8  UNL     1      31.844   6.401  14.702  1.00  0.00    -0.010 A 
HETATM    2  C9  UNL     1      32.312   7.430  15.479  1.00  0.00     0.067 A 
HETATM    3  C10 UNL     1      31.325   8.382  15.559  1.00  0.00     0.142 A 
HETATM    4  N1  UNL     1      30.268   7.954  14.848  1.00  0.00    -0.335 N 
HETATM    5  C17 UNL     1      30.576   6.748  14.323  1.00  0.00     0.103 A 
ENDROOT
BRANCH   4   6
HETATM    6  C11 UNL     1      29.004   8.680  14.678  1.00  0.00     0.156 C 
BRANCH   6   7
HETATM    7  C12 UNL     1      28.544   8.659  13.256  1.00  0.00     0.188 C 
BRANCH   7   8
HETATM    8  O3  UNL     1      27.274   8.177  13.156  1.00  0.00    -0.387 OA
BRANCH   8   9
HETATM    9  C13 UNL     1      26.295   8.956  13.722  1.00  0.00     0.199 C 
BRANCH   9  10
HETATM   10  C14 UNL     1      25.200   9.310  12.727  1.00  0.00     0.141 C 
BRANCH  10  11
HETATM   11  O4  UNL     1      24.312   8.212  12.660  1.00  0.00    -0.393 OA
ATOM     12  H4  UNL     1      24.062   8.100  11.751  1.00  0.00     0.210 HD
ENDBRANCH  10  11
BRANCH  10  13
HETATM   13  C15 UNL     1      25.736   9.505  11.343  1.00  0.00     0.029 C 
HETATM   14  C16 UNL     1      24.998  10.614  10.636  1.00  0.00     0.007 C 
ENDBRANCH  10  13
ENDBRANCH   9  10
ENDBRANCH   8   9
ENDBRANCH   7   8
ENDBRANCH   6   7
ENDBRANCH   4   6
BRANCH   3  15
HETATM   15  O2  UNL     1      31.359   9.606  16.248  1.00  0.00    -0.346 OA
ATOM     16  H2  UNL     1      30.815   9.881  16.976  1.00  0.00     0.219 HD
ENDBRANCH   3  15
BRANCH   1  17
HETATM   17  C6  UNL     1      32.506   5.115  14.294  1.00  0.00     0.151 C 
HETATM   18  C7  UNL     1      32.848   4.316  15.560  1.00  0.00     0.045 C 
BRANCH  17  19
HETATM   19  O1  UNL     1      31.788   4.420  13.405  1.00  0.00    -0.382 OA
BRANCH  19  20
HETATM   20  C5  UNL     1      32.216   4.027  12.211  1.00  0.00     0.168 C 
BRANCH  20  21
HETATM   21  C4  UNL     1      33.439   3.237  12.006  1.00  0.00     0.026 C 
BRANCH  21  22
HETATM   22  C3  UNL     1      34.719   3.913  11.699  1.00  0.00     0.002 C 
BRANCH  22  23
HETATM   23  C2  UNL     1      35.681   2.850  11.102  1.00  0.00    -0.004 C 
HETATM   24  C1  UNL     1      37.097   3.138  11.519  1.00  0.00     0.005 C 
ENDBRANCH  22  23
ENDBRANCH  21  22
ENDBRANCH  20  21
ENDBRANCH  19  20
ENDBRANCH  17  19
ENDBRANCH   1  17
TORSDOF 14
ENDMDL
MODEL 3
REMARK VINA RESULT: -7.096428787      2.036      7.230
REMARK  14 active torsions:
REMARK  status: ('A' for Active; 'I' for Inactive)
REMARK    1  A    between atoms: C2_2  and  C3_3 
REMARK    2  A    between atoms: C3_3  and  C4_4 
REMARK    3  A    between atoms: C4_4  and  C5_5 
REMARK    4  A    between atoms: C5_5  and  O1_6 
REMARK    5  A    between atoms: O1_6  and  C6_7 
REMARK    6  A    between atoms: C6_7  and  C8_9 
REMARK    7  A    between atoms: C10_11  and  O2_12 
REMARK    8  A    between atoms: N1_14  and  C11_15 
REMARK    9  A    between atoms: C11_15  and  C12_16 
REMARK   10  A    between atoms: C12_16  and  O3_17 
REMARK   11  A    between atoms: O3_17  and  C13_18 
REMARK   12  A    between atoms: C13_18  and  C14_19 
REMARK   13  A    between atoms: C14_19  and  O4_20 
REMARK   14  A    between atoms: C14_19  and  C15_22 
ROOT
HETATM    1  C8  UNL     1      27.859   8.563  13.153  1.00  0.00    -0.010 A 
HETATM    2  C9  UNL     1      27.297   8.865  11.939  1.00  0.00     0.067 A 
HETATM    3  C10 UNL     1      25.996   9.250  12.160  1.00  0.00     0.142 A 
HETATM    4  N1  UNL     1      25.757   9.187  13.480  1.00  0.00    -0.335 N 
HETATM    5  C17 UNL     1      26.887   8.770  14.093  1.00  0.00     0.103 A 
ENDROOT
BRANCH   4   6
HETATM    6  C11 UNL     1      24.485   9.517  14.134  1.00  0.00     0.156 C 
BRANCH   6   7
HETATM    7  C12 UNL     1      24.457   9.051  15.553  1.00  0.00     0.188 C 
BRANCH   7   8
HETATM    8  O3  UNL     1      23.563   9.768  16.290  1.00  0.00    -0.387 OA
BRANCH   8   9
HETATM    9  C13 UNL     1      24.102  10.550  17.283  1.00  0.00     0.199 C 
BRANCH   9  10
HETATM   10  C14 UNL     1      25.208   9.829  18.040  1.00  0.00     0.141 C 
BRANCH  10  11
HETATM   11  O4  UNL     1      24.717   9.534  19.332  1.00  0.00    -0.393 OA
ATOM     12  H4  UNL     1      25.173   8.759  19.642  1.00  0.00     0.210 HD
ENDBRANCH  10  11
BRANCH  10  13
HETATM   13  C15 UNL     1      26.415  10.692  18.234  1.00  0.00     0.029 C 
HETATM   14  C16 UNL     1      26.049  12.153  18.140  1.00  0.00     0.007 C 
ENDBRANCH  10  13
ENDBRANCH   9  10
ENDBRANCH   8   9
ENDBRANCH   7   8
ENDBRANCH   6   7
ENDBRANCH   4   6
BRANCH   3  15
HETATM   15  O2  UNL     1      25.040   9.648  11.211  1.00  0.00    -0.346 OA
ATOM     16  H2  UNL     1      25.098  10.362  10.588  1.00  0.00     0.219 HD
ENDBRANCH   3  15
BRANCH   1  17
HETATM   17  C6  UNL     1      29.247   8.094  13.489  1.00  0.00     0.151 C 
HETATM   18  C7  UNL     1      29.520   8.393  14.971  1.00  0.00     0.045 C 
BRANCH  17  19
HETATM   19  O1  UNL     1      29.457   6.816  13.158  1.00  0.00    -0.382 OA
BRANCH  19  20
HETATM   20  C5  UNL     1      29.527   5.803  14.015  1.00  0.00     0.168 C 
BRANCH  20  21
HETATM   21  C4  UNL     1      30.671   4.884  14.095  1.00  0.00     0.026 C 
BRANCH  21  22
HETATM   22  C3  UNL     1      31.842   5.075  13.210  1.00  0.00     0.002 C 
BRANCH  22  23
HETATM   23  C2  UNL     1      31.809   3.952  12.137  1.00  0.00    -0.004 C 
HETATM   24  C1  UNL     1      33.151   3.278  12.047  1.00  0.00     0.005 C 
ENDBRANCH  22  23
ENDBRANCH  21  22
ENDBRANCH  20  21
ENDBRANCH  19  20
ENDBRANCH  17  19
ENDBRANCH   1  17
TORSDOF 14
ENDMDL
MODEL 4
REMARK VINA RESULT: -7.044924595      2.564      8.415
REMARK  14 active torsions:
REMARK  status: ('A' for Active; 'I' for Inactive)
REMARK    1  A    between atoms: C2_2  and  C3_3 
REMARK    2  A    between atoms: C3_3  and  C4_4 
REMARK    3  A    between atoms: C4_4  and  C5_5 
REMARK    4  A    between atoms: C5_5  and  O1_6 
REMARK    5  A    between atoms: O1_6  and  C6_7 
REMARK    6  A    between atoms: C6_7  and  C8_9 
REMARK    7  A    between atoms: C10_11  and  O2_12 
REMARK    8  A    between atoms: N1_14  and  C11_15 
REMARK    9  A    between atoms: C11_15  and  C12_16 
REMARK   10  A    between atoms: C12_16  and  O3_17 
REMARK   11  A    between atoms: O3_17  and  C13_18 
REMARK   12  A    between atoms: C13_18  and  C14_19 
REMARK   13  A    between atoms: C14_19  and  O4_20 
REMARK   14  A    between atoms: C14_19  and  C15_22 
ROOT
HETATM    1  C8  UNL     1      31.826   5.306  13.947  1.00  0.00    -0.010 A 
HETATM    2  C9  UNL     1      32.235   5.945  15.091  1.00  0.00     0.067 A 
HETATM    3  C10 UNL     1      31.230   6.798  15.480  1.00  0.00     0.142 A 
HETATM    4  N1  UNL     1      30.222   6.690  14.599  1.00  0.00    -0.335 N 
HETATM    5  C17 UNL     1      30.576   5.784  13.662  1.00  0.00     0.103 A 
ENDROOT
BRANCH   4   6
HETATM    6  C11 UNL     1      28.958   7.435  14.655  1.00  0.00     0.156 C 
BRANCH   6   7
HETATM    7  C12 UNL     1      28.780   8.307  13.455  1.00  0.00     0.188 C 
BRANCH   7   8
HETATM    8  O3  UNL     1      27.525   8.186  12.939  1.00  0.00    -0.387 OA
BRANCH   8   9
HETATM    9  C13 UNL     1      26.533   8.844  13.626  1.00  0.00     0.199 C 
BRANCH   9  10
HETATM   10  C14 UNL     1      25.427   9.333  12.702  1.00  0.00     0.141 C 
BRANCH  10  11
HETATM   11  O4  UNL     1      24.489   8.285  12.567  1.00  0.00    -0.393 OA
ATOM     12  H4  UNL     1      23.677   8.572  12.969  1.00  0.00     0.210 HD
ENDBRANCH  10  11
BRANCH  10  13
HETATM   13  C15 UNL     1      25.931   9.629  11.324  1.00  0.00     0.029 C 
HETATM   14  C16 UNL     1      25.028  10.614  10.625  1.00  0.00     0.007 C 
ENDBRANCH  10  13
ENDBRANCH   9  10
ENDBRANCH   8   9
ENDBRANCH   7   8
ENDBRANCH   6   7
ENDBRANCH   4   6
BRANCH   3  15
HETATM   15  O2  UNL     1      31.208   7.654  16.594  1.00  0.00    -0.346 OA
ATOM     16  H2  UNL     1      30.717   8.460  16.700  1.00  0.00     0.219 HD
ENDBRANCH   3  15
BRANCH   1  17
HETATM   17  C6  UNL     1      32.530   4.278  13.107  1.00  0.00     0.151 C 
HETATM   18  C7  UNL     1      31.538   3.733  12.068  1.00  0.00     0.045 C 
BRANCH  17  19
HETATM   19  O1  UNL     1      33.665   4.735  12.568  1.00  0.00    -0.382 OA
BRANCH  19  20
HETATM   20  C5  UNL     1      34.358   4.131  11.610  1.00  0.00     0.168 C 
BRANCH  20  21
HETATM   21  C4  UNL     1      35.803   4.314  11.413  1.00  0.00     0.026 C 
BRANCH  21  22
HETATM   22  C3  UNL     1      36.733   3.186  11.640  1.00  0.00     0.002 C 
BRANCH  22  23
HETATM   23  C2  UNL     1      37.984   3.420  10.749  1.00  0.00    -0.004 C 
HETATM   24  C1  UNL     1      37.875   4.741  10.037  1.00  0.00     0.005 C 
ENDBRANCH  22  23
ENDBRANCH  21  22
ENDBRANCH  20  21
ENDBRANCH  19  20
ENDBRANCH  17  19
ENDBRANCH   1  17
TORSDOF 14
ENDMDL
MODEL 5
REMARK VINA RESULT: -7.039628772      1.749      6.973
REMARK  14 active torsions:
REMARK  status: ('A' for Active; 'I' for Inactive)
REMARK    1  A    between atoms: C2_2  and  C3_3 
REMARK    2  A    between atoms: C3_3  and  C4_4 
REMARK    3  A    between atoms: C4_4  and  C5_5 
REMARK    4  A    between atoms: C5_5  and  O1_6 
REMARK    5  A    between atoms: O1_6  and  C6_7 
REMARK    6  A    between atoms: C6_7  and  C8_9 
REMARK    7  A    between atoms: C10_11  and  O2_12 
REMARK    8  A    between atoms: N1_14  and  C11_15 
REMARK    9  A    between atoms: C11_15  and  C12_16 
REMARK   10  A    between atoms: C12_16  and  O3_17 
REMARK   11  A    between atoms: O3_17  and  C13_18 
REMARK   12  A    between atoms: C13_18  and  C14_19 
REMARK   13  A    between atoms: C14_19  and  O4_20 
REMARK   14  A    between atoms: C14_19  and  C15_22 
ROOT
HETATM    1  C8  UNL     1      29.709   8.137  14.944  1.00  0.00    -0.010 A 
HETATM    2  C9  UNL     1      29.398   8.159  13.607  1.00  0.00     0.067 A 
HETATM    3  C10 UNL     1      28.064   8.471  13.490  1.00  0.00     0.142 A 
HETATM    4  N1  UNL     1      27.561   8.638  14.724  1.00  0.00    -0.335 N 
HETATM    5  C17 UNL     1      28.556   8.437  15.616  1.00  0.00     0.103 A 
ENDROOT
BRANCH   4   6
HETATM    6  C11 UNL     1      26.168   8.980  15.038  1.00  0.00     0.156 C 
BRANCH   6   7
HETATM    7  C12 UNL     1      25.773   8.491  16.394  1.00  0.00     0.188 C 
BRANCH   7   8
HETATM    8  O3  UNL     1      24.598   9.051  16.797  1.00  0.00    -0.387 OA
BRANCH   8   9
HETATM    9  C13 UNL     1      24.689   9.937  17.843  1.00  0.00     0.199 C 
BRANCH   9  10
HETATM   10  C14 UNL     1      26.019   9.823  18.573  1.00  0.00     0.141 C 
BRANCH  10  11
HETATM   11  O4  UNL     1      25.740   9.493  19.919  1.00  0.00    -0.393 OA
ATOM     12  H4  UNL     1      25.965   8.578  20.042  1.00  0.00     0.210 HD
ENDBRANCH  10  11
BRANCH  10  13
HETATM   13  C15 UNL     1      26.761  11.123  18.603  1.00  0.00     0.029 C 
HETATM   14  C16 UNL     1      25.855  12.264  18.212  1.00  0.00     0.007 C 
ENDBRANCH  10  13
ENDBRANCH   9  10
ENDBRANCH   8   9
ENDBRANCH   7   8
ENDBRANCH   6   7
ENDBRANCH   4   6
BRANCH   3  15
HETATM   15  O2  UNL     1      27.309   8.604  12.313  1.00  0.00    -0.346 OA
ATOM     16  H2  UNL     1      27.600   8.921  11.466  1.00  0.00     0.219 HD
ENDBRANCH   3  15
BRANCH   1  17
HETATM   17  C6  UNL     1      31.016   7.855  15.630  1.00  0.00     0.151 C 
HETATM   18  C7  UNL     1      31.075   8.674  16.928  1.00  0.00     0.045 C 
BRANCH  17  19
HETATM   19  O1  UNL     1      31.233   6.549  15.816  1.00  0.00    -0.382 OA
BRANCH  19  20
HETATM   20  C5  UNL     1      32.163   5.829  15.200  1.00  0.00     0.168 C 
BRANCH  20  21
HETATM   21  C4  UNL     1      32.092   5.454  13.780  1.00  0.00     0.026 C 
BRANCH  21  22
HETATM   22  C3  UNL     1      30.951   4.657  13.278  1.00  0.00     0.002 C 
BRANCH  22  23
HETATM   23  C2  UNL     1      31.482   3.738  12.143  1.00  0.00    -0.004 C 
HETATM   24  C1  UNL     1      32.980   3.628  12.221  1.00  0.00     0.005 C 
ENDBRANCH  22  23
ENDBRANCH  21  22
ENDBRANCH  20  21
ENDBRANCH  19  20
ENDBRANCH  17  19
ENDBRANCH   1  17
TORSDOF 14
ENDMDL
