MODEL 1
REMARK VINA RESULT: -5.629636785      0.000      0.000
REMARK  5 active torsions:
REMARK  status: ('A' for Active; 'I' for Inactive)
REMARK    1  A    between atoms: C2_2  and  N1_3 
REMARK    2  A    between atoms: N1_3  and  C3_4 
REMARK    3  A    between atoms: N1_3  and  C5_6 
REMARK    4  A    between atoms: C5_6  and  C6_7 
REMARK    5  A    between atoms: C6_7  and  N2_8 
ROOT
HETATM    1  N2  UNL     1      11.214 -10.209  23.699  1.00  0.00    -0.229 NA
HETATM    2  C7  UNL     1      12.602  -9.798  23.545  1.00  0.00     0.145 C 
HETATM    3  C8  UNL     1      13.595 -10.892  23.512  1.00  0.00     0.234 C 
HETATM    4  C9  UNL     1      14.103 -11.158  24.909  1.00  0.00     0.044 C 
HETATM    5  N3  UNL     1      13.192 -12.072  22.812  1.00  0.00     0.105 N 
HETATM    6  C10 UNL     1      13.863 -12.158  21.502  1.00  0.00     0.312 C 
HETATM    7  C11 UNL     1      11.770 -12.123  22.555  1.00  0.00     0.400 C 
HETATM    8  N4  UNL     1      11.031 -11.538  23.620  1.00  0.00    -0.135 NA
ENDROOT
BRANCH   1   9
HETATM    9  C6  UNL     1      10.367  -9.339  22.939  1.00  0.00     0.129 C 
BRANCH   9  10
HETATM   10  C5  UNL     1       8.964  -9.405  23.399  1.00  0.00     0.132 C 
BRANCH  10  11
HETATM   11  N1  UNL     1       8.035  -9.731  22.371  1.00  0.00    -0.412 N 
BRANCH  11  12
HETATM   12  C2  UNL     1       6.810  -9.041  22.323  1.00  0.00     0.112 C 
HETATM   13  C1  UNL     1       5.659  -9.953  22.771  1.00  0.00     0.026 C 
ENDBRANCH  11  12
BRANCH  11  14
HETATM   14  C3  UNL     1       8.664 -10.113  21.166  1.00  0.00     0.112 C 
HETATM   15  C4  UNL     1       8.202  -9.358  19.938  1.00  0.00     0.026 C 
ENDBRANCH  11  14
ENDBRANCH  10  11
ENDBRANCH   9  10
ENDBRANCH   1   9
TORSDOF 5
ENDMDL
MODEL 2
REMARK VINA RESULT: -5.546756811      0.258      1.699
REMARK  5 active torsions:
REMARK  status: ('A' for Active; 'I' for Inactive)
REMARK    1  A    between atoms: C2_2  and  N1_3 
REMARK    2  A    between atoms: N1_3  and  C3_4 
REMARK    3  A    between atoms: N1_3  and  C5_6 
REMARK    4  A    between atoms: C5_6  and  C6_7 
REMARK    5  A    between atoms: C6_7  and  N2_8 
ROOT
HETATM    1  N2  UNL     1      11.240 -10.186  23.742  1.00  0.00    -0.229 NA
HETATM    2  C7  UNL     1      12.640  -9.832  23.560  1.00  0.00     0.145 C 
HETATM    3  C8  UNL     1      13.578 -10.968  23.439  1.00  0.00     0.234 C 
HETATM    4  C9  UNL     1      14.118 -11.326  24.804  1.00  0.00     0.044 C 
HETATM    5  N3  UNL     1      13.098 -12.092  22.698  1.00  0.00     0.105 N 
HETATM    6  C10 UNL     1      13.722 -12.143  21.363  1.00  0.00     0.312 C 
HETATM    7  C11 UNL     1      11.668 -12.065  22.487  1.00  0.00     0.400 C 
HETATM    8  N4  UNL     1      10.992 -11.501  23.605  1.00  0.00    -0.135 NA
ENDROOT
BRANCH   1   9
HETATM    9  C6  UNL     1      10.411  -9.242  23.053  1.00  0.00     0.129 C 
BRANCH   9  10
HETATM   10  C5  UNL     1       8.977  -9.482  23.316  1.00  0.00     0.132 C 
BRANCH  10  11
HETATM   11  N1  UNL     1       8.167  -9.477  22.145  1.00  0.00    -0.412 N 
BRANCH  11  12
HETATM   12  C2  UNL     1       8.359 -10.488  21.186  1.00  0.00     0.112 C 
HETATM   13  C1  UNL     1       8.529  -9.880  19.787  1.00  0.00     0.026 C 
ENDBRANCH  11  12
BRANCH  11  14
HETATM   14  C3  UNL     1       6.866  -8.983  22.382  1.00  0.00     0.112 C 
HETATM   15  C4  UNL     1       5.851 -10.030  22.787  1.00  0.00     0.026 C 
ENDBRANCH  11  14
ENDBRANCH  10  11
ENDBRANCH   9  10
ENDBRANCH   1   9
TORSDOF 5
ENDMDL
MODEL 3
REMARK VINA RESULT: -5.440450680      1.184      1.495
REMARK  5 active torsions:
REMARK  status: ('A' for Active; 'I' for Inactive)
REMARK    1  A    between atoms: C2_2  and  N1_3 
REMARK    2  A    between atoms: N1_3  and  C3_4 
REMARK    3  A    between atoms: N1_3  and  C5_6 
REMARK    4  A    between atoms: C5_6  and  C6_7 
REMARK    5  A    between atoms: C6_7  and  N2_8 
ROOT
HETATM    1  N2  UNL     1      11.393  -9.578  23.506  1.00  0.00    -0.229 NA
HETATM    2  C7  UNL     1      11.860  -9.342  22.148  1.00  0.00     0.145 C 
HETATM    3  C8  UNL     1      13.202  -9.874  21.830  1.00  0.00     0.234 C 
HETATM    4  C9  UNL     1      14.244  -8.813  22.093  1.00  0.00     0.044 C 
HETATM    5  N3  UNL     1      13.516 -11.144  22.406  1.00  0.00     0.105 N 
HETATM    6  C10 UNL     1      13.452 -12.210  21.390  1.00  0.00     0.312 C 
HETATM    7  C11 UNL     1      12.612 -11.526  23.467  1.00  0.00     0.400 C 
HETATM    8  N4  UNL     1      12.189 -10.394  24.218  1.00  0.00    -0.135 NA
ENDROOT
BRANCH   1   9
HETATM    9  C6  UNL     1       9.979  -9.813  23.494  1.00  0.00     0.129 C 
BRANCH   9  10
HETATM   10  C5  UNL     1       9.496 -10.157  22.140  1.00  0.00     0.132 C 
BRANCH  10  11
HETATM   11  N1  UNL     1       8.149  -9.766  21.892  1.00  0.00    -0.412 N 
BRANCH  11  12
HETATM   12  C2  UNL     1       7.386  -9.258  22.958  1.00  0.00     0.112 C 
HETATM   13  C1  UNL     1       5.927  -9.725  22.849  1.00  0.00     0.026 C 
ENDBRANCH  11  12
BRANCH  11  14
HETATM   14  C3  UNL     1       7.961  -9.245  20.594  1.00  0.00     0.112 C 
HETATM   15  C4  UNL     1       8.734  -9.956  19.504  1.00  0.00     0.026 C 
ENDBRANCH  11  14
ENDBRANCH  10  11
ENDBRANCH   9  10
ENDBRANCH   1   9
TORSDOF 5
ENDMDL
MODEL 4
REMARK VINA RESULT: -5.337949297      2.021      2.808
REMARK  5 active torsions:
REMARK  status: ('A' for Active; 'I' for Inactive)
REMARK    1  A    between atoms: C2_2  and  N1_3 
REMARK    2  A    between atoms: N1_3  and  C3_4 
REMARK    3  A    between atoms: N1_3  and  C5_6 
REMARK    4  A    between atoms: C5_6  and  C6_7 
REMARK    5  A    between atoms: C6_7  and  N2_8 
ROOT
HETATM    1  N2  UNL     1      13.003  -8.959  23.420  1.00  0.00    -0.229 NA
HETATM    2  C7  UNL     1      13.634  -9.156  22.123  1.00  0.00     0.145 C 
HETATM    3  C8  UNL     1      14.796 -10.069  22.106  1.00  0.00     0.234 C 
HETATM    4  C9  UNL     1      16.066  -9.277  22.310  1.00  0.00     0.044 C 
HETATM    5  N3  UNL     1      14.692 -11.217  22.951  1.00  0.00     0.105 N 
HETATM    6  C10 UNL     1      14.421 -12.429  22.157  1.00  0.00     0.312 C 
HETATM    7  C11 UNL     1      13.629 -11.112  23.926  1.00  0.00     0.400 C 
HETATM    8  N4  UNL     1      13.475  -9.773  24.380  1.00  0.00    -0.135 NA
ENDROOT
BRANCH   1   9
HETATM    9  C6  UNL     1      11.587  -8.822  23.251  1.00  0.00     0.129 C 
BRANCH   9  10
HETATM   10  C5  UNL     1      11.184  -9.027  21.844  1.00  0.00     0.132 C 
BRANCH  10  11
HETATM   11  N1  UNL     1      10.141  -9.982  21.675  1.00  0.00    -0.412 N 
BRANCH  11  12
HETATM   12  C2  UNL     1       9.875 -10.472  20.384  1.00  0.00     0.112 C 
HETATM   13  C1  UNL     1       8.600  -9.833  19.816  1.00  0.00     0.026 C 
ENDBRANCH  11  12
BRANCH  11  14
HETATM   14  C3  UNL     1      10.003 -10.842  22.786  1.00  0.00     0.112 C 
HETATM   15  C4  UNL     1      10.376 -12.286  22.525  1.00  0.00     0.026 C 
ENDBRANCH  11  14
ENDBRANCH  10  11
ENDBRANCH   9  10
ENDBRANCH   1   9
TORSDOF 5
ENDMDL
MODEL 5
REMARK VINA RESULT: -5.309978677      1.159      2.188
REMARK  5 active torsions:
REMARK  status: ('A' for Active; 'I' for Inactive)
REMARK    1  A    between atoms: C2_2  and  N1_3 
REMARK    2  A    between atoms: N1_3  and  C3_4 
REMARK    3  A    between atoms: N1_3  and  C5_6 
REMARK    4  A    between atoms: C5_6  and  C6_7 
REMARK    5  A    between atoms: C6_7  and  N2_8 
ROOT
HETATM    1  N2  UNL     1      11.605  -9.955  23.402  1.00  0.00    -0.229 NA
HETATM    2  C7  UNL     1      12.134  -9.835  22.051  1.00  0.00     0.145 C 
HETATM    3  C8  UNL     1      13.576 -10.120  21.898  1.00  0.00     0.234 C 
HETATM    4  C9  UNL     1      14.364  -8.840  22.040  1.00  0.00     0.044 C 
HETATM    5  N3  UNL     1      14.081 -11.197  22.693  1.00  0.00     0.105 N 
HETATM    6  C10 UNL     1      14.314 -12.393  21.865  1.00  0.00     0.312 C 
HETATM    7  C11 UNL     1      13.180 -11.593  23.752  1.00  0.00     0.400 C 
HETATM    8  N4  UNL     1      12.481 -10.473  24.281  1.00  0.00    -0.135 NA
ENDROOT
BRANCH   1   9
HETATM    9  C6  UNL     1      10.271 -10.475  23.352  1.00  0.00     0.129 C 
BRANCH   9  10
HETATM   10  C5  UNL     1       9.265  -9.417  23.580  1.00  0.00     0.132 C 
BRANCH  10  11
HETATM   11  N1  UNL     1       8.208  -9.411  22.626  1.00  0.00    -0.412 N 
BRANCH  11  12
HETATM   12  C2  UNL     1       8.248 -10.334  21.567  1.00  0.00     0.112 C 
HETATM   13  C1  UNL     1       8.458  -9.612  20.228  1.00  0.00     0.026 C 
ENDBRANCH  11  12
BRANCH  11  14
HETATM   14  C3  UNL     1       6.964  -9.057  23.191  1.00  0.00     0.112 C 
HETATM   15  C4  UNL     1       5.804  -9.939  22.783  1.00  0.00     0.026 C 
ENDBRANCH  11  14
ENDBRANCH  10  11
ENDBRANCH   9  10
ENDBRANCH   1   9
TORSDOF 5
ENDMDL
