MODEL 1
REMARK VINA RESULT: -5.271838147      0.000      0.000
REMARK  5 active torsions:
REMARK  status: ('A' for Active; 'I' for Inactive)
REMARK    1  A    between atoms: O1_2  and  C2_3 
REMARK    2  A    between atoms: C2_3  and  C3_4 
REMARK    3  A    between atoms: C3_4  and  N1_5 
REMARK    4  A    between atoms: N1_5  and  C4_8 
REMARK    5  A    between atoms: C4_8  and  C5_9 
ROOT
HETATM    1  C5  UNL     1      10.892  -9.992  23.112  1.00  0.00     0.018 C 
HETATM    2  C6  UNL     1      11.737  -8.804  22.776  1.00  0.00     0.037 C 
HETATM    3  C7  UNL     1      13.140  -9.114  22.372  1.00  0.00     0.272 C 
HETATM    4  N2  UNL     1      13.377 -10.508  22.078  1.00  0.00     0.084 N 
HETATM    5  C8  UNL     1      14.622 -10.616  21.348  1.00  0.00     0.309 C 
HETATM    6  C9  UNL     1      12.274 -10.957  21.244  1.00  0.00     0.276 C 
HETATM    7  C10 UNL     1      11.141 -11.188  22.258  1.00  0.00     0.015 C 
HETATM    8  C11 UNL     1      11.598 -12.340  23.123  1.00  0.00     0.012 C 
ENDROOT
BRANCH   1   9
HETATM    9  C4  UNL     1       9.417  -9.614  23.070  1.00  0.00     0.237 C 
BRANCH   9  10
HETATM   10  N1  UNL     1       8.757 -10.352  22.011  1.00  0.00    -0.073 N 
ATOM     11  H12 UNL     1       8.462 -11.272  22.338  1.00  0.00     0.277 HD
ATOM     12  H11 UNL     1       9.425 -10.637  21.295  1.00  0.00     0.277 HD
BRANCH  10  13
HETATM   13  C3  UNL     1       7.660  -9.642  21.430  1.00  0.00     0.258 C 
BRANCH  13  14
HETATM   14  C2  UNL     1       8.015  -8.890  20.188  1.00  0.00     0.194 C 
BRANCH  14  15
HETATM   15  O1  UNL     1       7.291  -7.718  20.024  1.00  0.00    -0.394 OA
HETATM   16  C1  UNL     1       6.124  -7.666  20.750  1.00  0.00     0.201 C 
ENDBRANCH  14  15
ENDBRANCH  13  14
ENDBRANCH  10  13
ENDBRANCH   9  10
ENDBRANCH   1   9
TORSDOF 5
ENDMDL
MODEL 2
REMARK VINA RESULT: -5.160411282      2.533      5.619
REMARK  5 active torsions:
REMARK  status: ('A' for Active; 'I' for Inactive)
REMARK    1  A    between atoms: O1_2  and  C2_3 
REMARK    2  A    between atoms: C2_3  and  C3_4 
REMARK    3  A    between atoms: C3_4  and  N1_5 
REMARK    4  A    between atoms: N1_5  and  C4_8 
REMARK    5  A    between atoms: C4_8  and  C5_9 
ROOT
HETATM    1  C5  UNL     1      10.484 -10.330  21.739  1.00  0.00     0.018 C 
HETATM    2  C6  UNL     1      10.096 -10.003  23.146  1.00  0.00     0.037 C 
HETATM    3  C7  UNL     1       8.761  -9.351  23.302  1.00  0.00     0.272 C 
HETATM    4  N2  UNL     1       7.931  -9.412  22.123  1.00  0.00     0.084 N 
HETATM    5  C8  UNL     1       6.569  -9.109  22.505  1.00  0.00     0.309 C 
HETATM    6  C9  UNL     1       8.011 -10.774  21.619  1.00  0.00     0.276 C 
HETATM    7  C10 UNL     1       9.359 -10.795  20.880  1.00  0.00     0.015 C 
HETATM    8  C11 UNL     1       9.195  -9.852  19.709  1.00  0.00     0.012 C 
ENDROOT
BRANCH   1   9
HETATM    9  C4  UNL     1      11.609 -11.359  21.733  1.00  0.00     0.237 C 
BRANCH   9  10
HETATM   10  N1  UNL     1      12.781 -10.792  21.094  1.00  0.00    -0.073 N 
ATOM     11  H12 UNL     1      12.514 -10.097  20.397  1.00  0.00     0.277 HD
ATOM     12  H11 UNL     1      13.228 -11.476  20.484  1.00  0.00     0.277 HD
BRANCH  10  13
HETATM   13  C3  UNL     1      13.721 -10.248  22.024  1.00  0.00     0.258 C 
BRANCH  13  14
HETATM   14  C2  UNL     1      13.770  -8.754  22.031  1.00  0.00     0.194 C 
BRANCH  14  15
HETATM   15  O1  UNL     1      15.006  -8.242  22.395  1.00  0.00    -0.394 OA
HETATM   16  C1  UNL     1      16.069  -9.067  22.109  1.00  0.00     0.201 C 
ENDBRANCH  14  15
ENDBRANCH  13  14
ENDBRANCH  10  13
ENDBRANCH   9  10
ENDBRANCH   1   9
TORSDOF 5
ENDMDL
MODEL 3
REMARK VINA RESULT: -5.097883150      2.804      5.800
REMARK  5 active torsions:
REMARK  status: ('A' for Active; 'I' for Inactive)
REMARK    1  A    between atoms: O1_2  and  C2_3 
REMARK    2  A    between atoms: C2_3  and  C3_4 
REMARK    3  A    between atoms: C3_4  and  N1_5 
REMARK    4  A    between atoms: N1_5  and  C4_8 
REMARK    5  A    between atoms: C4_8  and  C5_9 
ROOT
HETATM    1  C5  UNL     1      10.311  -9.493  21.848  1.00  0.00     0.018 C 
HETATM    2  C6  UNL     1       9.904  -9.422  23.285  1.00  0.00     0.037 C 
HETATM    3  C7  UNL     1       8.443  -9.219  23.523  1.00  0.00     0.272 C 
HETATM    4  N2  UNL     1       7.619  -9.424  22.356  1.00  0.00     0.084 N 
HETATM    5  C8  UNL     1       6.246  -9.579  22.785  1.00  0.00     0.309 C 
HETATM    6  C9  UNL     1       8.080 -10.649  21.722  1.00  0.00     0.276 C 
HETATM    7  C10 UNL     1       9.340 -10.198  20.965  1.00  0.00     0.015 C 
HETATM    8  C11 UNL     1       8.852  -9.250  19.893  1.00  0.00     0.012 C 
ENDROOT
BRANCH   1   9
HETATM    9  C4  UNL     1      11.690 -10.131  21.726  1.00  0.00     0.237 C 
BRANCH   9  10
HETATM   10  N1  UNL     1      12.702  -9.093  21.691  1.00  0.00    -0.073 N 
ATOM     11  H12 UNL     1      12.284  -8.173  21.822  1.00  0.00     0.277 HD
ATOM     12  H11 UNL     1      13.070  -8.976  20.747  1.00  0.00     0.277 HD
BRANCH  10  13
HETATM   13  C3  UNL     1      13.762  -9.310  22.627  1.00  0.00     0.258 C 
BRANCH  13  14
HETATM   14  C2  UNL     1      13.490 -10.406  23.606  1.00  0.00     0.194 C 
BRANCH  14  15
HETATM   15  O1  UNL     1      13.743 -10.049  24.922  1.00  0.00    -0.394 OA
HETATM   16  C1  UNL     1      14.438 -10.992  25.642  1.00  0.00     0.201 C 
ENDBRANCH  14  15
ENDBRANCH  13  14
ENDBRANCH  10  13
ENDBRANCH   9  10
ENDBRANCH   1   9
TORSDOF 5
ENDMDL
MODEL 4
REMARK VINA RESULT: -5.039565361      1.056      1.963
REMARK  5 active torsions:
REMARK  status: ('A' for Active; 'I' for Inactive)
REMARK    1  A    between atoms: O1_2  and  C2_3 
REMARK    2  A    between atoms: C2_3  and  C3_4 
REMARK    3  A    between atoms: C3_4  and  N1_5 
REMARK    4  A    between atoms: N1_5  and  C4_8 
REMARK    5  A    between atoms: C4_8  and  C5_9 
ROOT
HETATM    1  C5  UNL     1      11.119 -10.805  22.153  1.00  0.00     0.018 C 
HETATM    2  C6  UNL     1      11.921 -12.043  22.397  1.00  0.00     0.037 C 
HETATM    3  C7  UNL     1      13.397 -11.836  22.498  1.00  0.00     0.272 C 
HETATM    4  N2  UNL     1      13.792 -10.455  22.648  1.00  0.00     0.084 N 
HETATM    5  C8  UNL     1      15.161 -10.418  23.114  1.00  0.00     0.309 C 
HETATM    6  C9  UNL     1      12.913  -9.871  23.649  1.00  0.00     0.276 C 
HETATM    7  C10 UNL     1      11.622  -9.594  22.861  1.00  0.00     0.015 C 
HETATM    8  C11 UNL     1      11.983  -8.531  21.849  1.00  0.00     0.012 C 
ENDROOT
BRANCH   1   9
HETATM    9  C4  UNL     1       9.657 -11.052  22.506  1.00  0.00     0.237 C 
BRANCH   9  10
HETATM   10  N1  UNL     1       8.837 -10.883  21.322  1.00  0.00    -0.073 N 
ATOM     11  H12 UNL     1       8.251 -11.703  21.166  1.00  0.00     0.277 HD
ATOM     12  H11 UNL     1       9.406 -10.922  20.477  1.00  0.00     0.277 HD
BRANCH  10  13
HETATM   13  C3  UNL     1       8.048  -9.690  21.350  1.00  0.00     0.258 C 
BRANCH  13  14
HETATM   14  C2  UNL     1       8.039  -8.940  20.058  1.00  0.00     0.194 C 
BRANCH  14  15
HETATM   15  O1  UNL     1       7.306  -7.763  20.106  1.00  0.00    -0.394 OA
HETATM   16  C1  UNL     1       6.141  -7.850  20.832  1.00  0.00     0.201 C 
ENDBRANCH  14  15
ENDBRANCH  13  14
ENDBRANCH  10  13
ENDBRANCH   9  10
ENDBRANCH   1   9
TORSDOF 5
ENDMDL
MODEL 5
REMARK VINA RESULT: -5.024132527      1.402      1.585
REMARK  5 active torsions:
REMARK  status: ('A' for Active; 'I' for Inactive)
REMARK    1  A    between atoms: O1_2  and  C2_3 
REMARK    2  A    between atoms: C2_3  and  C3_4 
REMARK    3  A    between atoms: C3_4  and  N1_5 
REMARK    4  A    between atoms: N1_5  and  C4_8 
REMARK    5  A    between atoms: C4_8  and  C5_9 
ROOT
HETATM    1  C5  UNL     1      10.580 -10.036  22.033  1.00  0.00     0.018 C 
HETATM    2  C6  UNL     1      11.444  -8.896  22.473  1.00  0.00     0.037 C 
HETATM    3  C7  UNL     1      12.486  -9.241  23.485  1.00  0.00     0.272 C 
HETATM    4  N2  UNL     1      12.698 -10.659  23.657  1.00  0.00     0.084 N 
HETATM    5  C8  UNL     1      13.954 -10.854  24.348  1.00  0.00     0.309 C 
HETATM    6  C9  UNL     1      12.769 -11.241  22.326  1.00  0.00     0.276 C 
HETATM    7  C10 UNL     1      11.293 -11.338  21.908  1.00  0.00     0.015 C 
HETATM    8  C11 UNL     1      10.671 -12.347  22.847  1.00  0.00     0.012 C 
ENDROOT
BRANCH   1   9
HETATM    9  C4  UNL     1       9.885  -9.689  20.722  1.00  0.00     0.237 C 
BRANCH   9  10
HETATM   10  N1  UNL     1       8.496 -10.102  20.786  1.00  0.00    -0.073 N 
ATOM     11  H12 UNL     1       8.387 -11.062  20.460  1.00  0.00     0.277 HD
ATOM     12  H11 UNL     1       7.941  -9.622  20.078  1.00  0.00     0.277 HD
BRANCH  10  13
HETATM   13  C3  UNL     1       7.920  -9.936  22.085  1.00  0.00     0.258 C 
BRANCH  13  14
HETATM   14  C2  UNL     1       6.602  -9.231  22.077  1.00  0.00     0.194 C 
BRANCH  14  15
HETATM   15  O1  UNL     1       6.690  -7.895  21.713  1.00  0.00    -0.394 OA
HETATM   16  C1  UNL     1       5.968  -7.564  20.590  1.00  0.00     0.201 C 
ENDBRANCH  14  15
ENDBRANCH  13  14
ENDBRANCH  10  13
ENDBRANCH   9  10
ENDBRANCH   1   9
TORSDOF 5
ENDMDL
