MODEL 1
REMARK VINA RESULT: -5.914847251      0.000      0.000
REMARK  5 active torsions:
REMARK  status: ('A' for Active; 'I' for Inactive)
REMARK    1  A    between atoms: C3_3  and  C4_4 
REMARK    2  A    between atoms: C4_4  and  C5_5 
REMARK    3  A    between atoms: C5_5  and  O1_6 
REMARK    4  A    between atoms: O1_6  and  C6_7 
REMARK    5  A    between atoms: C6_7  and  C7_8 
ROOT
HETATM    1  C4  UNL     1      12.887 -11.658  22.636  1.00  0.00     0.031 C 
ENDROOT
BRANCH   1   2
HETATM    2  C3  UNL     1      13.585 -10.849  21.584  1.00  0.00    -0.009 C 
HETATM    3  C2  UNL     1      13.383  -9.367  21.775  1.00  0.00     0.032 C 
HETATM    4  C1  UNL     1      14.673  -8.602  21.818  1.00  0.00     0.232 C 
HETATM    5  N1  UNL     1      15.589  -8.959  20.779  1.00  0.00    -0.075 N 
HETATM    6  C12 UNL     1      15.761 -10.369  20.605  1.00  0.00     0.232 C 
ATOM      7  H12 UNL     1      15.317  -8.521  19.898  1.00  0.00     0.277 HD
ATOM      8  H11 UNL     1      16.491  -8.506  20.927  1.00  0.00     0.277 HD
HETATM    9  C11 UNL     1      15.070 -11.119  21.709  1.00  0.00     0.032 C 
ENDBRANCH   1   2
BRANCH   1  10
HETATM   10  C5  UNL     1      11.854 -10.842  23.392  1.00  0.00     0.168 C 
BRANCH  10  11
HETATM   11  O1  UNL     1      10.633 -11.465  23.443  1.00  0.00    -0.391 OA
BRANCH  11  12
HETATM   12  C6  UNL     1      10.004 -11.587  22.218  1.00  0.00     0.174 C 
BRANCH  12  13
HETATM   13  C7  UNL     1       9.578 -10.275  21.617  1.00  0.00     0.035 C 
HETATM   14  C8  UNL     1       9.100 -10.474  20.169  1.00  0.00     0.035 C 
HETATM   15  C9  UNL     1       8.237  -9.230  20.038  1.00  0.00     0.168 C 
HETATM   16  O2  UNL     1       7.732  -8.939  21.272  1.00  0.00    -0.391 OA
HETATM   17  C10 UNL     1       8.277  -9.775  22.210  1.00  0.00     0.174 C 
ENDBRANCH  12  13
ENDBRANCH  11  12
ENDBRANCH  10  11
ENDBRANCH   1  10
TORSDOF 5
ENDMDL
MODEL 2
REMARK VINA RESULT: -5.903435212      1.150      1.349
REMARK  5 active torsions:
REMARK  status: ('A' for Active; 'I' for Inactive)
REMARK    1  A    between atoms: C3_3  and  C4_4 
REMARK    2  A    between atoms: C4_4  and  C5_5 
REMARK    3  A    between atoms: C5_5  and  O1_6 
REMARK    4  A    between atoms: O1_6  and  C6_7 
REMARK    5  A    between atoms: C6_7  and  C7_8 
ROOT
HETATM    1  C4  UNL     1      12.595 -12.216  22.316  1.00  0.00     0.031 C 
ENDROOT
BRANCH   1   2
HETATM    2  C3  UNL     1      13.355 -11.720  21.121  1.00  0.00    -0.009 C 
HETATM    3  C2  UNL     1      14.228 -10.536  21.450  1.00  0.00     0.032 C 
HETATM    4  C1  UNL     1      15.658 -10.733  21.044  1.00  0.00     0.232 C 
HETATM    5  N1  UNL     1      15.815 -11.250  19.719  1.00  0.00    -0.075 N 
HETATM    6  C12 UNL     1      14.972 -12.368  19.421  1.00  0.00     0.232 C 
ATOM      7  H12 UNL     1      15.683 -10.510  19.029  1.00  0.00     0.277 HD
ATOM      8  H11 UNL     1      16.791 -11.483  19.540  1.00  0.00     0.277 HD
HETATM    9  C11 UNL     1      14.269 -12.838  20.664  1.00  0.00     0.032 C 
ENDBRANCH   1   2
BRANCH   1  10
HETATM   10  C5  UNL     1      12.040 -11.076  23.152  1.00  0.00     0.168 C 
BRANCH  10  11
HETATM   11  O1  UNL     1      10.715 -11.253  23.459  1.00  0.00    -0.391 OA
BRANCH  11  12
HETATM   12  C6  UNL     1       9.898 -11.456  22.363  1.00  0.00     0.174 C 
BRANCH  12  13
HETATM   13  C7  UNL     1       9.474 -10.188  21.674  1.00  0.00     0.035 C 
HETATM   14  C8  UNL     1       9.034 -10.480  20.229  1.00  0.00     0.035 C 
HETATM   15  C9  UNL     1       8.162  -9.256  20.003  1.00  0.00     0.168 C 
HETATM   16  O2  UNL     1       7.625  -8.896  21.205  1.00  0.00    -0.391 OA
HETATM   17  C10 UNL     1       8.155  -9.668  22.204  1.00  0.00     0.174 C 
ENDBRANCH  12  13
ENDBRANCH  11  12
ENDBRANCH  10  11
ENDBRANCH   1  10
TORSDOF 5
ENDMDL
MODEL 3
REMARK VINA RESULT: -5.815368492      1.300      1.837
REMARK  5 active torsions:
REMARK  status: ('A' for Active; 'I' for Inactive)
REMARK    1  A    between atoms: C3_3  and  C4_4 
REMARK    2  A    between atoms: C4_4  and  C5_5 
REMARK    3  A    between atoms: C5_5  and  O1_6 
REMARK    4  A    between atoms: O1_6  and  C6_7 
REMARK    5  A    between atoms: C6_7  and  C7_8 
ROOT
HETATM    1  C4  UNL     1      12.642 -12.521  22.296  1.00  0.00     0.031 C 
ENDROOT
BRANCH   1   2
HETATM    2  C3  UNL     1      14.015 -12.320  21.725  1.00  0.00    -0.009 C 
HETATM    3  C2  UNL     1      14.264 -13.188  20.518  1.00  0.00     0.032 C 
HETATM    4  C1  UNL     1      14.727 -12.409  19.323  1.00  0.00     0.232 C 
HETATM    5  N1  UNL     1      15.764 -11.467  19.616  1.00  0.00    -0.075 N 
HETATM    6  C12 UNL     1      15.516 -10.659  20.770  1.00  0.00     0.232 C 
ATOM      7  H12 UNL     1      16.663 -11.942  19.700  1.00  0.00     0.277 HD
ATOM      8  H11 UNL     1      15.953 -10.880  18.803  1.00  0.00     0.277 HD
HETATM    9  C11 UNL     1      14.115 -10.879  21.270  1.00  0.00     0.032 C 
ENDBRANCH   1   2
BRANCH   1  10
HETATM   10  C5  UNL     1      12.206 -11.350  23.158  1.00  0.00     0.168 C 
BRANCH  10  11
HETATM   11  O1  UNL     1      10.872 -11.403  23.473  1.00  0.00    -0.391 OA
BRANCH  11  12
HETATM   12  C6  UNL     1      10.038 -11.596  22.388  1.00  0.00     0.174 C 
BRANCH  12  13
HETATM   13  C7  UNL     1       9.638 -10.324  21.691  1.00  0.00     0.035 C 
HETATM   14  C8  UNL     1       9.174 -10.618  20.254  1.00  0.00     0.035 C 
HETATM   15  C9  UNL     1       8.330  -9.375  20.026  1.00  0.00     0.168 C 
HETATM   16  O2  UNL     1       7.816  -8.991  21.230  1.00  0.00    -0.391 OA
HETATM   17  C10 UNL     1       8.338  -9.766  22.231  1.00  0.00     0.174 C 
ENDBRANCH  12  13
ENDBRANCH  11  12
ENDBRANCH  10  11
ENDBRANCH   1  10
TORSDOF 5
ENDMDL
MODEL 4
REMARK VINA RESULT: -5.740246065      1.571      1.863
REMARK  5 active torsions:
REMARK  status: ('A' for Active; 'I' for Inactive)
REMARK    1  A    between atoms: C3_3  and  C4_4 
REMARK    2  A    between atoms: C4_4  and  C5_5 
REMARK    3  A    between atoms: C5_5  and  O1_6 
REMARK    4  A    between atoms: O1_6  and  C6_7 
REMARK    5  A    between atoms: C6_7  and  C7_8 
ROOT
HETATM    1  C4  UNL     1      12.706 -12.068  22.344  1.00  0.00     0.031 C 
ENDROOT
BRANCH   1   2
HETATM    2  C3  UNL     1      13.421 -11.667  21.088  1.00  0.00    -0.009 C 
HETATM    3  C2  UNL     1      14.420 -10.564  21.327  1.00  0.00     0.032 C 
HETATM    4  C1  UNL     1      15.794 -10.901  20.827  1.00  0.00     0.232 C 
HETATM    5  N1  UNL     1      15.806 -11.455  19.507  1.00  0.00    -0.075 N 
HETATM    6  C12 UNL     1      14.845 -12.493  19.295  1.00  0.00     0.232 C 
ATOM      7  H12 UNL     1      15.695 -10.717  18.811  1.00  0.00     0.277 HD
ATOM      8  H11 UNL     1      16.742 -11.781  19.267  1.00  0.00     0.277 HD
HETATM    9  C11 UNL     1      14.192 -12.873  20.595  1.00  0.00     0.032 C 
ENDBRANCH   1   2
BRANCH   1  10
HETATM   10  C5  UNL     1      12.874 -11.041  23.449  1.00  0.00     0.168 C 
BRANCH  10  11
HETATM   11  O1  UNL     1      11.687 -10.443  23.789  1.00  0.00    -0.391 OA
BRANCH  11  12
HETATM   12  C6  UNL     1      10.591 -10.915  23.092  1.00  0.00     0.174 C 
BRANCH  12  13
HETATM   13  C7  UNL     1       9.639  -9.838  22.648  1.00  0.00     0.035 C 
HETATM   14  C8  UNL     1       8.501 -10.437  21.804  1.00  0.00     0.035 C 
HETATM   15  C9  UNL     1       7.468  -9.340  22.000  1.00  0.00     0.168 C 
HETATM   16  O2  UNL     1       7.674  -8.785  23.229  1.00  0.00    -0.391 OA
HETATM   17  C10 UNL     1       8.806  -9.308  23.796  1.00  0.00     0.174 C 
ENDBRANCH  12  13
ENDBRANCH  11  12
ENDBRANCH  10  11
ENDBRANCH   1  10
TORSDOF 5
ENDMDL
MODEL 5
REMARK VINA RESULT: -5.697230405      2.559      5.461
REMARK  5 active torsions:
REMARK  status: ('A' for Active; 'I' for Inactive)
REMARK    1  A    between atoms: C3_3  and  C4_4 
REMARK    2  A    between atoms: C4_4  and  C5_5 
REMARK    3  A    between atoms: C5_5  and  O1_6 
REMARK    4  A    between atoms: O1_6  and  C6_7 
REMARK    5  A    between atoms: C6_7  and  C7_8 
ROOT
HETATM    1  C4  UNL     1       9.621 -11.942  22.049  1.00  0.00     0.031 C 
ENDROOT
BRANCH   1   2
HETATM    2  C3  UNL     1       9.291 -10.550  21.598  1.00  0.00    -0.009 C 
HETATM    3  C2  UNL     1       9.635 -10.322  20.148  1.00  0.00     0.032 C 
HETATM    4  C1  UNL     1       8.480  -9.795  19.349  1.00  0.00     0.232 C 
HETATM    5  N1  UNL     1       7.786  -8.716  19.984  1.00  0.00    -0.075 N 
HETATM    6  C12 UNL     1       7.476  -8.945  21.361  1.00  0.00     0.232 C 
ATOM      7  H12 UNL     1       8.306  -7.845  19.875  1.00  0.00     0.277 HD
ATOM      8  H11 UNL     1       6.941  -8.481  19.463  1.00  0.00     0.277 HD
HETATM    9  C11 UNL     1       7.794 -10.365  21.739  1.00  0.00     0.032 C 
ENDBRANCH   1   2
BRANCH   1  10
HETATM   10  C5  UNL     1      10.982 -12.018  22.718  1.00  0.00     0.168 C 
BRANCH  10  11
HETATM   11  O1  UNL     1      11.356 -10.822  23.274  1.00  0.00    -0.391 OA
BRANCH  11  12
HETATM   12  C6  UNL     1      12.647 -10.803  23.770  1.00  0.00     0.174 C 
BRANCH  12  13
HETATM   13  C7  UNL     1      13.470  -9.641  23.284  1.00  0.00     0.035 C 
HETATM   14  C8  UNL     1      14.551 -10.119  22.300  1.00  0.00     0.035 C 
HETATM   15  C9  UNL     1      14.794  -8.807  21.572  1.00  0.00     0.168 C 
HETATM   16  O2  UNL     1      13.626  -8.103  21.576  1.00  0.00    -0.391 OA
HETATM   17  C10 UNL     1      12.691  -8.750  22.339  1.00  0.00     0.174 C 
ENDBRANCH  12  13
ENDBRANCH  11  12
ENDBRANCH  10  11
ENDBRANCH   1  10
TORSDOF 5
ENDMDL
