MODEL 1
REMARK VINA RESULT: -5.295651346      0.000      0.000
REMARK  6 active torsions:
REMARK  status: ('A' for Active; 'I' for Inactive)
REMARK    1  A    between atoms: C2_2  and  C3_3 
REMARK    2  A    between atoms: C3_3  and  N1_4 
REMARK    3  A    between atoms: N1_4  and  C4_5 
REMARK    4  A    between atoms: N1_4  and  C10_16 
REMARK    5  A    between atoms: C4_5  and  C5_6 
REMARK    6  A    between atoms: C8_9  and  N2_10 
ROOT
HETATM    1  C5  UNL     1      10.572 -11.288  22.957  1.00  0.00     0.159 C 
HETATM    2  C6  UNL     1      11.783 -12.068  22.502  1.00  0.00     0.039 C 
HETATM    3  C7  UNL     1      12.497 -11.151  21.505  1.00  0.00     0.038 C 
HETATM    4  C8  UNL     1      13.124 -10.065  22.353  1.00  0.00     0.207 C 
HETATM    5  C9  UNL     1      12.068  -9.524  23.268  1.00  0.00     0.201 C 
HETATM    6  O1  UNL     1      10.792  -9.940  23.011  1.00  0.00    -0.379 OA
ENDROOT
BRANCH   1   7
HETATM    7  C4  UNL     1       9.457 -11.597  21.966  1.00  0.00     0.090 C 
BRANCH   7   8
HETATM    8  N1  UNL     1       8.717 -10.483  21.528  1.00  0.00    -0.383 N 
BRANCH   8   9
HETATM    9  C3  UNL     1       8.666 -10.248  20.119  1.00  0.00     0.149 C 
BRANCH   9  10
HETATM   10  C2  UNL     1       9.873  -9.577  19.593  1.00  0.00    -0.018 C 
HETATM   11  C1  UNL     1      10.253  -8.417  20.089  1.00  0.00     0.008 C 
ENDBRANCH   9  10
ENDBRANCH   8   9
BRANCH   8  12
HETATM   12  C10 UNL     1       7.504 -10.163  22.193  1.00  0.00     0.084 A 
HETATM   13  C11 UNL     1       6.742  -8.913  21.768  1.00  0.00     0.027 A 
HETATM   14  C12 UNL     1       7.340  -9.091  23.179  1.00  0.00     0.027 A 
ENDBRANCH   8  12
ENDBRANCH   7   8
ENDBRANCH   1   7
BRANCH   4  15
HETATM   15  N2  UNL     1      13.762  -9.044  21.548  1.00  0.00    -0.073 N 
ATOM     16  H23 UNL     1      14.766  -9.207  21.473  1.00  0.00     0.274 HD
ATOM     17  H22 UNL     1      13.509  -9.137  20.564  1.00  0.00     0.274 HD
ATOM     18  H21 UNL     1      13.565  -8.105  21.892  1.00  0.00     0.274 HD
ENDBRANCH   4  15
TORSDOF 6
ENDMDL
MODEL 2
REMARK VINA RESULT: -5.264167585      1.959      5.066
REMARK  6 active torsions:
REMARK  status: ('A' for Active; 'I' for Inactive)
REMARK    1  A    between atoms: C2_2  and  C3_3 
REMARK    2  A    between atoms: C3_3  and  N1_4 
REMARK    3  A    between atoms: N1_4  and  C4_5 
REMARK    4  A    between atoms: N1_4  and  C10_16 
REMARK    5  A    between atoms: C4_5  and  C5_6 
REMARK    6  A    between atoms: C8_9  and  N2_10 
ROOT
HETATM    1  C5  UNL     1       8.484  -9.913  21.757  1.00  0.00     0.159 C 
HETATM    2  C6  UNL     1       7.012  -9.943  22.094  1.00  0.00     0.039 C 
HETATM    3  C7  UNL     1       6.547  -8.488  21.986  1.00  0.00     0.038 C 
HETATM    4  C8  UNL     1       6.524  -8.195  20.502  1.00  0.00     0.207 C 
HETATM    5  C9  UNL     1       7.838  -8.621  19.924  1.00  0.00     0.201 C 
HETATM    6  O1  UNL     1       8.803  -8.959  20.831  1.00  0.00    -0.379 OA
ENDROOT
BRANCH   1   7
HETATM    7  C4  UNL     1       9.223  -9.643  23.062  1.00  0.00     0.090 C 
BRANCH   7   8
HETATM    8  N1  UNL     1      10.567 -10.063  23.089  1.00  0.00    -0.383 N 
BRANCH   8   9
HETATM    9  C3  UNL     1      10.931 -11.139  22.221  1.00  0.00     0.149 C 
BRANCH   9  10
HETATM   10  C2  UNL     1      10.801 -12.469  22.851  1.00  0.00    -0.018 C 
HETATM   11  C1  UNL     1       9.802 -13.262  22.521  1.00  0.00     0.008 C 
ENDBRANCH   9  10
ENDBRANCH   8   9
BRANCH   8  12
HETATM   12  C10 UNL     1      11.587  -9.085  23.226  1.00  0.00     0.084 A 
HETATM   13  C11 UNL     1      12.288  -8.576  21.972  1.00  0.00     0.027 A 
HETATM   14  C12 UNL     1      13.024  -9.340  23.091  1.00  0.00     0.027 A 
ENDBRANCH   8  12
ENDBRANCH   7   8
ENDBRANCH   1   7
BRANCH   4  15
HETATM   15  N2  UNL     1       6.198  -6.811  20.224  1.00  0.00    -0.073 N 
ATOM     16  H23 UNL     1       5.196  -6.642  20.315  1.00  0.00     0.274 HD
ATOM     17  H22 UNL     1       6.534  -6.197  20.966  1.00  0.00     0.274 HD
ATOM     18  H21 UNL     1       6.542  -6.511  19.312  1.00  0.00     0.274 HD
ENDBRANCH   4  15
TORSDOF 6
ENDMDL
MODEL 3
REMARK VINA RESULT: -5.255650367      1.941      2.628
REMARK  6 active torsions:
REMARK  status: ('A' for Active; 'I' for Inactive)
REMARK    1  A    between atoms: C2_2  and  C3_3 
REMARK    2  A    between atoms: C3_3  and  N1_4 
REMARK    3  A    between atoms: N1_4  and  C4_5 
REMARK    4  A    between atoms: N1_4  and  C10_16 
REMARK    5  A    between atoms: C4_5  and  C5_6 
REMARK    6  A    between atoms: C8_9  and  N2_10 
ROOT
HETATM    1  C5  UNL     1      12.738 -10.878  21.962  1.00  0.00     0.159 C 
HETATM    2  C6  UNL     1      13.411 -12.196  21.661  1.00  0.00     0.039 C 
HETATM    3  C7  UNL     1      14.282 -11.928  20.430  1.00  0.00     0.038 C 
HETATM    4  C8  UNL     1      15.437 -11.096  20.943  1.00  0.00     0.207 C 
HETATM    5  C9  UNL     1      14.873  -9.960  21.741  1.00  0.00     0.201 C 
HETATM    6  O1  UNL     1      13.518  -9.796  21.661  1.00  0.00    -0.379 OA
ENDROOT
BRANCH   1   7
HETATM    7  C4  UNL     1      11.457 -10.845  21.138  1.00  0.00     0.090 C 
BRANCH   7   8
HETATM    8  N1  UNL     1      10.343 -10.275  21.782  1.00  0.00    -0.383 N 
BRANCH   8   9
HETATM    9  C3  UNL     1       9.055 -10.790  21.435  1.00  0.00     0.149 C 
BRANCH   9  10
HETATM   10  C2  UNL     1       8.553 -10.284  20.140  1.00  0.00    -0.018 C 
HETATM   11  C1  UNL     1       8.101  -9.050  20.044  1.00  0.00     0.008 C 
ENDBRANCH   9  10
ENDBRANCH   8   9
BRANCH   8  12
HETATM   12  C10 UNL     1      10.452  -9.920  23.153  1.00  0.00     0.084 A 
HETATM   13  C11 UNL     1       9.260  -9.261  23.837  1.00  0.00     0.027 A 
HETATM   14  C12 UNL     1      10.620  -8.555  23.659  1.00  0.00     0.027 A 
ENDBRANCH   8  12
ENDBRANCH   7   8
ENDBRANCH   1   7
BRANCH   4  15
HETATM   15  N2  UNL     1      16.315 -10.663  19.875  1.00  0.00    -0.073 N 
ATOM     16  H23 UNL     1      17.037 -11.359  19.686  1.00  0.00     0.274 HD
ATOM     17  H22 UNL     1      15.836 -10.679  18.974  1.00  0.00     0.274 HD
ATOM     18  H21 UNL     1      16.723  -9.747  20.060  1.00  0.00     0.274 HD
ENDBRANCH   4  15
TORSDOF 6
ENDMDL
MODEL 4
REMARK VINA RESULT: -5.195149233      2.115      3.399
REMARK  6 active torsions:
REMARK  status: ('A' for Active; 'I' for Inactive)
REMARK    1  A    between atoms: C2_2  and  C3_3 
REMARK    2  A    between atoms: C3_3  and  N1_4 
REMARK    3  A    between atoms: N1_4  and  C4_5 
REMARK    4  A    between atoms: N1_4  and  C10_16 
REMARK    5  A    between atoms: C4_5  and  C5_6 
REMARK    6  A    between atoms: C8_9  and  N2_10 
ROOT
HETATM    1  C5  UNL     1      13.325  -9.185  22.555  1.00  0.00     0.159 C 
HETATM    2  C6  UNL     1      13.631 -10.660  22.439  1.00  0.00     0.039 C 
HETATM    3  C7  UNL     1      14.313 -10.820  21.077  1.00  0.00     0.038 C 
HETATM    4  C8  UNL     1      15.694 -10.227  21.260  1.00  0.00     0.207 C 
HETATM    5  C9  UNL     1      15.538  -8.873  21.881  1.00  0.00     0.201 C 
HETATM    6  O1  UNL     1      14.259  -8.394  21.946  1.00  0.00    -0.379 OA
ENDROOT
BRANCH   1   7
HETATM    7  C4  UNL     1      11.960  -8.972  21.914  1.00  0.00     0.090 C 
BRANCH   7   8
HETATM    8  N1  UNL     1      11.132 -10.111  21.870  1.00  0.00    -0.383 N 
BRANCH   8   9
HETATM    9  C3  UNL     1      10.307 -10.359  23.010  1.00  0.00     0.149 C 
BRANCH   9  10
HETATM   10  C2  UNL     1       9.837  -9.125  23.674  1.00  0.00    -0.018 C 
HETATM   11  C1  UNL     1       8.623  -9.069  24.183  1.00  0.00     0.008 C 
ENDBRANCH   9  10
ENDBRANCH   8   9
BRANCH   8  12
HETATM   12  C10 UNL     1      10.510 -10.457  20.642  1.00  0.00     0.084 A 
HETATM   13  C11 UNL     1       9.594  -9.440  19.971  1.00  0.00     0.027 A 
HETATM   14  C12 UNL     1       9.095 -10.807  20.483  1.00  0.00     0.027 A 
ENDBRANCH   8  12
ENDBRANCH   7   8
ENDBRANCH   1   7
BRANCH   4  15
HETATM   15  N2  UNL     1      16.446 -10.206  20.023  1.00  0.00    -0.073 N 
ATOM     16  H23 UNL     1      17.425 -10.446  20.182  1.00  0.00     0.274 HD
ATOM     17  H22 UNL     1      16.185 -10.985  19.418  1.00  0.00     0.274 HD
ATOM     18  H21 UNL     1      16.359  -9.315  19.535  1.00  0.00     0.274 HD
ENDBRANCH   4  15
TORSDOF 6
ENDMDL
MODEL 5
REMARK VINA RESULT: -5.157093636      1.915      4.935
REMARK  6 active torsions:
REMARK  status: ('A' for Active; 'I' for Inactive)
REMARK    1  A    between atoms: C2_2  and  C3_3 
REMARK    2  A    between atoms: C3_3  and  N1_4 
REMARK    3  A    between atoms: N1_4  and  C4_5 
REMARK    4  A    between atoms: N1_4  and  C10_16 
REMARK    5  A    between atoms: C4_5  and  C5_6 
REMARK    6  A    between atoms: C8_9  and  N2_10 
ROOT
HETATM    1  C5  UNL     1       8.507  -9.990  21.718  1.00  0.00     0.159 C 
HETATM    2  C6  UNL     1       7.055  -9.954  22.131  1.00  0.00     0.039 C 
HETATM    3  C7  UNL     1       6.646  -8.482  22.025  1.00  0.00     0.038 C 
HETATM    4  C8  UNL     1       6.557  -8.207  20.539  1.00  0.00     0.207 C 
HETATM    5  C9  UNL     1       7.821  -8.696  19.901  1.00  0.00     0.201 C 
HETATM    6  O1  UNL     1       8.816  -9.063  20.762  1.00  0.00    -0.379 OA
ENDROOT
BRANCH   1   7
HETATM    7  C4  UNL     1       9.324  -9.736  22.978  1.00  0.00     0.090 C 
BRANCH   7   8
HETATM    8  N1  UNL     1      10.689 -10.067  22.887  1.00  0.00    -0.383 N 
BRANCH   8   9
HETATM    9  C3  UNL     1      11.632  -9.036  23.188  1.00  0.00     0.149 C 
BRANCH   9  10
HETATM   10  C2  UNL     1      12.418  -8.601  22.015  1.00  0.00    -0.018 C 
HETATM   11  C1  UNL     1      13.721  -8.795  21.983  1.00  0.00     0.008 C 
ENDBRANCH   9  10
ENDBRANCH   8   9
BRANCH   8  12
HETATM   12  C10 UNL     1      11.111 -11.353  23.317  1.00  0.00     0.084 A 
HETATM   13  C11 UNL     1      12.020 -12.169  22.405  1.00  0.00     0.027 A 
HETATM   14  C12 UNL     1      10.599 -12.625  22.797  1.00  0.00     0.027 A 
ENDBRANCH   8  12
ENDBRANCH   7   8
ENDBRANCH   1   7
BRANCH   4  15
HETATM   15  N2  UNL     1       6.276  -6.814  20.258  1.00  0.00    -0.073 N 
ATOM     16  H23 UNL     1       6.747  -6.507  19.406  1.00  0.00     0.274 HD
ATOM     17  H22 UNL     1       5.308  -6.685  19.963  1.00  0.00     0.274 HD
ATOM     18  H21 UNL     1       6.506  -6.209  21.046  1.00  0.00     0.274 HD
ENDBRANCH   4  15
TORSDOF 6
ENDMDL
