MODEL 1
REMARK VINA RESULT: -5.943482878      0.000      0.000
REMARK  5 active torsions:
REMARK  status: ('A' for Active; 'I' for Inactive)
REMARK    1  A    between atoms: C4_4  and  C5_5 
REMARK    2  A    between atoms: C5_5  and  C6_6 
REMARK    3  A    between atoms: C6_6  and  N1_7 
REMARK    4  A    between atoms: N1_7  and  C7_9 
REMARK    5  A    between atoms: C7_9  and  C8_10 
ROOT
HETATM    1  C6  UNL     1      10.298  -9.629  23.369  1.00  0.00     0.058 C 
ENDROOT
BRANCH   1   2
HETATM    2  C5  UNL     1       8.847  -9.245  23.325  1.00  0.00     0.076 C 
BRANCH   2   3
HETATM    3  C4  UNL     1       8.115  -9.981  22.194  1.00  0.00     0.126 C 
HETATM    4  C3  UNL     1       9.007 -10.955  21.524  1.00  0.00     0.032 C 
HETATM    5  C2  UNL     1       9.473 -10.622  20.158  1.00  0.00     0.004 C 
HETATM    6  C1  UNL     1       8.393  -9.816  19.422  1.00  0.00     0.026 C 
HETATM    7  C11 UNL     1       8.173  -8.597  20.317  1.00  0.00     0.168 C 
HETATM    8  O3  UNL     1       7.501  -9.038  21.423  1.00  0.00    -0.386 OA
ENDBRANCH   2   3
ENDBRANCH   1   2
BRANCH   1   9
HETATM    9  N1  UNL     1      11.196  -8.563  23.167  1.00  0.00    -0.397 N 
ATOM     10  H1  UNL     1      11.263  -7.806  23.847  1.00  0.00     0.158 HD
BRANCH   9  11
HETATM   11  C7  UNL     1      12.001  -8.560  22.011  1.00  0.00     0.179 C 
BRANCH  11  12
HETATM   12  C8  UNL     1      13.382  -9.098  22.418  1.00  0.00     0.277 C 
HETATM   13  O1  UNL     1      14.338  -8.241  21.948  1.00  0.00    -0.358 OA
HETATM   14  C9  UNL     1      15.257  -8.958  21.203  1.00  0.00     0.197 C 
HETATM   15  C10 UNL     1      14.925 -10.398  21.539  1.00  0.00     0.197 C 
HETATM   16  O2  UNL     1      13.565 -10.358  21.897  1.00  0.00    -0.358 OA
ENDBRANCH  11  12
ENDBRANCH   9  11
ENDBRANCH   1   9
TORSDOF 5
ENDMDL
MODEL 2
REMARK VINA RESULT: -5.780321782      1.736      2.138
REMARK  5 active torsions:
REMARK  status: ('A' for Active; 'I' for Inactive)
REMARK    1  A    between atoms: C4_4  and  C5_5 
REMARK    2  A    between atoms: C5_5  and  C6_6 
REMARK    3  A    between atoms: C6_6  and  N1_7 
REMARK    4  A    between atoms: N1_7  and  C7_9 
REMARK    5  A    between atoms: C7_9  and  C8_10 
ROOT
HETATM    1  C6  UNL     1      12.231  -9.878  23.553  1.00  0.00     0.058 C 
ENDROOT
BRANCH   1   2
HETATM    2  C5  UNL     1      11.350 -10.766  22.722  1.00  0.00     0.076 C 
BRANCH   2   3
HETATM    3  C4  UNL     1      10.000 -10.094  22.436  1.00  0.00     0.126 C 
HETATM    4  C3  UNL     1       9.088 -11.009  21.712  1.00  0.00     0.032 C 
HETATM    5  C2  UNL     1       8.825 -10.718  20.283  1.00  0.00     0.004 C 
HETATM    6  C1  UNL     1       8.870  -9.201  20.046  1.00  0.00     0.026 C 
HETATM    7  C11 UNL     1      10.267  -8.798  20.515  1.00  0.00     0.168 C 
HETATM    8  O3  UNL     1      10.261  -8.876  21.880  1.00  0.00    -0.386 OA
ENDBRANCH   2   3
ENDBRANCH   1   2
BRANCH   1   9
HETATM    9  N1  UNL     1      13.163  -9.119  22.819  1.00  0.00    -0.397 N 
ATOM     10  H1  UNL     1      13.405  -8.173  23.113  1.00  0.00     0.158 HD
BRANCH   9  11
HETATM   11  C7  UNL     1      13.754  -9.686  21.673  1.00  0.00     0.179 C 
BRANCH  11  12
HETATM   12  C8  UNL     1      15.132  -9.026  21.500  1.00  0.00     0.277 C 
HETATM   13  O1  UNL     1      15.872  -9.785  20.638  1.00  0.00    -0.358 OA
HETATM   14  C9  UNL     1      17.078 -10.099  21.238  1.00  0.00     0.197 C 
HETATM   15  C10 UNL     1      17.116  -9.177  22.439  1.00  0.00     0.197 C 
HETATM   16  O2  UNL     1      15.760  -8.931  22.720  1.00  0.00    -0.358 OA
ENDBRANCH  11  12
ENDBRANCH   9  11
ENDBRANCH   1   9
TORSDOF 5
ENDMDL
MODEL 3
REMARK VINA RESULT: -5.774973311      1.380      2.103
REMARK  5 active torsions:
REMARK  status: ('A' for Active; 'I' for Inactive)
REMARK    1  A    between atoms: C4_4  and  C5_5 
REMARK    2  A    between atoms: C5_5  and  C6_6 
REMARK    3  A    between atoms: C6_6  and  N1_7 
REMARK    4  A    between atoms: N1_7  and  C7_9 
REMARK    5  A    between atoms: C7_9  and  C8_10 
ROOT
HETATM    1  C6  UNL     1      11.707 -11.128  21.541  1.00  0.00     0.058 C 
ENDROOT
BRANCH   1   2
HETATM    2  C5  UNL     1      10.866 -10.429  20.512  1.00  0.00     0.076 C 
BRANCH   2   3
HETATM    3  C4  UNL     1       9.384 -10.797  20.668  1.00  0.00     0.126 C 
HETATM    4  C3  UNL     1       8.532  -9.975  19.778  1.00  0.00     0.032 C 
HETATM    5  C2  UNL     1       7.693  -8.932  20.413  1.00  0.00     0.004 C 
HETATM    6  C1  UNL     1       7.261  -9.393  21.813  1.00  0.00     0.026 C 
HETATM    7  C11 UNL     1       8.581  -9.653  22.535  1.00  0.00     0.168 C 
HETATM    8  O3  UNL     1       9.103 -10.799  22.002  1.00  0.00    -0.386 OA
ENDBRANCH   2   3
ENDBRANCH   1   2
BRANCH   1   9
HETATM    9  N1  UNL     1      12.227 -10.290  22.546  1.00  0.00    -0.397 N 
ATOM     10  H1  UNL     1      12.423 -10.657  23.477  1.00  0.00     0.158 HD
BRANCH   9  11
HETATM   11  C7  UNL     1      12.473  -8.935  22.245  1.00  0.00     0.179 C 
BRANCH  11  12
HETATM   12  C8  UNL     1      13.975  -8.689  22.458  1.00  0.00     0.277 C 
HETATM   13  O1  UNL     1      14.563  -8.507  21.237  1.00  0.00    -0.358 OA
HETATM   14  C9  UNL     1      15.623  -9.387  21.114  1.00  0.00     0.197 C 
HETATM   15  C10 UNL     1      15.809  -9.903  22.526  1.00  0.00     0.197 C 
HETATM   16  O2  UNL     1      14.537  -9.763  23.108  1.00  0.00    -0.358 OA
ENDBRANCH  11  12
ENDBRANCH   9  11
ENDBRANCH   1   9
TORSDOF 5
ENDMDL
MODEL 4
REMARK VINA RESULT: -5.731854805      1.889      2.521
REMARK  5 active torsions:
REMARK  status: ('A' for Active; 'I' for Inactive)
REMARK    1  A    between atoms: C4_4  and  C5_5 
REMARK    2  A    between atoms: C5_5  and  C6_6 
REMARK    3  A    between atoms: C6_6  and  N1_7 
REMARK    4  A    between atoms: N1_7  and  C7_9 
REMARK    5  A    between atoms: C7_9  and  C8_10 
ROOT
HETATM    1  C6  UNL     1      12.604  -9.418  22.679  1.00  0.00     0.058 C 
ENDROOT
BRANCH   1   2
HETATM    2  C5  UNL     1      11.667 -10.515  22.262  1.00  0.00     0.076 C 
BRANCH   2   3
HETATM    3  C4  UNL     1      10.221 -10.005  22.183  1.00  0.00     0.126 C 
HETATM    4  C3  UNL     1       9.323 -11.029  21.603  1.00  0.00     0.032 C 
HETATM    5  C2  UNL     1       8.818 -10.793  20.231  1.00  0.00     0.004 C 
HETATM    6  C1  UNL     1       8.652  -9.286  19.990  1.00  0.00     0.026 C 
HETATM    7  C11 UNL     1      10.047  -8.719  20.244  1.00  0.00     0.168 C 
HETATM    8  O3  UNL     1      10.254  -8.775  21.595  1.00  0.00    -0.386 OA
ENDBRANCH   2   3
ENDBRANCH   1   2
BRANCH   1   9
HETATM    9  N1  UNL     1      13.535  -9.033  21.695  1.00  0.00    -0.397 N 
ATOM     10  H1  UNL     1      13.239  -8.886  20.731  1.00  0.00     0.158 HD
BRANCH   9  11
HETATM   11  C7  UNL     1      14.883  -8.854  22.064  1.00  0.00     0.179 C 
BRANCH  11  12
HETATM   12  C8  UNL     1      15.744  -9.463  20.946  1.00  0.00     0.277 C 
HETATM   13  O1  UNL     1      15.279 -10.720  20.676  1.00  0.00    -0.358 OA
HETATM   14  C9  UNL     1      16.329 -11.616  20.764  1.00  0.00     0.197 C 
HETATM   15  C10 UNL     1      17.547 -10.717  20.806  1.00  0.00     0.197 C 
HETATM   16  O2  UNL     1      17.060  -9.511  21.343  1.00  0.00    -0.358 OA
ENDBRANCH  11  12
ENDBRANCH   9  11
ENDBRANCH   1   9
TORSDOF 5
ENDMDL
MODEL 5
REMARK VINA RESULT: -5.697990900      1.720      2.319
REMARK  5 active torsions:
REMARK  status: ('A' for Active; 'I' for Inactive)
REMARK    1  A    between atoms: C4_4  and  C5_5 
REMARK    2  A    between atoms: C5_5  and  C6_6 
REMARK    3  A    between atoms: C6_6  and  N1_7 
REMARK    4  A    between atoms: N1_7  and  C7_9 
REMARK    5  A    between atoms: C7_9  and  C8_10 
ROOT
HETATM    1  C6  UNL     1      12.110 -11.129  21.489  1.00  0.00     0.058 C 
ENDROOT
BRANCH   1   2
HETATM    2  C5  UNL     1      10.699 -11.139  22.004  1.00  0.00     0.076 C 
BRANCH   2   3
HETATM    3  C4  UNL     1      10.031  -9.770  21.813  1.00  0.00     0.126 C 
HETATM    4  C3  UNL     1       8.754  -9.689  22.559  1.00  0.00     0.032 C 
HETATM    5  C2  UNL     1       7.502  -9.709  21.768  1.00  0.00     0.004 C 
HETATM    6  C1  UNL     1       7.735  -9.035  20.408  1.00  0.00     0.026 C 
HETATM    7  C11 UNL     1       8.874  -9.843  19.789  1.00  0.00     0.168 C 
HETATM    8  O3  UNL     1      10.010  -9.511  20.475  1.00  0.00    -0.386 OA
ENDBRANCH   2   3
ENDBRANCH   1   2
BRANCH   1   9
HETATM    9  N1  UNL     1      12.725  -9.862  21.480  1.00  0.00    -0.397 N 
ATOM     10  H1  UNL     1      12.503  -9.184  20.750  1.00  0.00     0.158 HD
BRANCH   9  11
HETATM   11  C7  UNL     1      13.651  -9.545  22.494  1.00  0.00     0.179 C 
BRANCH  11  12
HETATM   12  C8  UNL     1      14.919  -9.020  21.801  1.00  0.00     0.277 C 
HETATM   13  O1  UNL     1      15.315  -9.938  20.868  1.00  0.00    -0.358 OA
HETATM   14  C9  UNL     1      16.639 -10.266  21.094  1.00  0.00     0.197 C 
HETATM   15  C10 UNL     1      17.094  -9.205  22.076  1.00  0.00     0.197 C 
HETATM   16  O2  UNL     1      15.911  -8.821  22.732  1.00  0.00    -0.358 OA
ENDBRANCH  11  12
ENDBRANCH   9  11
ENDBRANCH   1   9
TORSDOF 5
ENDMDL
