MODEL 1
REMARK VINA RESULT: -5.477564061      0.000      0.000
REMARK  3 active torsions:
REMARK  status: ('A' for Active; 'I' for Inactive)
REMARK    1  A    between atoms: C4_8  and  N4_9 
REMARK    2  A    between atoms: N4_9  and  N5_10 
REMARK    3  A    between atoms: N4_9  and  O1_13 
ROOT
HETATM    1  C1  UNL     1      36.271  25.628 -42.127  1.00  0.00     0.179 C 
HETATM    2  N1  UNL     1      35.289  26.455 -42.842  1.00  0.00    -0.281 N 
HETATM    3  N2  UNL     1      35.622  27.512 -43.526  1.00  0.00    -0.285 N 
ATOM      4  H2  UNL     1      36.575  27.860 -43.631  1.00  0.00     0.188 HD
HETATM    5  C2  UNL     1      34.536  28.076 -44.073  1.00  0.00     0.134 A 
HETATM    6  N3  UNL     1      34.530  29.231 -44.875  1.00  0.00    -0.081 NA
HETATM    7  C3  UNL     1      33.470  27.279 -43.676  1.00  0.00     0.094 A 
HETATM    8  C4  UNL     1      33.951  26.261 -42.901  1.00  0.00     0.148 A 
ENDROOT
BRANCH   8   9
HETATM    9  N4  UNL     1      33.284  25.186 -42.252  1.00  0.00    -0.059 NA
BRANCH   9  10
HETATM   10  N5  UNL     1      32.402  25.619 -41.261  1.00  0.00    -0.335 NA
ATOM     11  H52 UNL     1      32.141  26.593 -41.418  1.00  0.00     0.173 HD
ATOM     12  H51 UNL     1      32.760  25.462 -40.320  1.00  0.00     0.173 HD
ENDBRANCH   9  10
BRANCH   9  13
HETATM   13  O1  UNL     1      32.648  24.377 -43.127  1.00  0.00    -0.288 OA
ATOM     14  H1  UNL     1      32.450  23.527 -42.752  1.00  0.00     0.239 HD
ENDBRANCH   9  13
ENDBRANCH   8   9
TORSDOF 3
ENDMDL
MODEL 2
REMARK VINA RESULT: -5.235125244      2.364      3.974
REMARK  3 active torsions:
REMARK  status: ('A' for Active; 'I' for Inactive)
REMARK    1  A    between atoms: C4_8  and  N4_9 
REMARK    2  A    between atoms: N4_9  and  N5_10 
REMARK    3  A    between atoms: N4_9  and  O1_13 
ROOT
HETATM    1  C1  UNL     1      34.274  29.449 -43.126  1.00  0.00     0.179 C 
HETATM    2  N1  UNL     1      34.678  28.267 -42.353  1.00  0.00    -0.281 N 
HETATM    3  N2  UNL     1      34.331  28.085 -41.111  1.00  0.00    -0.285 N 
ATOM      4  H2  UNL     1      33.757  28.729 -40.567  1.00  0.00     0.188 HD
HETATM    5  C2  UNL     1      34.833  26.931 -40.649  1.00  0.00     0.134 A 
HETATM    6  N3  UNL     1      34.654  26.422 -39.350  1.00  0.00    -0.081 NA
HETATM    7  C3  UNL     1      35.538  26.386 -41.715  1.00  0.00     0.094 A 
HETATM    8  C4  UNL     1      35.437  27.232 -42.783  1.00  0.00     0.148 A 
ENDROOT
BRANCH   8   9
HETATM    9  N4  UNL     1      35.968  27.142 -44.099  1.00  0.00    -0.059 NA
BRANCH   9  10
HETATM   10  N5  UNL     1      37.363  27.097 -44.114  1.00  0.00    -0.335 NA
ATOM     11  H52 UNL     1      37.747  27.723 -43.407  1.00  0.00     0.173 HD
ATOM     12  H51 UNL     1      37.753  27.275 -45.039  1.00  0.00     0.173 HD
ENDBRANCH   9  10
BRANCH   9  13
HETATM   13  O1  UNL     1      35.457  26.099 -44.787  1.00  0.00    -0.288 OA
ATOM     14  H1  UNL     1      35.439  26.260 -45.723  1.00  0.00     0.239 HD
ENDBRANCH   9  13
ENDBRANCH   8   9
TORSDOF 3
ENDMDL
MODEL 3
REMARK VINA RESULT: -5.006061683      2.723      3.116
REMARK  3 active torsions:
REMARK  status: ('A' for Active; 'I' for Inactive)
REMARK    1  A    between atoms: C4_8  and  N4_9 
REMARK    2  A    between atoms: N4_9  and  N5_10 
REMARK    3  A    between atoms: N4_9  and  O1_13 
ROOT
HETATM    1  C1  UNL     1      34.937  27.515 -41.111  1.00  0.00     0.179 C 
HETATM    2  N1  UNL     1      34.600  28.263 -42.329  1.00  0.00    -0.281 N 
HETATM    3  N2  UNL     1      33.898  29.360 -42.311  1.00  0.00    -0.285 N 
ATOM      4  H2  UNL     1      33.523  29.797 -41.469  1.00  0.00     0.188 HD
HETATM    5  C2  UNL     1      33.738  29.833 -43.556  1.00  0.00     0.134 A 
HETATM    6  N3  UNL     1      33.034  31.000 -43.903  1.00  0.00    -0.081 NA
HETATM    7  C3  UNL     1      34.408  28.935 -44.378  1.00  0.00     0.094 A 
HETATM    8  C4  UNL     1      34.947  27.950 -43.600  1.00  0.00     0.148 A 
ENDROOT
BRANCH   8   9
HETATM    9  N4  UNL     1      35.717  26.805 -43.943  1.00  0.00    -0.059 NA
BRANCH   9  10
HETATM   10  N5  UNL     1      35.115  26.028 -44.934  1.00  0.00    -0.335 NA
ATOM     11  H52 UNL     1      34.614  26.622 -45.595  1.00  0.00     0.173 HD
ATOM     12  H51 UNL     1      34.523  25.292 -44.551  1.00  0.00     0.173 HD
ENDBRANCH   9  10
BRANCH   9  13
HETATM   13  O1  UNL     1      36.979  27.127 -44.301  1.00  0.00    -0.288 OA
ATOM     14  H1  UNL     1      37.570  27.148 -43.557  1.00  0.00     0.239 HD
ENDBRANCH   9  13
ENDBRANCH   8   9
TORSDOF 3
ENDMDL
MODEL 4
REMARK VINA RESULT: -4.965669811      1.985      3.675
REMARK  3 active torsions:
REMARK  status: ('A' for Active; 'I' for Inactive)
REMARK    1  A    between atoms: C4_8  and  N4_9 
REMARK    2  A    between atoms: N4_9  and  N5_10 
REMARK    3  A    between atoms: N4_9  and  O1_13 
ROOT
HETATM    1  C1  UNL     1      32.635  27.522 -42.063  1.00  0.00     0.179 C 
HETATM    2  N1  UNL     1      34.034  27.074 -42.022  1.00  0.00    -0.281 N 
HETATM    3  N2  UNL     1      34.671  26.854 -40.907  1.00  0.00    -0.285 N 
ATOM      4  H2  UNL     1      34.270  26.968 -39.976  1.00  0.00     0.188 HD
HETATM    5  C2  UNL     1      35.927  26.456 -41.157  1.00  0.00     0.134 A 
HETATM    6  N3  UNL     1      36.891  26.134 -40.186  1.00  0.00    -0.081 NA
HETATM    7  C3  UNL     1      36.037  26.440 -42.542  1.00  0.00     0.094 A 
HETATM    8  C4  UNL     1      34.842  26.830 -43.079  1.00  0.00     0.148 A 
ENDROOT
BRANCH   8   9
HETATM    9  N4  UNL     1      34.432  26.980 -44.432  1.00  0.00    -0.059 NA
BRANCH   9  10
HETATM   10  N5  UNL     1      34.779  28.222 -44.965  1.00  0.00    -0.335 NA
ATOM     11  H52 UNL     1      35.773  28.402 -44.830  1.00  0.00     0.173 HD
ATOM     12  H51 UNL     1      34.197  28.980 -44.608  1.00  0.00     0.173 HD
ENDBRANCH   9  10
BRANCH   9  13
HETATM   13  O1  UNL     1      34.894  25.985 -45.220  1.00  0.00    -0.288 OA
ATOM     14  H1  UNL     1      35.263  26.311 -46.032  1.00  0.00     0.239 HD
ENDBRANCH   9  13
ENDBRANCH   8   9
TORSDOF 3
ENDMDL
MODEL 5
REMARK VINA RESULT: -4.923509279      2.156      4.051
REMARK  3 active torsions:
REMARK  status: ('A' for Active; 'I' for Inactive)
REMARK    1  A    between atoms: C4_8  and  N4_9 
REMARK    2  A    between atoms: N4_9  and  N5_10 
REMARK    3  A    between atoms: N4_9  and  O1_13 
ROOT
HETATM    1  C1  UNL     1      33.459  28.727 -44.606  1.00  0.00     0.179 C 
HETATM    2  N1  UNL     1      33.839  27.683 -43.645  1.00  0.00    -0.281 N 
HETATM    3  N2  UNL     1      32.966  27.025 -42.937  1.00  0.00    -0.285 N 
ATOM      4  H2  UNL     1      31.957  27.166 -42.980  1.00  0.00     0.188 HD
HETATM    5  C2  UNL     1      33.582  26.136 -42.144  1.00  0.00     0.134 A 
HETATM    6  N3  UNL     1      32.944  25.259 -41.249  1.00  0.00    -0.081 NA
HETATM    7  C3  UNL     1      34.937  26.283 -42.412  1.00  0.00     0.094 A 
HETATM    8  C4  UNL     1      35.092  27.259 -43.357  1.00  0.00     0.148 A 
ENDROOT
BRANCH   8   9
HETATM    9  N4  UNL     1      36.260  27.788 -43.970  1.00  0.00    -0.059 NA
BRANCH   9  10
HETATM   10  N5  UNL     1      36.650  29.010 -43.421  1.00  0.00    -0.335 NA
ATOM     11  H52 UNL     1      36.283  29.108 -42.475  1.00  0.00     0.173 HD
ATOM     12  H51 UNL     1      36.405  29.804 -44.013  1.00  0.00     0.173 HD
ENDBRANCH   9  10
BRANCH   9  13
HETATM   13  O1  UNL     1      37.289  26.914 -43.949  1.00  0.00    -0.288 OA
ATOM     14  H1  UNL     1      37.512  26.599 -44.817  1.00  0.00     0.239 HD
ENDBRANCH   9  13
ENDBRANCH   8   9
TORSDOF 3
ENDMDL
