MODEL 1
REMARK VINA RESULT: -5.301029731      0.000      0.000
REMARK  1 active torsions:
REMARK  status: ('A' for Active; 'I' for Inactive)
REMARK    1  A    between atoms: C4_11  and  N4_12 
ROOT
HETATM    1  C1  UNL     1      35.401  26.327 -42.064  1.00  0.00     0.197 C 
HETATM    2  N1  UNL     1      34.856  27.381 -42.905  1.00  0.00    -0.126 N 
HETATM    3  N2  UNL     1      34.421  28.505 -42.369  1.00  0.00    -0.246 N 
ATOM      4  H2  UNL     1      34.464  28.646 -41.360  1.00  0.00     0.191 HD
HETATM    5  C2  UNL     1      33.922  29.463 -43.170  1.00  0.00     0.329 A 
HETATM    6  O1  UNL     1      33.518  30.522 -42.621  1.00  0.00    -0.261 OA
HETATM    7  C3  UNL     1      33.864  29.273 -44.536  1.00  0.00     0.329 A 
HETATM    8  O2  UNL     1      33.390  30.183 -45.292  1.00  0.00    -0.261 OA
HETATM    9  N3  UNL     1      34.321  28.106 -45.031  1.00  0.00    -0.150 N 
ATOM     10  H3  UNL     1      34.287  27.947 -46.038  1.00  0.00     0.188 HD
HETATM   11  C4  UNL     1      34.817  27.155 -44.241  1.00  0.00     0.695 A 
ENDROOT
BRANCH  11  12
HETATM   12  N4  UNL     1      35.248  26.040 -44.760  1.00  0.00    -0.233 N 
ATOM     13  H42 UNL     1      36.088  26.041 -45.339  1.00  0.00     0.174 HD
ATOM     14  H41 UNL     1      34.767  25.155 -44.604  1.00  0.00     0.174 HD
ENDBRANCH  11  12
TORSDOF 1
ENDMDL
MODEL 2
REMARK VINA RESULT: -5.133500070      2.509      3.545
REMARK  1 active torsions:
REMARK  status: ('A' for Active; 'I' for Inactive)
REMARK    1  A    between atoms: C4_11  and  N4_12 
ROOT
HETATM    1  C1  UNL     1      32.358  29.442 -41.161  1.00  0.00     0.197 C 
HETATM    2  N1  UNL     1      33.245  29.775 -42.265  1.00  0.00    -0.126 N 
HETATM    3  N2  UNL     1      34.298  29.025 -42.525  1.00  0.00    -0.246 N 
ATOM      4  H2  UNL     1      34.502  28.204 -41.954  1.00  0.00     0.191 HD
HETATM    5  C2  UNL     1      35.101  29.355 -43.551  1.00  0.00     0.329 A 
HETATM    6  O1  UNL     1      36.097  28.614 -43.767  1.00  0.00    -0.261 OA
HETATM    7  C3  UNL     1      34.827  30.465 -44.325  1.00  0.00     0.329 A 
HETATM    8  O2  UNL     1      35.591  30.776 -45.298  1.00  0.00    -0.261 OA
HETATM    9  N3  UNL     1      33.738  31.197 -44.016  1.00  0.00    -0.150 N 
ATOM     10  H3  UNL     1      33.519  32.021 -44.576  1.00  0.00     0.188 HD
HETATM   11  C4  UNL     1      32.941  30.873 -43.000  1.00  0.00     0.695 A 
ENDROOT
BRANCH  11  12
HETATM   12  N4  UNL     1      31.898  31.606 -42.735  1.00  0.00    -0.233 N 
ATOM     13  H42 UNL     1      31.364  31.441 -41.881  1.00  0.00     0.174 HD
ATOM     14  H41 UNL     1      31.593  32.351 -43.361  1.00  0.00     0.174 HD
ENDBRANCH  11  12
TORSDOF 1
ENDMDL
MODEL 3
REMARK VINA RESULT: -5.072081351      2.658      3.320
REMARK  1 active torsions:
REMARK  status: ('A' for Active; 'I' for Inactive)
REMARK    1  A    between atoms: C4_11  and  N4_12 
ROOT
HETATM    1  C1  UNL     1      33.628  28.284 -44.299  1.00  0.00     0.197 C 
HETATM    2  N1  UNL     1      34.732  29.226 -44.197  1.00  0.00    -0.126 N 
HETATM    3  N2  UNL     1      34.698  30.369 -44.855  1.00  0.00    -0.246 N 
ATOM      4  H2  UNL     1      33.897  30.602 -45.443  1.00  0.00     0.191 HD
HETATM    5  C2  UNL     1      35.731  31.221 -44.743  1.00  0.00     0.329 A 
HETATM    6  O1  UNL     1      35.661  32.301 -45.388  1.00  0.00    -0.261 OA
HETATM    7  C3  UNL     1      36.815  30.906 -43.949  1.00  0.00     0.329 A 
HETATM    8  O2  UNL     1      37.793  31.717 -43.844  1.00  0.00    -0.261 OA
HETATM    9  N3  UNL     1      36.799  29.726 -43.297  1.00  0.00    -0.150 N 
ATOM     10  H3  UNL     1      37.591  29.476 -42.705  1.00  0.00     0.188 HD
HETATM   11  C4  UNL     1      35.777  28.879 -43.406  1.00  0.00     0.695 A 
ENDROOT
BRANCH  11  12
HETATM   12  N4  UNL     1      35.800  27.748 -42.760  1.00  0.00    -0.233 N 
ATOM     13  H42 UNL     1      35.850  26.869 -43.275  1.00  0.00     0.174 HD
ATOM     14  H41 UNL     1      35.769  27.713 -41.741  1.00  0.00     0.174 HD
ENDBRANCH  11  12
TORSDOF 1
ENDMDL
MODEL 4
REMARK VINA RESULT: -4.986215400      2.583      2.825
REMARK  1 active torsions:
REMARK  status: ('A' for Active; 'I' for Inactive)
REMARK    1  A    between atoms: C4_11  and  N4_12 
ROOT
HETATM    1  C1  UNL     1      35.367  27.647 -42.785  1.00  0.00     0.197 C 
HETATM    2  N1  UNL     1      35.503  28.919 -43.476  1.00  0.00    -0.126 N 
HETATM    3  N2  UNL     1      36.576  29.665 -43.297  1.00  0.00    -0.246 N 
ATOM      4  H2  UNL     1      37.321  29.357 -42.671  1.00  0.00     0.191 HD
HETATM    5  C2  UNL     1      36.677  30.837 -43.949  1.00  0.00     0.329 A 
HETATM    6  O1  UNL     1      37.716  31.520 -43.751  1.00  0.00    -0.261 OA
HETATM    7  C3  UNL     1      35.670  31.254 -44.796  1.00  0.00     0.329 A 
HETATM    8  O2  UNL     1      35.768  32.366 -45.412  1.00  0.00    -0.261 OA
HETATM    9  N3  UNL     1      34.596  30.454 -44.943  1.00  0.00    -0.150 N 
ATOM     10  H3  UNL     1      33.841  30.746 -45.565  1.00  0.00     0.188 HD
HETATM   11  C4  UNL     1      34.493  29.293 -44.299  1.00  0.00     0.695 A 
ENDROOT
BRANCH  11  12
HETATM   12  N4  UNL     1      33.438  28.548 -44.469  1.00  0.00    -0.233 N 
ATOM     13  H42 UNL     1      33.452  27.571 -44.176  1.00  0.00     0.174 HD
ATOM     14  H41 UNL     1      32.585  28.915 -44.891  1.00  0.00     0.174 HD
ENDBRANCH  11  12
TORSDOF 1
ENDMDL
MODEL 5
REMARK VINA RESULT: -4.930692364      2.252      3.530
REMARK  1 active torsions:
REMARK  status: ('A' for Active; 'I' for Inactive)
REMARK    1  A    between atoms: C4_11  and  N4_12 
ROOT
HETATM    1  C1  UNL     1      32.057  31.409 -41.419  1.00  0.00     0.197 C 
HETATM    2  N1  UNL     1      32.781  30.606 -42.391  1.00  0.00    -0.126 N 
HETATM    3  N2  UNL     1      33.360  31.176 -43.430  1.00  0.00    -0.246 N 
ATOM      4  H2  UNL     1      33.305  32.186 -43.562  1.00  0.00     0.191 HD
HETATM    5  C2  UNL     1      34.024  30.410 -44.313  1.00  0.00     0.329 A 
HETATM    6  O1  UNL     1      34.563  30.991 -45.291  1.00  0.00    -0.261 OA
HETATM    7  C3  UNL     1      34.099  29.043 -44.136  1.00  0.00     0.329 A 
HETATM    8  O2  UNL     1      34.729  28.319 -44.975  1.00  0.00    -0.261 OA
HETATM    9  N3  UNL     1      33.490  28.512 -43.058  1.00  0.00    -0.150 N 
ATOM     10  H3  UNL     1      33.534  27.503 -42.909  1.00  0.00     0.188 HD
HETATM   11  C4  UNL     1      32.831  29.267 -42.180  1.00  0.00     0.695 A 
ENDROOT
BRANCH  11  12
HETATM   12  N4  UNL     1      32.256  28.715 -41.151  1.00  0.00    -0.233 N 
ATOM     13  H42 UNL     1      31.264  28.876 -40.976  1.00  0.00     0.174 HD
ATOM     14  H41 UNL     1      32.772  28.118 -40.505  1.00  0.00     0.174 HD
ENDBRANCH  11  12
TORSDOF 1
ENDMDL
