MODEL 1
REMARK VINA RESULT: -5.353425610      0.000      0.000
REMARK  3 active torsions:
REMARK  status: ('A' for Active; 'I' for Inactive)
REMARK    1  A    between atoms: N2_7  and  C4_8 
REMARK    2  A    between atoms: C4_8  and  N3_9 
REMARK    3  A    between atoms: N3_9  and  N4_11 
ROOT
HETATM    1  N1  UNL     1      14.999   0.599  -1.064  1.00  0.00    -0.384 N 
ATOM      2  H11 UNL     1      15.399   1.535  -1.009  1.00  0.00     0.157 HD
ATOM      3  H12 UNL     1      14.224   0.689  -1.720  1.00  0.00     0.157 HD
HETATM    4  C1  UNL     1      15.380  -0.487  -0.442  1.00  0.00     0.115 A 
HETATM    5  C2  UNL     1      14.838  -1.754  -0.516  1.00  0.00     0.068 A 
HETATM    6  C3  UNL     1      15.557  -2.590   0.310  1.00  0.00     0.121 A 
HETATM    7  N2  UNL     1      16.507  -1.846   0.866  1.00  0.00    -0.260 N 
HETATM    8  N5  UNL     1      16.401  -0.606   0.423  1.00  0.00    -0.279 N 
ATOM      9  H5  UNL     1      17.014   0.160   0.700  1.00  0.00     0.189 HD
ENDROOT
BRANCH   7  10
HETATM   10  C4  UNL     1      17.502  -2.306   1.808  1.00  0.00     0.221 C 
BRANCH  10  11
HETATM   11  N3  UNL     1      18.727  -2.455   1.431  1.00  0.00    -0.301 N 
ATOM     12  H3  UNL     1      19.025  -2.016   0.560  1.00  0.00     0.187 HD
BRANCH  11  13
HETATM   13  N4  UNL     1      19.656  -3.185   2.155  1.00  0.00    -0.344 N 
ATOM     14  H42 UNL     1      20.119  -2.716   2.933  1.00  0.00     0.176 HD
ATOM     15  H41 UNL     1      19.888  -4.155   1.942  1.00  0.00     0.176 HD
ENDBRANCH  11  13
ENDBRANCH  10  11
ENDBRANCH   7  10
TORSDOF 3
ENDMDL
MODEL 2
REMARK VINA RESULT: -5.296331410     10.590     11.633
REMARK  3 active torsions:
REMARK  status: ('A' for Active; 'I' for Inactive)
REMARK    1  A    between atoms: N2_7  and  C4_8 
REMARK    2  A    between atoms: C4_8  and  N3_9 
REMARK    3  A    between atoms: N3_9  and  N4_11 
ROOT
HETATM    1  N1  UNL     1      24.676   3.863   9.557  1.00  0.00    -0.384 N 
ATOM      2  H11 UNL     1      25.060   3.918  10.499  1.00  0.00     0.157 HD
ATOM      3  H12 UNL     1      25.322   4.406   8.984  1.00  0.00     0.157 HD
HETATM    4  C1  UNL     1      23.598   3.243   9.153  1.00  0.00     0.115 A 
HETATM    5  C2  UNL     1      23.076   3.169   7.877  1.00  0.00     0.068 A 
HETATM    6  C3  UNL     1      21.927   2.411   7.913  1.00  0.00     0.121 A 
HETATM    7  N2  UNL     1      21.761   2.037   9.177  1.00  0.00    -0.260 N 
HETATM    8  N5  UNL     1      22.746   2.529   9.907  1.00  0.00    -0.279 N 
ATOM      9  H5  UNL     1      22.847   2.385  10.912  1.00  0.00     0.189 HD
ENDROOT
BRANCH   7  10
HETATM   10  C4  UNL     1      20.680   1.224   9.687  1.00  0.00     0.221 C 
BRANCH  10  11
HETATM   11  N3  UNL     1      19.784   1.749  10.453  1.00  0.00    -0.301 N 
ATOM     12  H3  UNL     1      19.418   1.192  11.226  1.00  0.00     0.187 HD
BRANCH  11  13
HETATM   13  N4  UNL     1      19.297   3.033  10.275  1.00  0.00    -0.344 N 
ATOM     14  H42 UNL     1      19.064   3.320   9.324  1.00  0.00     0.176 HD
ATOM     15  H41 UNL     1      19.165   3.689  11.045  1.00  0.00     0.176 HD
ENDBRANCH  11  13
ENDBRANCH  10  11
ENDBRANCH   7  10
TORSDOF 3
ENDMDL
MODEL 3
REMARK VINA RESULT: -5.231507383     10.419     11.132
REMARK  3 active torsions:
REMARK  status: ('A' for Active; 'I' for Inactive)
REMARK    1  A    between atoms: N2_7  and  C4_8 
REMARK    2  A    between atoms: C4_8  and  N3_9 
REMARK    3  A    between atoms: N3_9  and  N4_11 
ROOT
HETATM    1  N1  UNL     1      17.976   2.082  10.892  1.00  0.00    -0.384 N 
ATOM      2  H11 UNL     1      17.618   2.904  11.377  1.00  0.00     0.157 HD
ATOM      3  H12 UNL     1      17.272   1.362  11.053  1.00  0.00     0.157 HD
HETATM    4  C1  UNL     1      19.087   1.958  10.213  1.00  0.00     0.115 A 
HETATM    5  C2  UNL     1      19.572   0.844   9.558  1.00  0.00     0.068 A 
HETATM    6  C3  UNL     1      20.779   1.166   8.975  1.00  0.00     0.121 A 
HETATM    7  N2  UNL     1      21.013   2.440   9.272  1.00  0.00    -0.260 N 
HETATM    8  N5  UNL     1      20.015   2.905  10.002  1.00  0.00    -0.279 N 
ATOM      9  H5  UNL     1      19.957   3.858  10.360  1.00  0.00     0.189 HD
ENDROOT
BRANCH   7  10
HETATM   10  C4  UNL     1      22.170   3.206   8.869  1.00  0.00     0.221 C 
BRANCH  10  11
HETATM   11  N3  UNL     1      22.928   3.749   9.761  1.00  0.00    -0.301 N 
ATOM     12  H3  UNL     1      22.496   4.109  10.612  1.00  0.00     0.187 HD
BRANCH  11  13
HETATM   13  N4  UNL     1      24.300   3.865   9.616  1.00  0.00    -0.344 N 
ATOM     14  H42 UNL     1      24.816   4.320  10.370  1.00  0.00     0.176 HD
ATOM     15  H41 UNL     1      24.804   3.518   8.799  1.00  0.00     0.176 HD
ENDBRANCH  11  13
ENDBRANCH  10  11
ENDBRANCH   7  10
TORSDOF 3
ENDMDL
MODEL 4
REMARK VINA RESULT: -5.128661195     10.584     11.379
REMARK  3 active torsions:
REMARK  status: ('A' for Active; 'I' for Inactive)
REMARK    1  A    between atoms: N2_7  and  C4_8 
REMARK    2  A    between atoms: C4_8  and  N3_9 
REMARK    3  A    between atoms: N3_9  and  N4_11 
ROOT
HETATM    1  N1  UNL     1      18.668   1.304  10.308  1.00  0.00    -0.384 N 
ATOM      2  H11 UNL     1      18.715   0.446  10.857  1.00  0.00     0.157 HD
ATOM      3  H12 UNL     1      17.670   1.493  10.211  1.00  0.00     0.157 HD
HETATM    4  C1  UNL     1      19.653   2.016   9.827  1.00  0.00     0.115 A 
HETATM    5  C2  UNL     1      19.590   3.176   9.082  1.00  0.00     0.068 A 
HETATM    6  C3  UNL     1      20.874   3.583   8.789  1.00  0.00     0.121 A 
HETATM    7  N2  UNL     1      21.688   2.690   9.343  1.00  0.00    -0.260 N 
HETATM    8  N5  UNL     1      20.967   1.767   9.953  1.00  0.00    -0.279 N 
ATOM      9  H5  UNL     1      21.357   0.969  10.455  1.00  0.00     0.189 HD
ENDROOT
BRANCH   7  10
HETATM   10  C4  UNL     1      23.132   2.713   9.291  1.00  0.00     0.221 C 
BRANCH  10  11
HETATM   11  N3  UNL     1      23.775   3.758   9.691  1.00  0.00    -0.301 N 
ATOM     12  H3  UNL     1      23.293   4.427  10.291  1.00  0.00     0.187 HD
BRANCH  11  13
HETATM   13  N4  UNL     1      25.092   4.012   9.342  1.00  0.00    -0.344 N 
ATOM     14  H42 UNL     1      25.774   4.076  10.097  1.00  0.00     0.176 HD
ATOM     15  H41 UNL     1      25.397   4.136   8.376  1.00  0.00     0.176 HD
ENDBRANCH  11  13
ENDBRANCH  10  11
ENDBRANCH   7  10
TORSDOF 3
ENDMDL
MODEL 5
REMARK VINA RESULT: -5.101884480      8.571      9.912
REMARK  3 active torsions:
REMARK  status: ('A' for Active; 'I' for Inactive)
REMARK    1  A    between atoms: N2_7  and  C4_8 
REMARK    2  A    between atoms: C4_8  and  N3_9 
REMARK    3  A    between atoms: N3_9  and  N4_11 
ROOT
HETATM    1  N1  UNL     1      21.816   2.531   3.785  1.00  0.00    -0.384 N 
ATOM      2  H11 UNL     1      20.903   2.122   3.586  1.00  0.00     0.157 HD
ATOM      3  H12 UNL     1      22.230   2.692   2.867  1.00  0.00     0.157 HD
HETATM    4  C1  UNL     1      22.351   2.797   4.948  1.00  0.00     0.115 A 
HETATM    5  C2  UNL     1      23.587   3.350   5.217  1.00  0.00     0.068 A 
HETATM    6  C3  UNL     1      23.738   3.450   6.583  1.00  0.00     0.121 A 
HETATM    7  N2  UNL     1      22.622   2.969   7.121  1.00  0.00    -0.260 N 
HETATM    8  N5  UNL     1      21.806   2.584   6.157  1.00  0.00    -0.279 N 
ATOM      9  H5  UNL     1      20.883   2.178   6.309  1.00  0.00     0.189 HD
ENDROOT
BRANCH   7  10
HETATM   10  C4  UNL     1      22.334   2.875   8.535  1.00  0.00     0.221 C 
BRANCH  10  11
HETATM   11  N3  UNL     1      22.987   2.041   9.272  1.00  0.00    -0.301 N 
ATOM     12  H3  UNL     1      23.804   2.377   9.782  1.00  0.00     0.187 HD
BRANCH  11  13
HETATM   13  N4  UNL     1      22.628   0.710   9.404  1.00  0.00    -0.344 N 
ATOM     14  H42 UNL     1      21.650   0.468   9.241  1.00  0.00     0.176 HD
ATOM     15  H41 UNL     1      23.292  -0.023   9.653  1.00  0.00     0.176 HD
ENDBRANCH  11  13
ENDBRANCH  10  11
ENDBRANCH   7  10
TORSDOF 3
ENDMDL
