MODEL 1
REMARK VINA RESULT: -5.846837954      0.000      0.000
REMARK  2 active torsions:
REMARK  status: ('A' for Active; 'I' for Inactive)
REMARK    1  A    between atoms: C2_2  and  N1_3 
REMARK    2  A    between atoms: N1_3  and  C3_5 
ROOT
HETATM    1  C3  UNL     1      17.427  -2.066   1.388  1.00  0.00     0.298 A 
HETATM    2  N2  UNL     1      18.162  -1.791   0.201  1.00  0.00    -0.092 NA
HETATM    3  N3  UNL     1      17.614  -0.676  -0.429  1.00  0.00    -0.274 N 
ATOM      4  H3  UNL     1      17.957  -0.268  -1.299  1.00  0.00     0.185 HD
HETATM    5  C4  UNL     1      16.603  -0.232   0.255  1.00  0.00     0.202 A 
HETATM    6  N4  UNL     1      15.781   0.895  -0.066  1.00  0.00    -0.062 NA
HETATM    7  N5  UNL     1      16.390  -1.025   1.415  1.00  0.00    -0.328 N 
ATOM      8  H5  UNL     1      15.666  -0.898   2.122  1.00  0.00     0.165 HD
ENDROOT
BRANCH   1   9
HETATM    9  N1  UNL     1      16.767  -3.322   1.416  1.00  0.00    -0.388 N 
ATOM     10  H1  UNL     1      17.263  -4.196   1.244  1.00  0.00     0.156 HD
BRANCH   9  11
HETATM   11  C2  UNL     1      15.373  -3.290   1.696  1.00  0.00     0.112 C 
HETATM   12  C1  UNL     1      14.851  -4.725   1.632  1.00  0.00     0.026 C 
ENDBRANCH   9  11
ENDBRANCH   1   9
TORSDOF 2
ENDMDL
MODEL 2
REMARK VINA RESULT: -5.500518872      1.487      3.830
REMARK  2 active torsions:
REMARK  status: ('A' for Active; 'I' for Inactive)
REMARK    1  A    between atoms: C2_2  and  N1_3 
REMARK    2  A    between atoms: N1_3  and  C3_5 
ROOT
HETATM    1  C3  UNL     1      16.693  -2.063   1.982  1.00  0.00     0.298 A 
HETATM    2  N2  UNL     1      15.439  -2.096   2.652  1.00  0.00    -0.092 NA
HETATM    3  N3  UNL     1      14.643  -3.090   2.086  1.00  0.00    -0.274 N 
ATOM      4  H3  UNL     1      13.695  -3.321   2.384  1.00  0.00     0.185 HD
HETATM    5  C4  UNL     1      15.286  -3.678   1.122  1.00  0.00     0.202 A 
HETATM    6  N4  UNL     1      14.807  -4.748   0.301  1.00  0.00    -0.062 NA
HETATM    7  N5  UNL     1      16.583  -3.118   0.964  1.00  0.00    -0.328 N 
ATOM      8  H5  UNL     1      17.292  -3.392   0.284  1.00  0.00     0.165 HD
ENDROOT
BRANCH   1   9
HETATM    9  N1  UNL     1      16.989  -0.852   1.305  1.00  0.00    -0.388 N 
ATOM     10  H1  UNL     1      17.284  -0.013   1.804  1.00  0.00     0.156 HD
BRANCH   9  11
HETATM   11  C2  UNL     1      16.850  -0.876  -0.111  1.00  0.00     0.112 C 
HETATM   12  C1  UNL     1      15.642  -0.012  -0.476  1.00  0.00     0.026 C 
ENDBRANCH   9  11
ENDBRANCH   1   9
TORSDOF 2
ENDMDL
MODEL 3
REMARK VINA RESULT: -5.445274294      9.423     10.363
REMARK  2 active torsions:
REMARK  status: ('A' for Active; 'I' for Inactive)
REMARK    1  A    between atoms: C2_2  and  N1_3 
REMARK    2  A    between atoms: N1_3  and  C3_5 
ROOT
HETATM    1  C3  UNL     1      19.434   1.588  10.110  1.00  0.00     0.298 A 
HETATM    2  N2  UNL     1      18.767   0.370   9.801  1.00  0.00    -0.092 NA
HETATM    3  N3  UNL     1      19.491  -0.313   8.827  1.00  0.00    -0.274 N 
ATOM      4  H3  UNL     1      19.230  -1.216   8.429  1.00  0.00     0.185 HD
HETATM    5  C4  UNL     1      20.547   0.368   8.498  1.00  0.00     0.202 A 
HETATM    6  N4  UNL     1      21.539  -0.001   7.534  1.00  0.00    -0.062 NA
HETATM    7  N5  UNL     1      20.617   1.580   9.238  1.00  0.00    -0.328 N 
ATOM      8  H5  UNL     1      21.339   2.297   9.176  1.00  0.00     0.165 HD
ENDROOT
BRANCH   1   9
HETATM    9  N1  UNL     1      18.704   2.770   9.823  1.00  0.00    -0.388 N 
ATOM     10  H1  UNL     1      18.962   3.391   9.056  1.00  0.00     0.156 HD
BRANCH   9  11
HETATM   11  C2  UNL     1      17.591   3.039  10.667  1.00  0.00     0.112 C 
HETATM   12  C1  UNL     1      17.941   4.252  11.529  1.00  0.00     0.026 C 
ENDBRANCH   9  11
ENDBRANCH   1   9
TORSDOF 2
ENDMDL
MODEL 4
REMARK VINA RESULT: -5.442854439      9.338     10.427
REMARK  2 active torsions:
REMARK  status: ('A' for Active; 'I' for Inactive)
REMARK    1  A    between atoms: C2_2  and  N1_3 
REMARK    2  A    between atoms: N1_3  and  C3_5 
ROOT
HETATM    1  C3  UNL     1      21.713   1.552   8.410  1.00  0.00     0.298 A 
HETATM    2  N2  UNL     1      21.654   0.313   7.712  1.00  0.00    -0.092 NA
HETATM    3  N3  UNL     1      20.521  -0.388   8.118  1.00  0.00    -0.274 N 
ATOM      4  H3  UNL     1      20.245  -1.306   7.769  1.00  0.00     0.185 HD
HETATM    5  C4  UNL     1      19.868   0.299   9.006  1.00  0.00     0.202 A 
HETATM    6  N4  UNL     1      18.654  -0.083   9.662  1.00  0.00    -0.062 NA
HETATM    7  N5  UNL     1      20.521   1.534   9.270  1.00  0.00    -0.328 N 
ATOM      8  H5  UNL     1      20.224   2.259   9.923  1.00  0.00     0.165 HD
ENDROOT
BRANCH   1   9
HETATM    9  N1  UNL     1      22.841   1.721   9.253  1.00  0.00    -0.388 N 
ATOM     10  H1  UNL     1      23.202   0.962   9.831  1.00  0.00     0.156 HD
BRANCH   9  11
HETATM   11  C2  UNL     1      23.440   3.012   9.244  1.00  0.00     0.112 C 
HETATM   12  C1  UNL     1      23.579   3.452   7.787  1.00  0.00     0.026 C 
ENDBRANCH   9  11
ENDBRANCH   1   9
TORSDOF 2
ENDMDL
MODEL 5
REMARK VINA RESULT: -5.421535246     10.644     11.342
REMARK  2 active torsions:
REMARK  status: ('A' for Active; 'I' for Inactive)
REMARK    1  A    between atoms: C2_2  and  N1_3 
REMARK    2  A    between atoms: N1_3  and  C3_5 
ROOT
HETATM    1  C3  UNL     1      22.304   3.024   8.139  1.00  0.00     0.298 A 
HETATM    2  N2  UNL     1      22.156   3.402   9.502  1.00  0.00    -0.092 NA
HETATM    3  N3  UNL     1      23.379   3.865   9.984  1.00  0.00    -0.274 N 
ATOM      4  H3  UNL     1      23.545   4.199  10.933  1.00  0.00     0.185 HD
HETATM    5  C4  UNL     1      24.276   3.808   9.046  1.00  0.00     0.202 A 
HETATM    6  N4  UNL     1      25.651   4.194   9.152  1.00  0.00    -0.062 NA
HETATM    7  N5  UNL     1      23.718   3.295   7.844  1.00  0.00    -0.328 N 
ATOM      8  H5  UNL     1      24.200   3.146   6.958  1.00  0.00     0.165 HD
ENDROOT
BRANCH   1   9
HETATM    9  N1  UNL     1      22.069   1.653   7.860  1.00  0.00    -0.388 N 
ATOM     10  H1  UNL     1      22.159   1.270   6.919  1.00  0.00     0.156 HD
BRANCH   9  11
HETATM   11  C2  UNL     1      21.700   0.843   8.971  1.00  0.00     0.112 C 
HETATM   12  C1  UNL     1      20.234   0.450   8.795  1.00  0.00     0.026 C 
ENDBRANCH   9  11
ENDBRANCH   1   9
TORSDOF 2
ENDMDL
