MODEL 1
REMARK VINA RESULT: -5.275279009      0.000      0.000
REMARK  4 active torsions:
REMARK  status: ('A' for Active; 'I' for Inactive)
REMARK    1  A    between atoms: C2_3  and  C3_4 
REMARK    2  A    between atoms: C2_3  and  C5_12 
REMARK    3  A    between atoms: C5_12  and  N5_13 
REMARK    4  A    between atoms: C5_12  and  N6_17 
ROOT
HETATM    1  N1  UNL     1       7.775   4.419  20.699  1.00  0.00    -0.196 NA
HETATM    2  C1  UNL     1       8.757   3.830  20.745  1.00  0.00     0.075 C 
HETATM    3  C2  UNL     1      10.005   3.079  20.826  1.00  0.00     0.219 C 
ENDROOT
BRANCH   3   4
HETATM    4  C3  UNL     1       9.848   1.818  20.088  1.00  0.00     0.118 A 
HETATM    5  N2  UNL     1       8.763   1.470  19.372  1.00  0.00    -0.339 N 
HETATM    6  C4  UNL     1       8.917   0.261  18.813  1.00  0.00     0.198 A 
ATOM      7  H2  UNL     1       7.931   2.050  19.269  1.00  0.00     0.168 HD
HETATM    8  N3  UNL     1      10.142  -0.150  19.200  1.00  0.00    -0.295 N 
HETATM    9  N4  UNL     1      10.696   0.781  19.960  1.00  0.00    -0.287 N 
ATOM     10  H3  UNL     1      10.574  -1.038  18.946  1.00  0.00     0.187 HD
ATOM     11  H4  UNL     1      11.622   0.721  20.383  1.00  0.00     0.188 HD
ENDBRANCH   3   4
BRANCH   3  12
HETATM   12  C5  UNL     1      10.364   2.811  22.292  1.00  0.00     0.402 C 
BRANCH  12  13
HETATM   13  N5  UNL     1       9.241   2.039  22.835  1.00  0.00    -0.049 N 
ATOM     14  H53 UNL     1       8.337   2.499  22.728  1.00  0.00     0.276 HD
ATOM     15  H52 UNL     1       9.017   1.205  22.292  1.00  0.00     0.276 HD
ATOM     16  H51 UNL     1       9.490   1.843  23.805  1.00  0.00     0.276 HD
ENDBRANCH  12  13
BRANCH  12  17
HETATM   17  N6  UNL     1      10.342   4.096  22.955  1.00  0.00    -0.049 N 
ATOM     18  H63 UNL     1      10.302   4.884  22.310  1.00  0.00     0.276 HD
ATOM     19  H62 UNL     1       9.465   4.286  23.441  1.00  0.00     0.276 HD
ATOM     20  H61 UNL     1      11.158   4.115  23.568  1.00  0.00     0.276 HD
ENDBRANCH  12  17
ENDBRANCH   3  12
TORSDOF 4
ENDMDL
MODEL 2
REMARK VINA RESULT: -5.261351302      2.083      3.096
REMARK  4 active torsions:
REMARK  status: ('A' for Active; 'I' for Inactive)
REMARK    1  A    between atoms: C2_3  and  C3_4 
REMARK    2  A    between atoms: C2_3  and  C5_12 
REMARK    3  A    between atoms: C5_12  and  N5_13 
REMARK    4  A    between atoms: C5_12  and  N6_17 
ROOT
HETATM    1  N1  UNL     1      11.155   3.573  18.520  1.00  0.00    -0.196 NA
HETATM    2  C1  UNL     1      10.593   3.142  19.421  1.00  0.00     0.075 C 
HETATM    3  C2  UNL     1       9.889   2.608  20.581  1.00  0.00     0.219 C 
ENDROOT
BRANCH   3   4
HETATM    4  C3  UNL     1       8.452   2.873  20.428  1.00  0.00     0.118 A 
HETATM    5  N2  UNL     1       7.925   3.946  19.810  1.00  0.00    -0.339 N 
HETATM    6  C4  UNL     1       6.585   3.908  19.829  1.00  0.00     0.198 A 
ATOM      7  H2  UNL     1       8.474   4.691  19.382  1.00  0.00     0.168 HD
HETATM    8  N3  UNL     1       6.277   2.770  20.485  1.00  0.00    -0.295 N 
HETATM    9  N4  UNL     1       7.392   2.154  20.840  1.00  0.00    -0.287 N 
ATOM     10  H3  UNL     1       5.332   2.437  20.676  1.00  0.00     0.187 HD
ATOM     11  H4  UNL     1       7.441   1.271  21.348  1.00  0.00     0.188 HD
ENDBRANCH   3   4
BRANCH   3  12
HETATM   12  C5  UNL     1      10.428   3.249  21.865  1.00  0.00     0.402 C 
BRANCH  12  13
HETATM   13  N5  UNL     1      11.868   3.417  21.644  1.00  0.00    -0.049 N 
ATOM     14  H53 UNL     1      12.429   2.636  21.984  1.00  0.00     0.276 HD
ATOM     15  H52 UNL     1      12.144   3.344  20.665  1.00  0.00     0.276 HD
ATOM     16  H51 UNL     1      12.107   4.311  22.073  1.00  0.00     0.276 HD
ENDBRANCH  12  13
BRANCH  12  17
HETATM   17  N6  UNL     1      10.281   2.257  22.906  1.00  0.00    -0.049 N 
ATOM     18  H63 UNL     1       9.400   2.331  23.415  1.00  0.00     0.276 HD
ATOM     19  H62 UNL     1      10.141   1.312  22.548  1.00  0.00     0.276 HD
ATOM     20  H61 UNL     1      11.104   2.346  23.504  1.00  0.00     0.276 HD
ENDBRANCH  12  17
ENDBRANCH   3  12
TORSDOF 4
ENDMDL
MODEL 3
REMARK VINA RESULT: -5.179307451      1.743      4.147
REMARK  4 active torsions:
REMARK  status: ('A' for Active; 'I' for Inactive)
REMARK    1  A    between atoms: C2_3  and  C3_4 
REMARK    2  A    between atoms: C2_3  and  C5_12 
REMARK    3  A    between atoms: C5_12  and  N5_13 
REMARK    4  A    between atoms: C5_12  and  N6_17 
ROOT
HETATM    1  N1  UNL     1      12.031   3.390  18.214  1.00  0.00    -0.196 NA
HETATM    2  C1  UNL     1      11.241   2.826  18.824  1.00  0.00     0.075 C 
HETATM    3  C2  UNL     1      10.245   2.088  19.592  1.00  0.00     0.219 C 
ENDROOT
BRANCH   3   4
HETATM    4  C3  UNL     1      10.421   2.398  21.018  1.00  0.00     0.118 A 
HETATM    5  N2  UNL     1      11.052   3.483  21.502  1.00  0.00    -0.339 N 
HETATM    6  C4  UNL     1      11.051   3.489  22.843  1.00  0.00     0.198 A 
ATOM      7  H2  UNL     1      11.477   4.209  20.924  1.00  0.00     0.168 HD
HETATM    8  N3  UNL     1      10.395   2.364  23.196  1.00  0.00    -0.295 N 
HETATM    9  N4  UNL     1      10.020   1.715  22.107  1.00  0.00    -0.287 N 
ATOM     10  H3  UNL     1      10.217   2.062  24.154  1.00  0.00     0.187 HD
ATOM     11  H4  UNL     1       9.507   0.834  22.093  1.00  0.00     0.188 HD
ENDBRANCH   3   4
BRANCH   3  12
HETATM   12  C5  UNL     1      10.392   0.583  19.339  1.00  0.00     0.402 C 
BRANCH  12  13
HETATM   13  N5  UNL     1      11.221   0.470  18.134  1.00  0.00    -0.049 N 
ATOM     14  H53 UNL     1      10.702   0.189  17.303  1.00  0.00     0.276 HD
ATOM     15  H52 UNL     1      11.547   1.367  17.774  1.00  0.00     0.276 HD
ATOM     16  H51 UNL     1      11.976  -0.172  18.383  1.00  0.00     0.276 HD
ENDBRANCH  12  13
BRANCH  12  17
HETATM   17  N6  UNL     1       9.076   0.102  18.983  1.00  0.00    -0.049 N 
ATOM     18  H63 UNL     1       9.020  -0.914  18.920  1.00  0.00     0.276 HD
ATOM     19  H62 UNL     1       8.387   0.221  19.725  1.00  0.00     0.276 HD
ATOM     20  H61 UNL     1       8.824   0.576  18.115  1.00  0.00     0.276 HD
ENDBRANCH  12  17
ENDBRANCH   3  12
TORSDOF 4
ENDMDL
MODEL 4
REMARK VINA RESULT: -5.167807818      1.937      3.865
REMARK  4 active torsions:
REMARK  status: ('A' for Active; 'I' for Inactive)
REMARK    1  A    between atoms: C2_3  and  C3_4 
REMARK    2  A    between atoms: C2_3  and  C5_12 
REMARK    3  A    between atoms: C5_12  and  N5_13 
REMARK    4  A    between atoms: C5_12  and  N6_17 
ROOT
HETATM    1  N1  UNL     1       5.733   1.925  20.603  1.00  0.00    -0.196 NA
HETATM    2  C1  UNL     1       6.839   1.728  20.377  1.00  0.00     0.075 C 
HETATM    3  C2  UNL     1       8.245   1.489  20.071  1.00  0.00     0.219 C 
ENDROOT
BRANCH   3   4
HETATM    4  C3  UNL     1       9.067   2.039  21.159  1.00  0.00     0.118 A 
HETATM    5  N2  UNL     1       9.214   3.349  21.431  1.00  0.00    -0.339 N 
HETATM    6  C4  UNL     1      10.025   3.539  22.482  1.00  0.00     0.198 A 
ATOM      7  H2  UNL     1       8.767   4.100  20.905  1.00  0.00     0.168 HD
HETATM    8  N3  UNL     1      10.390   2.299  22.870  1.00  0.00    -0.295 N 
HETATM    9  N4  UNL     1       9.817   1.407  22.080  1.00  0.00    -0.287 N 
ATOM     10  H3  UNL     1      11.010   2.085  23.650  1.00  0.00     0.187 HD
ATOM     11  H4  UNL     1       9.927   0.396  22.156  1.00  0.00     0.188 HD
ENDBRANCH   3   4
BRANCH   3  12
HETATM   12  C5  UNL     1       8.610   2.138  18.731  1.00  0.00     0.402 C 
BRANCH  12  13
HETATM   13  N5  UNL     1       7.417   2.886  18.322  1.00  0.00    -0.049 N 
ATOM     14  H53 UNL     1       6.818   2.379  17.669  1.00  0.00     0.276 HD
ATOM     15  H52 UNL     1       6.724   2.991  19.063  1.00  0.00     0.276 HD
ATOM     16  H51 UNL     1       7.765   3.773  17.955  1.00  0.00     0.276 HD
ENDBRANCH  12  13
BRANCH  12  17
HETATM   17  N6  UNL     1       8.764   1.054  17.786  1.00  0.00    -0.049 N 
ATOM     18  H63 UNL     1       9.629   1.105  17.249  1.00  0.00     0.276 HD
ATOM     19  H62 UNL     1       8.943   0.152  18.229  1.00  0.00     0.276 HD
ATOM     20  H61 UNL     1       7.925   1.061  17.204  1.00  0.00     0.276 HD
ENDBRANCH  12  17
ENDBRANCH   3  12
TORSDOF 4
ENDMDL
MODEL 5
REMARK VINA RESULT: -5.166948195      1.759      2.133
REMARK  4 active torsions:
REMARK  status: ('A' for Active; 'I' for Inactive)
REMARK    1  A    between atoms: C2_3  and  C3_4 
REMARK    2  A    between atoms: C2_3  and  C5_12 
REMARK    3  A    between atoms: C5_12  and  N5_13 
REMARK    4  A    between atoms: C5_12  and  N6_17 
ROOT
HETATM    1  N1  UNL     1       5.929   1.804  20.617  1.00  0.00    -0.196 NA
HETATM    2  C1  UNL     1       7.031   1.891  20.314  1.00  0.00     0.075 C 
HETATM    3  C2  UNL     1       8.439   2.005  19.952  1.00  0.00     0.219 C 
ENDROOT
BRANCH   3   4
HETATM    4  C3  UNL     1       8.877   0.738  19.348  1.00  0.00     0.118 A 
HETATM    5  N2  UNL     1      10.158   0.348  19.209  1.00  0.00    -0.339 N 
HETATM    6  C4  UNL     1      10.238  -0.855  18.623  1.00  0.00     0.198 A 
ATOM      7  H2  UNL     1      10.963   0.897  19.512  1.00  0.00     0.168 HD
HETATM    8  N3  UNL     1       8.960  -1.218  18.392  1.00  0.00    -0.295 N 
HETATM    9  N4  UNL     1       8.150  -0.267  18.825  1.00  0.00    -0.287 N 
ATOM     10  H3  UNL     1       8.665  -2.089  17.952  1.00  0.00     0.187 HD
ATOM     11  H4  UNL     1       7.132  -0.290  18.772  1.00  0.00     0.188 HD
ENDBRANCH   3   4
BRANCH   3  12
HETATM   12  C5  UNL     1       9.278   2.336  21.192  1.00  0.00     0.402 C 
BRANCH  12  13
HETATM   13  N5  UNL     1       8.736   1.495  22.265  1.00  0.00    -0.049 N 
ATOM     14  H53 UNL     1       9.396   1.322  23.023  1.00  0.00     0.276 HD
ATOM     15  H52 UNL     1       8.024   1.958  22.829  1.00  0.00     0.276 HD
ATOM     16  H51 UNL     1       8.408   0.645  21.805  1.00  0.00     0.276 HD
ENDBRANCH  12  13
BRANCH  12  17
HETATM   17  N6  UNL     1       8.964   3.703  21.539  1.00  0.00    -0.049 N 
ATOM     18  H63 UNL     1       8.156   4.073  21.038  1.00  0.00     0.276 HD
ATOM     19  H62 UNL     1       8.585   3.806  22.481  1.00  0.00     0.276 HD
ATOM     20  H61 UNL     1       9.818   4.240  21.384  1.00  0.00     0.276 HD
ENDBRANCH  12  17
ENDBRANCH   3  12
TORSDOF 4
ENDMDL
