MODEL 1
REMARK VINA RESULT: -5.015630100      0.000      0.000
REMARK  5 active torsions:
REMARK  status: ('A' for Active; 'I' for Inactive)
REMARK    1  A    between atoms: C4_6  and  C5_7 
REMARK    2  A    between atoms: C5_7  and  N2_8 
REMARK    3  A    between atoms: C5_7  and  C6_12 
REMARK    4  A    between atoms: C6_12  and  N3_13 
REMARK    5  A    between atoms: C6_12  and  N4_17 
ROOT
HETATM    1  C5  UNL     1      10.408   2.404  20.486  1.00  0.00     0.291 C 
ENDROOT
BRANCH   1   2
HETATM    2  C4  UNL     1      11.696   2.796  19.864  1.00  0.00     0.060 A 
HETATM    3  C3  UNL     1      12.752   3.341  20.560  1.00  0.00     0.116 A 
HETATM    4  N1  UNL     1      13.741   3.572  19.697  1.00  0.00    -0.354 N 
HETATM    5  C2  UNL     1      13.350   3.193  18.476  1.00  0.00     0.077 A 
ATOM      6  H1  UNL     1      14.649   3.973  19.929  1.00  0.00     0.166 HD
HETATM    7  C1  UNL     1      14.205   3.309  17.265  1.00  0.00     0.089 C 
HETATM    8  N5  UNL     1      12.088   2.717  18.584  1.00  0.00    -0.347 N 
ATOM      9  H5  UNL     1      11.525   2.355  17.814  1.00  0.00     0.167 HD
ENDBRANCH   1   2
BRANCH   1  10
HETATM   10  N2  UNL     1      10.391   0.971  20.718  1.00  0.00    -0.066 N 
ATOM     11  H23 UNL     1       9.499   0.655  21.099  1.00  0.00     0.275 HD
ATOM     12  H22 UNL     1      10.374   0.442  19.847  1.00  0.00     0.275 HD
ATOM     13  H21 UNL     1      11.177   0.708  21.312  1.00  0.00     0.275 HD
ENDBRANCH   1  10
BRANCH   1  14
HETATM   14  C6  UNL     1      10.215   3.129  21.825  1.00  0.00     0.413 C 
BRANCH  14  15
HETATM   15  N3  UNL     1      10.204   2.176  22.916  1.00  0.00    -0.048 N 
ATOM     16  H33 UNL     1       9.300   2.148  23.387  1.00  0.00     0.276 HD
ATOM     17  H32 UNL     1      10.230   1.213  22.580  1.00  0.00     0.276 HD
ATOM     18  H31 UNL     1      10.965   2.373  23.566  1.00  0.00     0.276 HD
ENDBRANCH  14  15
BRANCH  14  19
HETATM   19  N4  UNL     1       9.023   3.901  21.716  1.00  0.00    -0.048 N 
ATOM     20  H43 UNL     1       8.467   3.663  20.895  1.00  0.00     0.276 HD
ATOM     21  H42 UNL     1       8.326   3.661  22.421  1.00  0.00     0.276 HD
ATOM     22  H41 UNL     1       9.297   4.883  21.743  1.00  0.00     0.276 HD
ENDBRANCH  14  19
ENDBRANCH   1  14
TORSDOF 5
ENDMDL
MODEL 2
REMARK VINA RESULT: -4.961370994      2.613      3.523
REMARK  5 active torsions:
REMARK  status: ('A' for Active; 'I' for Inactive)
REMARK    1  A    between atoms: C4_6  and  C5_7 
REMARK    2  A    between atoms: C5_7  and  N2_8 
REMARK    3  A    between atoms: C5_7  and  C6_12 
REMARK    4  A    between atoms: C6_12  and  N3_13 
REMARK    5  A    between atoms: C6_12  and  N4_17 
ROOT
HETATM    1  C5  UNL     1      10.658   3.266  21.064  1.00  0.00     0.291 C 
ENDROOT
BRANCH   1   2
HETATM    2  C4  UNL     1      10.169   2.209  20.145  1.00  0.00     0.060 A 
HETATM    3  C3  UNL     1       9.127   2.382  19.260  1.00  0.00     0.116 A 
HETATM    4  N1  UNL     1       8.955   1.238  18.597  1.00  0.00    -0.354 N 
HETATM    5  C2  UNL     1       9.851   0.346  19.030  1.00  0.00     0.077 A 
ATOM      6  H1  UNL     1       8.253   1.071  17.877  1.00  0.00     0.166 HD
HETATM    7  C1  UNL     1       9.948  -1.043  18.507  1.00  0.00     0.089 C 
HETATM    8  N5  UNL     1      10.596   0.949  19.984  1.00  0.00    -0.347 N 
ATOM      9  H5  UNL     1      11.361   0.514  20.500  1.00  0.00     0.167 HD
ENDBRANCH   1   2
BRANCH   1  10
HETATM   10  N2  UNL     1       9.821   4.446  20.946  1.00  0.00    -0.066 N 
ATOM     11  H23 UNL     1      10.056   5.002  20.124  1.00  0.00     0.275 HD
ATOM     12  H22 UNL     1       8.860   4.211  20.696  1.00  0.00     0.275 HD
ATOM     13  H21 UNL     1       9.870   4.992  21.806  1.00  0.00     0.275 HD
ENDBRANCH   1  10
BRANCH   1  14
HETATM   14  C6  UNL     1      10.623   2.773  22.518  1.00  0.00     0.413 C 
BRANCH  14  15
HETATM   15  N3  UNL     1       9.312   2.250  22.840  1.00  0.00    -0.048 N 
ATOM     16  H33 UNL     1       9.295   1.805  23.758  1.00  0.00     0.276 HD
ATOM     17  H32 UNL     1       8.639   2.995  23.022  1.00  0.00     0.276 HD
ATOM     18  H31 UNL     1       8.992   1.619  22.106  1.00  0.00     0.276 HD
ENDBRANCH  14  15
BRANCH  14  19
HETATM   19  N4  UNL     1      11.032   3.861  23.340  1.00  0.00    -0.048 N 
ATOM     20  H43 UNL     1      10.826   4.772  22.929  1.00  0.00     0.276 HD
ATOM     21  H42 UNL     1      10.463   3.964  24.179  1.00  0.00     0.276 HD
ATOM     22  H41 UNL     1      12.023   3.729  23.542  1.00  0.00     0.276 HD
ENDBRANCH  14  19
ENDBRANCH   1  14
TORSDOF 5
ENDMDL
MODEL 3
REMARK VINA RESULT: -4.939832837      1.506      2.110
REMARK  5 active torsions:
REMARK  status: ('A' for Active; 'I' for Inactive)
REMARK    1  A    between atoms: C4_6  and  C5_7 
REMARK    2  A    between atoms: C5_7  and  N2_8 
REMARK    3  A    between atoms: C5_7  and  C6_12 
REMARK    4  A    between atoms: C6_12  and  N3_13 
REMARK    5  A    between atoms: C6_12  and  N4_17 
ROOT
HETATM    1  C5  UNL     1       9.920   3.765  21.162  1.00  0.00     0.291 C 
ENDROOT
BRANCH   1   2
HETATM    2  C4  UNL     1      10.634   3.381  19.919  1.00  0.00     0.060 A 
HETATM    3  C3  UNL     1      10.058   3.387  18.668  1.00  0.00     0.116 A 
HETATM    4  N1  UNL     1      10.977   2.988  17.789  1.00  0.00    -0.354 N 
HETATM    5  C2  UNL     1      12.116   2.729  18.437  1.00  0.00     0.077 A 
ATOM      6  H1  UNL     1      10.833   2.895  16.783  1.00  0.00     0.166 HD
HETATM    7  C1  UNL     1      13.357   2.259  17.766  1.00  0.00     0.089 C 
HETATM    8  N5  UNL     1      11.899   2.971  19.750  1.00  0.00    -0.347 N 
ATOM      9  H5  UNL     1      12.589   2.860  20.493  1.00  0.00     0.167 HD
ENDBRANCH   1   2
BRANCH   1  10
HETATM   10  N2  UNL     1       8.500   3.503  21.013  1.00  0.00    -0.066 N 
ATOM     11  H23 UNL     1       8.307   2.856  20.248  1.00  0.00     0.275 HD
ATOM     12  H22 UNL     1       8.132   2.938  21.779  1.00  0.00     0.275 HD
ATOM     13  H21 UNL     1       7.995   4.382  20.908  1.00  0.00     0.275 HD
ENDBRANCH   1  10
BRANCH   1  14
HETATM   14  C6  UNL     1      10.452   2.964  22.358  1.00  0.00     0.413 C 
BRANCH  14  15
HETATM   15  N3  UNL     1       9.433   2.063  22.854  1.00  0.00    -0.048 N 
ATOM     16  H33 UNL     1       9.670   1.086  22.678  1.00  0.00     0.276 HD
ATOM     17  H32 UNL     1       9.416   2.033  23.873  1.00  0.00     0.276 HD
ATOM     18  H31 UNL     1       8.523   2.309  22.465  1.00  0.00     0.276 HD
ENDBRANCH  14  15
BRANCH  14  19
HETATM   19  N4  UNL     1      10.914   3.905  23.321  1.00  0.00    -0.048 N 
ATOM     20  H43 UNL     1      11.931   3.941  23.389  1.00  0.00     0.276 HD
ATOM     21  H42 UNL     1      10.767   4.873  23.036  1.00  0.00     0.276 HD
ATOM     22  H41 UNL     1      10.462   3.675  24.206  1.00  0.00     0.276 HD
ENDBRANCH  14  19
ENDBRANCH   1  14
TORSDOF 5
ENDMDL
MODEL 4
REMARK VINA RESULT: -4.904460482      1.718      2.239
REMARK  5 active torsions:
REMARK  status: ('A' for Active; 'I' for Inactive)
REMARK    1  A    between atoms: C4_6  and  C5_7 
REMARK    2  A    between atoms: C5_7  and  N2_8 
REMARK    3  A    between atoms: C5_7  and  C6_12 
REMARK    4  A    between atoms: C6_12  and  N3_13 
REMARK    5  A    between atoms: C6_12  and  N4_17 
ROOT
HETATM    1  C5  UNL     1       9.903   3.871  21.239  1.00  0.00     0.291 C 
ENDROOT
BRANCH   1   2
HETATM    2  C4  UNL     1      10.498   3.458  19.944  1.00  0.00     0.060 A 
HETATM    3  C3  UNL     1      11.777   2.964  19.807  1.00  0.00     0.116 A 
HETATM    4  N1  UNL     1      11.981   2.699  18.517  1.00  0.00    -0.354 N 
HETATM    5  C2  UNL     1      10.876   3.006  17.829  1.00  0.00     0.077 A 
ATOM      6  H1  UNL     1      12.840   2.322  18.119  1.00  0.00     0.166 HD
HETATM    7  C1  UNL     1      10.749   2.836  16.358  1.00  0.00     0.089 C 
HETATM    8  N5  UNL     1       9.966   3.474  18.714  1.00  0.00    -0.347 N 
ATOM      9  H5  UNL     1       9.024   3.790  18.481  1.00  0.00     0.167 HD
ENDBRANCH   1   2
BRANCH   1  10
HETATM   10  N2  UNL     1       8.464   3.686  21.200  1.00  0.00    -0.066 N 
ATOM     11  H23 UNL     1       7.977   4.341  21.811  1.00  0.00     0.275 HD
ATOM     12  H22 UNL     1       8.063   3.988  20.312  1.00  0.00     0.275 HD
ATOM     13  H21 UNL     1       8.234   2.716  21.415  1.00  0.00     0.275 HD
ENDBRANCH   1  10
BRANCH   1  14
HETATM   14  C6  UNL     1      10.482   3.033  22.388  1.00  0.00     0.413 C 
BRANCH  14  15
HETATM   15  N3  UNL     1       9.491   2.098  22.877  1.00  0.00    -0.048 N 
ATOM     16  H33 UNL     1       9.841   1.139  22.880  1.00  0.00     0.276 HD
ATOM     17  H32 UNL     1       9.331   2.203  23.879  1.00  0.00     0.276 HD
ATOM     18  H31 UNL     1       8.627   2.185  22.343  1.00  0.00     0.276 HD
ENDBRANCH  14  15
BRANCH  14  19
HETATM   19  N4  UNL     1      10.957   3.944  23.373  1.00  0.00    -0.048 N 
ATOM     20  H43 UNL     1      11.921   4.238  23.213  1.00  0.00     0.276 HD
ATOM     21  H42 UNL     1      10.526   4.866  23.307  1.00  0.00     0.276 HD
ATOM     22  H41 UNL     1      10.820   3.502  24.282  1.00  0.00     0.276 HD
ENDBRANCH  14  19
ENDBRANCH   1  14
TORSDOF 5
ENDMDL
MODEL 5
REMARK VINA RESULT: -4.869515238      1.437      2.199
REMARK  5 active torsions:
REMARK  status: ('A' for Active; 'I' for Inactive)
REMARK    1  A    between atoms: C4_6  and  C5_7 
REMARK    2  A    between atoms: C5_7  and  N2_8 
REMARK    3  A    between atoms: C5_7  and  C6_12 
REMARK    4  A    between atoms: C6_12  and  N3_13 
REMARK    5  A    between atoms: C6_12  and  N4_17 
ROOT
HETATM    1  C5  UNL     1      10.584   2.840  21.998  1.00  0.00     0.291 C 
ENDROOT
BRANCH   1   2
HETATM    2  C4  UNL     1      11.572   3.062  20.914  1.00  0.00     0.060 A 
HETATM    3  C3  UNL     1      11.422   2.592  19.628  1.00  0.00     0.116 A 
HETATM    4  N1  UNL     1      12.488   2.970  18.923  1.00  0.00    -0.354 N 
HETATM    5  C2  UNL     1      13.311   3.663  19.716  1.00  0.00     0.077 A 
ATOM      6  H1  UNL     1      12.651   2.763  17.938  1.00  0.00     0.166 HD
HETATM    7  C1  UNL     1      14.603   4.240  19.259  1.00  0.00     0.089 C 
HETATM    8  N5  UNL     1      12.742   3.716  20.942  1.00  0.00    -0.347 N 
ATOM      9  H5  UNL     1      13.140   4.181  21.759  1.00  0.00     0.167 HD
ENDBRANCH   1   2
BRANCH   1  10
HETATM   10  N2  UNL     1      10.408   4.063  22.760  1.00  0.00    -0.066 N 
ATOM     11  H23 UNL     1      11.241   4.304  23.296  1.00  0.00     0.275 HD
ATOM     12  H22 UNL     1      10.375   4.887  22.160  1.00  0.00     0.275 HD
ATOM     13  H21 UNL     1       9.581   3.986  23.351  1.00  0.00     0.275 HD
ENDBRANCH   1  10
BRANCH   1  14
HETATM   14  C6  UNL     1       9.230   2.418  21.413  1.00  0.00     0.413 C 
BRANCH  14  15
HETATM   15  N3  UNL     1       8.391   3.578  21.196  1.00  0.00    -0.048 N 
ATOM     16  H33 UNL     1       7.501   3.502  21.689  1.00  0.00     0.276 HD
ATOM     17  H32 UNL     1       8.756   4.405  21.669  1.00  0.00     0.276 HD
ATOM     18  H31 UNL     1       8.260   3.738  20.197  1.00  0.00     0.276 HD
ENDBRANCH  14  15
BRANCH  14  19
HETATM   19  N4  UNL     1       8.671   1.455  22.301  1.00  0.00    -0.048 N 
ATOM     20  H43 UNL     1       9.101   1.468  23.226  1.00  0.00     0.276 HD
ATOM     21  H42 UNL     1       7.722   1.686  22.595  1.00  0.00     0.276 HD
ATOM     22  H41 UNL     1       8.738   0.547  21.842  1.00  0.00     0.276 HD
ENDBRANCH  14  19
ENDBRANCH   1  14
TORSDOF 5
ENDMDL
