MODEL 1
REMARK VINA RESULT: -5.353448277      0.000      0.000
REMARK  4 active torsions:
REMARK  status: ('A' for Active; 'I' for Inactive)
REMARK    1  A    between atoms: N1_2  and  N2_4 
REMARK    2  A    between atoms: N2_4  and  C2_6 
REMARK    3  A    between atoms: C5_13  and  N5_14 
REMARK    4  A    between atoms: N5_14  and  N6_16 
ROOT
HETATM    1  C2  UNL     1      10.124   3.071  20.865  1.00  0.00     0.108 A 
HETATM    2  C3  UNL     1      10.462   2.796  19.551  1.00  0.00     0.123 A 
HETATM    3  N3  UNL     1      11.761   2.867  19.206  1.00  0.00    -0.360 N 
ATOM      4  H3  UNL     1      12.024   2.665  18.242  1.00  0.00     0.166 HD
HETATM    5  C4  UNL     1      12.724   3.194  20.085  1.00  0.00     0.182 A 
HETATM    6  N4  UNL     1      12.353   3.457  21.346  1.00  0.00    -0.336 N 
ATOM      7  H4  UNL     1      13.082   3.709  22.015  1.00  0.00     0.168 HD
HETATM    8  C5  UNL     1      11.101   3.412  21.781  1.00  0.00     0.150 A 
ENDROOT
BRANCH   1   9
HETATM    9  N2  UNL     1       8.729   2.972  21.198  1.00  0.00    -0.301 N 
ATOM     10  H2  UNL     1       8.282   3.797  21.598  1.00  0.00     0.186 HD
BRANCH   9  11
HETATM   11  N1  UNL     1       7.962   1.875  21.024  1.00  0.00    -0.340 N 
HETATM   12  C1  UNL     1       6.827   1.974  20.208  1.00  0.00     0.167 C 
ATOM     13  H1  UNL     1       8.204   0.993  21.477  1.00  0.00     0.179 HD
ENDBRANCH   9  11
ENDBRANCH   1   9
BRANCH   8  14
HETATM   14  N5  UNL     1      10.745   3.670  23.003  1.00  0.00    -0.290 N 
ATOM     15  H5  UNL     1       9.771   3.545  23.277  1.00  0.00     0.188 HD
BRANCH  14  16
HETATM   16  N6  UNL     1      11.662   4.113  23.939  1.00  0.00    -0.344 N 
ATOM     17  H62 UNL     1      11.809   3.550  24.777  1.00  0.00     0.176 HD
ATOM     18  H61 UNL     1      12.182   4.980  23.803  1.00  0.00     0.176 HD
ENDBRANCH  14  16
ENDBRANCH   8  14
TORSDOF 4
ENDMDL
MODEL 2
REMARK VINA RESULT: -5.303149194      2.316      2.772
REMARK  4 active torsions:
REMARK  status: ('A' for Active; 'I' for Inactive)
REMARK    1  A    between atoms: N1_2  and  N2_4 
REMARK    2  A    between atoms: N2_4  and  C2_6 
REMARK    3  A    between atoms: C5_13  and  N5_14 
REMARK    4  A    between atoms: N5_14  and  N6_16 
ROOT
HETATM    1  C2  UNL     1       8.207   1.543  20.387  1.00  0.00     0.108 A 
HETATM    2  C3  UNL     1       8.195   1.117  19.069  1.00  0.00     0.123 A 
HETATM    3  N3  UNL     1       9.315   0.553  18.579  1.00  0.00    -0.360 N 
ATOM      4  H3  UNL     1       9.320   0.232  17.611  1.00  0.00     0.166 HD
HETATM    5  C4  UNL     1      10.427   0.396  19.318  1.00  0.00     0.182 A 
HETATM    6  N4  UNL     1      10.397   0.827  20.588  1.00  0.00    -0.336 N 
ATOM      7  H4  UNL     1      11.240   0.712  21.151  1.00  0.00     0.168 HD
HETATM    8  C5  UNL     1       9.342   1.393  21.160  1.00  0.00     0.150 A 
ENDROOT
BRANCH   1   9
HETATM    9  N2  UNL     1       6.988   2.128  20.877  1.00  0.00    -0.301 N 
ATOM     10  H2  UNL     1       6.653   1.818  21.789  1.00  0.00     0.186 HD
BRANCH   9  11
HETATM   11  N1  UNL     1       6.253   3.055  20.228  1.00  0.00    -0.340 N 
HETATM   12  C1  UNL     1       6.682   4.388  20.252  1.00  0.00     0.167 C 
ATOM     13  H1  UNL     1       5.402   2.790  19.731  1.00  0.00     0.179 HD
ENDBRANCH   9  11
ENDBRANCH   1   9
BRANCH   8  14
HETATM   14  N5  UNL     1       9.317   1.812  22.388  1.00  0.00    -0.290 N 
ATOM     15  H5  UNL     1       8.481   1.660  22.952  1.00  0.00     0.188 HD
BRANCH  14  16
HETATM   16  N6  UNL     1      10.404   2.460  22.948  1.00  0.00    -0.344 N 
ATOM     17  H62 UNL     1      11.336   2.232  22.602  1.00  0.00     0.176 HD
ATOM     18  H61 UNL     1      10.284   3.151  23.689  1.00  0.00     0.176 HD
ENDBRANCH  14  16
ENDBRANCH   8  14
TORSDOF 4
ENDMDL
MODEL 3
REMARK VINA RESULT: -5.282844248      1.422      3.569
REMARK  4 active torsions:
REMARK  status: ('A' for Active; 'I' for Inactive)
REMARK    1  A    between atoms: N1_2  and  N2_4 
REMARK    2  A    between atoms: N2_4  and  C2_6 
REMARK    3  A    between atoms: C5_13  and  N5_14 
REMARK    4  A    between atoms: N5_14  and  N6_16 
ROOT
HETATM    1  C2  UNL     1      11.043   2.960  21.120  1.00  0.00     0.108 A 
HETATM    2  C3  UNL     1      10.674   1.932  20.269  1.00  0.00     0.123 A 
HETATM    3  N3  UNL     1       9.614   1.177  20.615  1.00  0.00    -0.360 N 
ATOM      4  H3  UNL     1       9.330   0.417  19.997  1.00  0.00     0.166 HD
HETATM    5  C4  UNL     1       8.917   1.388  21.745  1.00  0.00     0.182 A 
HETATM    6  N4  UNL     1       9.310   2.391  22.542  1.00  0.00    -0.336 N 
ATOM      7  H4  UNL     1       8.784   2.552  23.402  1.00  0.00     0.168 HD
HETATM    8  C5  UNL     1      10.339   3.189  22.286  1.00  0.00     0.150 A 
ENDROOT
BRANCH   1   9
HETATM    9  N2  UNL     1      12.171   3.752  20.709  1.00  0.00    -0.301 N 
ATOM     10  H2  UNL     1      12.088   4.765  20.790  1.00  0.00     0.186 HD
BRANCH   9  11
HETATM   11  N1  UNL     1      13.332   3.261  20.226  1.00  0.00    -0.340 N 
HETATM   12  C1  UNL     1      13.664   3.520  18.890  1.00  0.00     0.167 C 
ATOM     13  H1  UNL     1      13.954   2.714  20.822  1.00  0.00     0.179 HD
ENDBRANCH   9  11
ENDBRANCH   1   9
BRANCH   8  14
HETATM   14  N5  UNL     1      10.719   4.158  23.062  1.00  0.00    -0.290 N 
ATOM     15  H5  UNL     1      10.246   5.060  23.005  1.00  0.00     0.188 HD
BRANCH  14  16
HETATM   16  N6  UNL     1      11.755   3.991  23.964  1.00  0.00    -0.344 N 
ATOM     17  H62 UNL     1      12.580   4.584  23.871  1.00  0.00     0.176 HD
ATOM     18  H61 UNL     1      11.702   3.294  24.707  1.00  0.00     0.176 HD
ENDBRANCH  14  16
ENDBRANCH   8  14
TORSDOF 4
ENDMDL
MODEL 4
REMARK VINA RESULT: -5.250704567      1.295      1.295
REMARK  4 active torsions:
REMARK  status: ('A' for Active; 'I' for Inactive)
REMARK    1  A    between atoms: N1_2  and  N2_4 
REMARK    2  A    between atoms: N2_4  and  C2_6 
REMARK    3  A    between atoms: C5_13  and  N5_14 
REMARK    4  A    between atoms: N5_14  and  N6_16 
ROOT
HETATM    1  C2  UNL     1       9.630   3.698  20.788  1.00  0.00     0.108 A 
HETATM    2  C3  UNL     1       9.790   3.414  19.442  1.00  0.00     0.123 A 
HETATM    3  N3  UNL     1      11.019   3.069  19.012  1.00  0.00    -0.360 N 
ATOM      4  H3  UNL     1      11.151   2.855  18.024  1.00  0.00     0.166 HD
HETATM    5  C4  UNL     1      12.077   2.995  19.838  1.00  0.00     0.182 A 
HETATM    6  N4  UNL     1      11.879   3.283  21.132  1.00  0.00    -0.336 N 
ATOM      7  H4  UNL     1      12.682   3.231  21.761  1.00  0.00     0.168 HD
HETATM    8  C5  UNL     1      10.708   3.631  21.650  1.00  0.00     0.150 A 
ENDROOT
BRANCH   1   9
HETATM    9  N2  UNL     1       8.302   4.051  21.210  1.00  0.00    -0.301 N 
ATOM     10  H2  UNL     1       8.199   4.472  22.134  1.00  0.00     0.186 HD
BRANCH   9  11
HETATM   11  N1  UNL     1       7.179   3.869  20.484  1.00  0.00    -0.340 N 
HETATM   12  C1  UNL     1       6.210   4.881  20.483  1.00  0.00     0.167 C 
ATOM     13  H1  UNL     1       7.039   3.012  19.947  1.00  0.00     0.179 HD
ENDBRANCH   9  11
ENDBRANCH   1   9
BRANCH   8  14
HETATM   14  N5  UNL     1      10.521   3.912  22.903  1.00  0.00    -0.290 N 
ATOM     15  H5  UNL     1       9.570   4.041  23.250  1.00  0.00     0.188 HD
BRANCH  14  16
HETATM   16  N6  UNL     1      11.585   4.040  23.777  1.00  0.00    -0.344 N 
ATOM     17  H62 UNL     1      12.376   4.620  23.497  1.00  0.00     0.176 HD
ATOM     18  H61 UNL     1      11.587   3.567  24.682  1.00  0.00     0.176 HD
ENDBRANCH  14  16
ENDBRANCH   8  14
TORSDOF 4
ENDMDL
MODEL 5
REMARK VINA RESULT: -5.092775570      2.233      4.011
REMARK  4 active torsions:
REMARK  status: ('A' for Active; 'I' for Inactive)
REMARK    1  A    between atoms: N1_2  and  N2_4 
REMARK    2  A    between atoms: N2_4  and  C2_6 
REMARK    3  A    between atoms: C5_13  and  N5_14 
REMARK    4  A    between atoms: N5_14  and  N6_16 
ROOT
HETATM    1  C2  UNL     1       8.931   1.353  20.737  1.00  0.00     0.108 A 
HETATM    2  C3  UNL     1      10.055   0.819  20.132  1.00  0.00     0.123 A 
HETATM    3  N3  UNL     1      10.030   0.644  18.797  1.00  0.00    -0.360 N 
ATOM      4  H3  UNL     1      10.852   0.254  18.337  1.00  0.00     0.166 HD
HETATM    5  C4  UNL     1       8.962   0.966  18.047  1.00  0.00     0.182 A 
HETATM    6  N4  UNL     1       7.892   1.476  18.674  1.00  0.00    -0.336 N 
ATOM      7  H4  UNL     1       7.078   1.719  18.108  1.00  0.00     0.168 HD
HETATM    8  C5  UNL     1       7.822   1.687  19.982  1.00  0.00     0.150 A 
ENDROOT
BRANCH   1   9
HETATM    9  N2  UNL     1       9.001   1.537  22.162  1.00  0.00    -0.301 N 
ATOM     10  H2  UNL     1       8.391   0.959  22.739  1.00  0.00     0.186 HD
BRANCH   9  11
HETATM   11  N1  UNL     1       9.809   2.412  22.795  1.00  0.00    -0.340 N 
HETATM   12  C1  UNL     1       9.950   3.700  22.262  1.00  0.00     0.167 C 
ATOM     13  H1  UNL     1      10.306   2.142  23.645  1.00  0.00     0.179 HD
ENDBRANCH   9  11
ENDBRANCH   1   9
BRANCH   8  14
HETATM   14  N5  UNL     1       6.784   2.178  20.586  1.00  0.00    -0.290 N 
ATOM     15  H5  UNL     1       6.156   1.553  21.091  1.00  0.00     0.188 HD
BRANCH  14  16
HETATM   16  N6  UNL     1       6.512   3.535  20.559  1.00  0.00    -0.344 N 
ATOM     17  H62 UNL     1       7.070   4.153  21.148  1.00  0.00     0.176 HD
ATOM     18  H61 UNL     1       5.773   3.914  19.966  1.00  0.00     0.176 HD
ENDBRANCH  14  16
ENDBRANCH   8  14
TORSDOF 4
ENDMDL
