MODEL 1
REMARK VINA RESULT: -5.006049724      0.000      0.000
REMARK  5 active torsions:
REMARK  status: ('A' for Active; 'I' for Inactive)
REMARK    1  A    between atoms: N1_1  and  C1_4 
REMARK    2  A    between atoms: N4_10  and  C4_11 
REMARK    3  A    between atoms: C4_11  and  C5_12 
REMARK    4  A    between atoms: C5_12  and  C6_13 
REMARK    5  A    between atoms: C6_13  and  N5_14 
ROOT
HETATM    1  C1  UNL     1       9.763   2.122  22.007  1.00  0.00     0.679 A 
HETATM    2  N2  UNL     1      10.460   2.690  22.977  1.00  0.00    -0.199 N 
ATOM      3  H2  UNL     1      10.258   2.639  23.976  1.00  0.00     0.183 HD
HETATM    4  C2  UNL     1      11.481   3.347  22.403  1.00  0.00     0.152 A 
HETATM    5  C3  UNL     1      11.405   3.173  21.017  1.00  0.00     0.150 A 
HETATM    6  N3  UNL     1      12.302   3.708  20.049  1.00  0.00    -0.080 NA
HETATM    7  N4  UNL     1      10.327   2.408  20.821  1.00  0.00    -0.169 N 
ENDROOT
BRANCH   7   8
HETATM    8  C4  UNL     1       9.816   1.942  19.556  1.00  0.00     0.150 C 
BRANCH   8   9
HETATM    9  C5  UNL     1      10.463   0.657  19.102  1.00  0.00     0.048 C 
BRANCH   9  10
HETATM   10  C6  UNL     1       9.333  -0.253  18.621  1.00  0.00     0.231 C 
BRANCH  10  11
HETATM   11  N5  UNL     1       9.779  -1.605  18.429  1.00  0.00    -0.079 N 
ATOM     12  H53 UNL     1      10.789  -1.683  18.552  1.00  0.00     0.274 HD
ATOM     13  H52 UNL     1       9.476  -2.207  19.195  1.00  0.00     0.274 HD
ATOM     14  H51 UNL     1       9.486  -1.977  17.526  1.00  0.00     0.274 HD
ENDBRANCH  10  11
ENDBRANCH   9  10
ENDBRANCH   8   9
ENDBRANCH   7   8
BRANCH   1  15
HETATM   15  N1  UNL     1       8.690   1.397  22.210  1.00  0.00    -0.234 N 
ATOM     16  H12 UNL     1       7.887   1.643  22.790  1.00  0.00     0.174 HD
ATOM     17  H11 UNL     1       8.540   0.477  21.794  1.00  0.00     0.174 HD
ENDBRANCH   1  15
TORSDOF 5
ENDMDL
MODEL 2
REMARK VINA RESULT: -4.809484073      2.919      4.415
REMARK  5 active torsions:
REMARK  status: ('A' for Active; 'I' for Inactive)
REMARK    1  A    between atoms: N1_1  and  C1_4 
REMARK    2  A    between atoms: N4_10  and  C4_11 
REMARK    3  A    between atoms: C4_11  and  C5_12 
REMARK    4  A    between atoms: C5_12  and  C6_13 
REMARK    5  A    between atoms: C6_13  and  N5_14 
ROOT
HETATM    1  C1  UNL     1       7.533   2.872  19.712  1.00  0.00     0.679 A 
HETATM    2  N2  UNL     1       6.430   3.107  20.403  1.00  0.00    -0.199 N 
ATOM      3  H2  UNL     1       6.274   3.881  21.048  1.00  0.00     0.183 HD
HETATM    4  C2  UNL     1       5.554   2.136  20.097  1.00  0.00     0.152 A 
HETATM    5  C3  UNL     1       6.149   1.266  19.176  1.00  0.00     0.150 A 
HETATM    6  N3  UNL     1       5.551   0.109  18.601  1.00  0.00    -0.080 NA
HETATM    7  N4  UNL     1       7.372   1.764  18.969  1.00  0.00    -0.169 N 
ENDROOT
BRANCH   7   8
HETATM    8  C4  UNL     1       8.386   1.229  18.096  1.00  0.00     0.150 C 
BRANCH   8   9
HETATM    9  C5  UNL     1       9.055   0.001  18.662  1.00  0.00     0.048 C 
BRANCH   9  10
HETATM   10  C6  UNL     1      10.446   0.437  19.123  1.00  0.00     0.231 C 
BRANCH  10  11
HETATM   11  N5  UNL     1      10.463   0.787  20.516  1.00  0.00    -0.079 N 
ATOM     12  H53 UNL     1       9.592   0.521  20.976  1.00  0.00     0.274 HD
ATOM     13  H52 UNL     1      11.109   0.195  21.039  1.00  0.00     0.274 HD
ATOM     14  H51 UNL     1      10.670   1.776  20.656  1.00  0.00     0.274 HD
ENDBRANCH  10  11
ENDBRANCH   9  10
ENDBRANCH   8   9
ENDBRANCH   7   8
BRANCH   1  15
HETATM   15  N1  UNL     1       8.602   3.630  19.768  1.00  0.00    -0.234 N 
ATOM     16  H12 UNL     1       8.679   4.544  20.214  1.00  0.00     0.174 HD
ATOM     17  H11 UNL     1       9.500   3.373  19.358  1.00  0.00     0.174 HD
ENDBRANCH   1  15
TORSDOF 5
ENDMDL
MODEL 3
REMARK VINA RESULT: -4.771547947      1.169      1.213
REMARK  5 active torsions:
REMARK  status: ('A' for Active; 'I' for Inactive)
REMARK    1  A    between atoms: N1_1  and  C1_4 
REMARK    2  A    between atoms: N4_10  and  C4_11 
REMARK    3  A    between atoms: C4_11  and  C5_12 
REMARK    4  A    between atoms: C5_12  and  C6_13 
REMARK    5  A    between atoms: C6_13  and  N5_14 
ROOT
HETATM    1  C1  UNL     1       9.764   2.061  22.085  1.00  0.00     0.679 A 
HETATM    2  N2  UNL     1      10.500   2.774  22.921  1.00  0.00    -0.199 N 
ATOM      3  H2  UNL     1      10.366   2.853  23.929  1.00  0.00     0.183 HD
HETATM    4  C2  UNL     1      11.457   3.375  22.195  1.00  0.00     0.152 A 
HETATM    5  C3  UNL     1      11.298   3.013  20.853  1.00  0.00     0.150 A 
HETATM    6  N3  UNL     1      12.111   3.438  19.763  1.00  0.00    -0.080 NA
HETATM    7  N4  UNL     1      10.238   2.200  20.836  1.00  0.00    -0.169 N 
ENDROOT
BRANCH   7   8
HETATM    8  C4  UNL     1       9.664   1.553  19.682  1.00  0.00     0.150 C 
BRANCH   8   9
HETATM    9  C5  UNL     1      10.344   0.250  19.344  1.00  0.00     0.048 C 
BRANCH   9  10
HETATM   10  C6  UNL     1      10.759   0.344  17.876  1.00  0.00     0.231 C 
BRANCH  10  11
HETATM   11  N5  UNL     1      12.024   1.007  17.719  1.00  0.00    -0.079 N 
ATOM     12  H53 UNL     1      11.953   2.000  17.939  1.00  0.00     0.274 HD
ATOM     13  H52 UNL     1      12.682   0.727  18.447  1.00  0.00     0.274 HD
ATOM     14  H51 UNL     1      12.416   0.860  16.789  1.00  0.00     0.274 HD
ENDBRANCH  10  11
ENDBRANCH   9  10
ENDBRANCH   8   9
ENDBRANCH   7   8
BRANCH   1  15
HETATM   15  N1  UNL     1       8.733   1.340  22.457  1.00  0.00    -0.234 N 
ATOM     16  H12 UNL     1       8.733   0.344  22.677  1.00  0.00     0.174 HD
ATOM     17  H11 UNL     1       7.791   1.714  22.569  1.00  0.00     0.174 HD
ENDBRANCH   1  15
TORSDOF 5
ENDMDL
MODEL 4
REMARK VINA RESULT: -4.764950400      1.074      1.210
REMARK  5 active torsions:
REMARK  status: ('A' for Active; 'I' for Inactive)
REMARK    1  A    between atoms: N1_1  and  C1_4 
REMARK    2  A    between atoms: N4_10  and  C4_11 
REMARK    3  A    between atoms: C4_11  and  C5_12 
REMARK    4  A    between atoms: C5_12  and  C6_13 
REMARK    5  A    between atoms: C6_13  and  N5_14 
ROOT
HETATM    1  C1  UNL     1      10.555   2.843  21.830  1.00  0.00     0.679 A 
HETATM    2  N2  UNL     1      11.731   3.360  22.143  1.00  0.00    -0.199 N 
ATOM      3  H2  UNL     1      12.061   3.588  23.081  1.00  0.00     0.183 HD
HETATM    4  C2  UNL     1      12.410   3.530  20.997  1.00  0.00     0.152 A 
HETATM    5  C3  UNL     1      11.612   3.097  19.933  1.00  0.00     0.150 A 
HETATM    6  N3  UNL     1      11.966   3.109  18.554  1.00  0.00    -0.080 NA
HETATM    7  N4  UNL     1      10.475   2.680  20.498  1.00  0.00    -0.169 N 
ENDROOT
BRANCH   7   8
HETATM    8  C4  UNL     1       9.323   2.137  19.824  1.00  0.00     0.150 C 
BRANCH   8   9
HETATM    9  C5  UNL     1       9.277   0.629  19.867  1.00  0.00     0.048 C 
BRANCH   9  10
HETATM   10  C6  UNL     1       9.550   0.145  18.444  1.00  0.00     0.231 C 
BRANCH  10  11
HETATM   11  N5  UNL     1       9.667  -1.286  18.379  1.00  0.00    -0.079 N 
ATOM     12  H53 UNL     1      10.566  -1.567  17.986  1.00  0.00     0.274 HD
ATOM     13  H52 UNL     1       9.763  -1.693  19.309  1.00  0.00     0.274 HD
ATOM     14  H51 UNL     1       8.892  -1.707  17.868  1.00  0.00     0.274 HD
ENDBRANCH  10  11
ENDBRANCH   9  10
ENDBRANCH   8   9
ENDBRANCH   7   8
BRANCH   1  15
HETATM   15  N1  UNL     1       9.632   2.546  22.713  1.00  0.00    -0.234 N 
ATOM     16  H12 UNL     1       9.779   2.131  23.633  1.00  0.00     0.174 HD
ATOM     17  H11 UNL     1       8.635   2.705  22.566  1.00  0.00     0.174 HD
ENDBRANCH   1  15
TORSDOF 5
ENDMDL
MODEL 5
REMARK VINA RESULT: -4.755621652      1.894      4.443
REMARK  5 active torsions:
REMARK  status: ('A' for Active; 'I' for Inactive)
REMARK    1  A    between atoms: N1_1  and  C1_4 
REMARK    2  A    between atoms: N4_10  and  C4_11 
REMARK    3  A    between atoms: C4_11  and  C5_12 
REMARK    4  A    between atoms: C5_12  and  C6_13 
REMARK    5  A    between atoms: C6_13  and  N5_14 
ROOT
HETATM    1  C1  UNL     1       7.639   1.569  19.985  1.00  0.00     0.679 A 
HETATM    2  N2  UNL     1       7.498   0.978  18.810  1.00  0.00    -0.199 N 
ATOM      3  H2  UNL     1       6.671   1.008  18.214  1.00  0.00     0.183 HD
HETATM    4  C2  UNL     1       8.645   0.330  18.550  1.00  0.00     0.152 A 
HETATM    5  C3  UNL     1       9.529   0.534  19.615  1.00  0.00     0.150 A 
HETATM    6  N3  UNL     1      10.851   0.016  19.725  1.00  0.00    -0.080 NA
HETATM    7  N4  UNL     1       8.862   1.307  20.477  1.00  0.00    -0.169 N 
ENDROOT
BRANCH   7   8
HETATM    8  C4  UNL     1       9.341   1.802  21.743  1.00  0.00     0.150 C 
BRANCH   8   9
HETATM    9  C5  UNL     1       9.811   3.234  21.671  1.00  0.00     0.048 C 
BRANCH   9  10
HETATM   10  C6  UNL     1      11.198   3.269  22.312  1.00  0.00     0.231 C 
BRANCH  10  11
HETATM   11  N5  UNL     1      11.200   4.008  23.544  1.00  0.00    -0.079 N 
ATOM     12  H53 UNL     1      10.250   4.202  23.862  1.00  0.00     0.274 HD
ATOM     13  H52 UNL     1      11.515   3.429  24.323  1.00  0.00     0.274 HD
ATOM     14  H51 UNL     1      11.749   4.864  23.472  1.00  0.00     0.274 HD
ENDBRANCH  10  11
ENDBRANCH   9  10
ENDBRANCH   8   9
ENDBRANCH   7   8
BRANCH   1  15
HETATM   15  N1  UNL     1       6.705   2.294  20.552  1.00  0.00    -0.234 N 
ATOM     16  H12 UNL     1       5.874   2.679  20.102  1.00  0.00     0.174 HD
ATOM     17  H11 UNL     1       6.713   2.559  21.537  1.00  0.00     0.174 HD
ENDBRANCH   1  15
TORSDOF 5
ENDMDL
