MODEL 1
REMARK VINA RESULT: -5.493044414      0.000      0.000
REMARK  4 active torsions:
REMARK  status: ('A' for Active; 'I' for Inactive)
REMARK    1  A    between atoms: O1_2  and  C2_3 
REMARK    2  A    between atoms: C4_5  and  C5_6 
REMARK    3  A    between atoms: C5_6  and  N1_7 
REMARK    4  A    between atoms: C6_13  and  N3_14 
ROOT
HETATM    1  C2  UNL     1      -1.962  -0.831  13.170  1.00  0.00     0.158 A 
HETATM    2  C3  UNL     1      -1.832  -0.900  14.543  1.00  0.00     0.083 A 
HETATM    3  C4  UNL     1      -2.814  -1.499  15.315  1.00  0.00     0.056 A 
HETATM    4  N2  UNL     1      -3.877  -1.997  14.649  1.00  0.00    -0.194 N 
ATOM      5  H2  UNL     1      -4.623  -2.447  15.178  1.00  0.00     0.184 HD
HETATM    6  C6  UNL     1      -3.985  -1.919  13.311  1.00  0.00     0.678 A 
HETATM    7  N4  UNL     1      -3.035  -1.338  12.553  1.00  0.00    -0.171 N 
ATOM      8  H4  UNL     1      -3.131  -1.286  11.539  1.00  0.00     0.186 HD
ENDROOT
BRANCH   3   9
HETATM    9  C5  UNL     1      -2.682  -1.579  16.792  1.00  0.00     0.287 C 
BRANCH   9  10
HETATM   10  N1  UNL     1      -3.799  -2.313  17.349  1.00  0.00    -0.074 N 
ATOM     11  H13 UNL     1      -4.681  -1.815  17.231  1.00  0.00     0.274 HD
ATOM     12  H12 UNL     1      -4.022  -3.143  16.800  1.00  0.00     0.274 HD
ATOM     13  H11 UNL     1      -3.614  -2.539  18.326  1.00  0.00     0.274 HD
ENDBRANCH   9  10
ENDBRANCH   3   9
BRANCH   1  14
HETATM   14  O1  UNL     1      -0.913  -0.205  12.476  1.00  0.00    -0.340 OA
HETATM   15  C1  UNL     1       0.409  -0.336  12.958  1.00  0.00     0.211 C 
ENDBRANCH   1  14
BRANCH   6  16
HETATM   16  N3  UNL     1      -5.011  -2.402  12.695  1.00  0.00    -0.234 N 
ATOM     17  H32 UNL     1      -5.209  -3.393  12.832  1.00  0.00     0.174 HD
ATOM     18  H31 UNL     1      -5.593  -1.813  12.100  1.00  0.00     0.174 HD
ENDBRANCH   6  16
TORSDOF 4
ENDMDL
MODEL 2
REMARK VINA RESULT: -5.398275894      2.722      4.379
REMARK  4 active torsions:
REMARK  status: ('A' for Active; 'I' for Inactive)
REMARK    1  A    between atoms: O1_2  and  C2_3 
REMARK    2  A    between atoms: C4_5  and  C5_6 
REMARK    3  A    between atoms: C5_6  and  N1_7 
REMARK    4  A    between atoms: C6_13  and  N3_14 
ROOT
HETATM    1  C2  UNL     1      -3.804  -2.450  13.180  1.00  0.00     0.158 A 
HETATM    2  C3  UNL     1      -2.495  -2.485  12.740  1.00  0.00     0.083 A 
HETATM    3  C4  UNL     1      -2.156  -3.186  11.595  1.00  0.00     0.056 A 
HETATM    4  N2  UNL     1      -3.166  -3.815  10.957  1.00  0.00    -0.194 N 
ATOM      5  H2  UNL     1      -2.961  -4.343  10.109  1.00  0.00     0.184 HD
HETATM    6  C6  UNL     1      -4.434  -3.769  11.404  1.00  0.00     0.678 A 
HETATM    7  N4  UNL     1      -4.772  -3.089  12.516  1.00  0.00    -0.171 N 
ATOM      8  H4  UNL     1      -5.739  -3.064  12.842  1.00  0.00     0.186 HD
ENDROOT
BRANCH   3   9
HETATM    9  C5  UNL     1      -0.752  -3.228  11.112  1.00  0.00     0.287 C 
BRANCH   9  10
HETATM   10  N1  UNL     1      -0.699  -3.835   9.799  1.00  0.00    -0.074 N 
ATOM     11  H13 UNL     1       0.257  -4.050   9.515  1.00  0.00     0.274 HD
ATOM     12  H12 UNL     1      -1.071  -4.784   9.800  1.00  0.00     0.274 HD
ATOM     13  H11 UNL     1      -1.174  -3.239   9.121  1.00  0.00     0.274 HD
ENDBRANCH   9  10
ENDBRANCH   3   9
BRANCH   1  14
HETATM   14  O1  UNL     1      -4.047  -1.711  14.351  1.00  0.00    -0.340 OA
HETATM   15  C1  UNL     1      -3.071  -1.695  15.372  1.00  0.00     0.211 C 
ENDBRANCH   1  14
BRANCH   6  16
HETATM   16  N3  UNL     1      -5.384  -4.379  10.778  1.00  0.00    -0.234 N 
ATOM     17  H32 UNL     1      -5.139  -5.243  10.293  1.00  0.00     0.174 HD
ATOM     18  H31 UNL     1      -6.334  -4.008  10.772  1.00  0.00     0.174 HD
ENDBRANCH   6  16
TORSDOF 4
ENDMDL
MODEL 3
REMARK VINA RESULT: -5.346017741      1.403      1.406
REMARK  4 active torsions:
REMARK  status: ('A' for Active; 'I' for Inactive)
REMARK    1  A    between atoms: O1_2  and  C2_3 
REMARK    2  A    between atoms: C4_5  and  C5_6 
REMARK    3  A    between atoms: C5_6  and  N1_7 
REMARK    4  A    between atoms: C6_13  and  N3_14 
ROOT
HETATM    1  C2  UNL     1      -2.330  -1.084  13.148  1.00  0.00     0.158 A 
HETATM    2  C3  UNL     1      -1.953  -1.804  14.265  1.00  0.00     0.083 A 
HETATM    3  C4  UNL     1      -2.683  -2.909  14.670  1.00  0.00     0.056 A 
HETATM    4  N2  UNL     1      -3.758  -3.224  13.917  1.00  0.00    -0.194 N 
ATOM      5  H2  UNL     1      -4.324  -4.032  14.178  1.00  0.00     0.184 HD
HETATM    6  C6  UNL     1      -4.107  -2.509  12.832  1.00  0.00     0.678 A 
HETATM    7  N4  UNL     1      -3.403  -1.433  12.432  1.00  0.00    -0.171 N 
ATOM      8  H4  UNL     1      -3.681  -0.901  11.607  1.00  0.00     0.186 HD
ENDROOT
BRANCH   3   9
HETATM    9  C5  UNL     1      -2.286  -3.691  15.869  1.00  0.00     0.287 C 
BRANCH   9  10
HETATM   10  N1  UNL     1      -3.406  -4.477  16.340  1.00  0.00    -0.074 N 
ATOM     11  H13 UNL     1      -4.174  -3.891  16.667  1.00  0.00     0.274 HD
ATOM     12  H12 UNL     1      -3.892  -4.946  15.575  1.00  0.00     0.274 HD
ATOM     13  H11 UNL     1      -3.094  -5.134  17.055  1.00  0.00     0.274 HD
ENDBRANCH   9  10
ENDBRANCH   3   9
BRANCH   1  14
HETATM   14  O1  UNL     1      -1.525   0.020  12.819  1.00  0.00    -0.340 OA
HETATM   15  C1  UNL     1      -0.740   0.627  13.825  1.00  0.00     0.211 C 
ENDBRANCH   1  14
BRANCH   6  16
HETATM   16  N3  UNL     1      -5.140  -2.829  12.127  1.00  0.00    -0.234 N 
ATOM     17  H32 UNL     1      -5.191  -3.791  11.790  1.00  0.00     0.174 HD
ATOM     18  H31 UNL     1      -5.869  -2.146  11.920  1.00  0.00     0.174 HD
ENDBRANCH   6  16
TORSDOF 4
ENDMDL
MODEL 4
REMARK VINA RESULT: -5.291491003      2.578      3.060
REMARK  4 active torsions:
REMARK  status: ('A' for Active; 'I' for Inactive)
REMARK    1  A    between atoms: O1_2  and  C2_3 
REMARK    2  A    between atoms: C4_5  and  C5_6 
REMARK    3  A    between atoms: C5_6  and  N1_7 
REMARK    4  A    between atoms: C6_13  and  N3_14 
ROOT
HETATM    1  C2  UNL     1      -2.055  -3.513  11.095  1.00  0.00     0.158 A 
HETATM    2  C3  UNL     1      -2.128  -2.684  12.197  1.00  0.00     0.083 A 
HETATM    3  C4  UNL     1      -3.347  -2.413  12.795  1.00  0.00     0.056 A 
HETATM    4  N2  UNL     1      -4.429  -2.999  12.240  1.00  0.00    -0.194 N 
ATOM      5  H2  UNL     1      -5.347  -2.826  12.649  1.00  0.00     0.184 HD
HETATM    6  C6  UNL     1      -4.336  -3.803  11.165  1.00  0.00     0.678 A 
HETATM    7  N4  UNL     1      -3.154  -4.072  10.578  1.00  0.00    -0.171 N 
ATOM      8  H4  UNL     1      -3.100  -4.684   9.764  1.00  0.00     0.186 HD
ENDROOT
BRANCH   3   9
HETATM    9  C5  UNL     1      -3.436  -1.524  13.981  1.00  0.00     0.287 C 
BRANCH   9  10
HETATM   10  N1  UNL     1      -3.424  -2.315  15.194  1.00  0.00    -0.074 N 
ATOM     11  H13 UNL     1      -3.484  -1.735  16.030  1.00  0.00     0.274 HD
ATOM     12  H12 UNL     1      -4.288  -2.842  15.315  1.00  0.00     0.274 HD
ATOM     13  H11 UNL     1      -2.603  -2.920  15.206  1.00  0.00     0.274 HD
ENDBRANCH   9  10
ENDBRANCH   3   9
BRANCH   1  14
HETATM   14  O1  UNL     1      -0.772  -3.728  10.561  1.00  0.00    -0.340 OA
HETATM   15  C1  UNL     1       0.345  -3.130  11.187  1.00  0.00     0.211 C 
ENDBRANCH   1  14
BRANCH   6  16
HETATM   16  N3  UNL     1      -5.385  -4.352  10.651  1.00  0.00    -0.234 N 
ATOM     17  H32 UNL     1      -6.260  -4.249  11.164  1.00  0.00     0.174 HD
ATOM     18  H31 UNL     1      -5.332  -4.865   9.771  1.00  0.00     0.174 HD
ENDBRANCH   6  16
TORSDOF 4
ENDMDL
MODEL 5
REMARK VINA RESULT: -5.222915122      2.055      3.526
REMARK  4 active torsions:
REMARK  status: ('A' for Active; 'I' for Inactive)
REMARK    1  A    between atoms: O1_2  and  C2_3 
REMARK    2  A    between atoms: C4_5  and  C5_6 
REMARK    3  A    between atoms: C5_6  and  N1_7 
REMARK    4  A    between atoms: C6_13  and  N3_14 
ROOT
HETATM    1  C2  UNL     1      -3.348  -1.648  15.268  1.00  0.00     0.158 A 
HETATM    2  C3  UNL     1      -2.200  -0.935  14.982  1.00  0.00     0.083 A 
HETATM    3  C4  UNL     1      -1.834  -0.686  13.670  1.00  0.00     0.056 A 
HETATM    4  N2  UNL     1      -2.655  -1.175  12.717  1.00  0.00    -0.194 N 
ATOM      5  H2  UNL     1      -2.423  -1.014  11.737  1.00  0.00     0.184 HD
HETATM    6  C6  UNL     1      -3.769  -1.867  13.017  1.00  0.00     0.678 A 
HETATM    7  N4  UNL     1      -4.132  -2.113  14.290  1.00  0.00    -0.171 N 
ATOM      8  H4  UNL     1      -4.980  -2.640  14.502  1.00  0.00     0.186 HD
ENDROOT
BRANCH   3   9
HETATM    9  C5  UNL     1      -0.602   0.080  13.353  1.00  0.00     0.287 C 
BRANCH   9  10
HETATM   10  N1  UNL     1      -0.670   1.396  13.951  1.00  0.00    -0.074 N 
ATOM     11  H13 UNL     1       0.084   2.002  13.629  1.00  0.00     0.274 HD
ATOM     12  H12 UNL     1      -1.458   1.937  13.596  1.00  0.00     0.274 HD
ATOM     13  H11 UNL     1      -0.689   1.315  14.968  1.00  0.00     0.274 HD
ENDBRANCH   9  10
ENDBRANCH   3   9
BRANCH   1  14
HETATM   14  O1  UNL     1      -3.635  -1.847  16.629  1.00  0.00    -0.340 OA
HETATM   15  C1  UNL     1      -2.654  -1.526  17.595  1.00  0.00     0.211 C 
ENDBRANCH   1  14
BRANCH   6  16
HETATM   16  N3  UNL     1      -4.540  -2.325  12.088  1.00  0.00    -0.234 N 
ATOM     17  H32 UNL     1      -4.150  -2.377  11.147  1.00  0.00     0.174 HD
ATOM     18  H31 UNL     1      -5.494  -2.620  12.294  1.00  0.00     0.174 HD
ENDBRANCH   6  16
TORSDOF 4
ENDMDL
