MODEL 1
REMARK VINA RESULT: -4.946670527      0.000      0.000
REMARK  3 active torsions:
REMARK  status: ('A' for Active; 'I' for Inactive)
REMARK    1  A    between atoms: C3_6  and  C4_7 
REMARK    2  A    between atoms: C4_7  and  N2_8 
REMARK    3  A    between atoms: N2_8  and  C5_11 
ROOT
HETATM    1  C4  UNL     1      -3.635  -1.504  14.162  1.00  0.00     0.295 C 
ENDROOT
BRANCH   1   2
HETATM    2  C3  UNL     1      -3.592  -2.623  13.192  1.00  0.00     0.408 C 
HETATM    3  N1  UNL     1      -4.910  -2.850  12.553  1.00  0.00    -0.043 N 
HETATM    4  C2  UNL     1      -4.614  -3.643  11.381  1.00  0.00     0.262 C 
ATOM      5  H12 UNL     1      -5.430  -1.995  12.356  1.00  0.00     0.279 HD
ATOM      6  H11 UNL     1      -5.605  -3.266  13.172  1.00  0.00     0.279 HD
HETATM    7  C1  UNL     1      -3.116  -3.587  11.234  1.00  0.00     0.262 C 
HETATM    8  N4  UNL     1      -2.740  -2.448  12.045  1.00  0.00    -0.043 N 
ATOM      9  H42 UNL     1      -1.744  -2.368  12.249  1.00  0.00     0.279 HD
ATOM     10  H41 UNL     1      -2.812  -1.541  11.582  1.00  0.00     0.279 HD
ENDBRANCH   1   2
BRANCH   1  11
HETATM   11  N2  UNL     1      -3.502  -1.866  15.530  1.00  0.00    -0.064 N 
ATOM     12  H22 UNL     1      -4.196  -1.387  16.104  1.00  0.00     0.277 HD
ATOM     13  H21 UNL     1      -3.796  -2.830  15.683  1.00  0.00     0.277 HD
BRANCH  11  14
HETATM   14  C5  UNL     1      -2.170  -1.645  16.040  1.00  0.00     0.236 C 
HETATM   15  C6  UNL     1      -1.358  -0.529  15.511  1.00  0.00     0.267 C 
HETATM   16  N3  UNL     1      -1.750   0.322  16.624  1.00  0.00    -0.071 N 
HETATM   17  C7  UNL     1      -2.134  -0.855  17.330  1.00  0.00     0.267 C 
ATOM     18  H32 UNL     1      -1.091   0.984  17.032  1.00  0.00     0.277 HD
ATOM     19  H31 UNL     1      -2.410   1.088  16.488  1.00  0.00     0.277 HD
ENDBRANCH  11  14
ENDBRANCH   1  11
TORSDOF 3
ENDMDL
MODEL 2
REMARK VINA RESULT: -4.864051643      2.125      5.224
REMARK  3 active torsions:
REMARK  status: ('A' for Active; 'I' for Inactive)
REMARK    1  A    between atoms: C3_6  and  C4_7 
REMARK    2  A    between atoms: C4_7  and  N2_8 
REMARK    3  A    between atoms: N2_8  and  C5_11 
ROOT
HETATM    1  C4  UNL     1      -2.731  -4.219  14.362  1.00  0.00     0.295 C 
ENDROOT
BRANCH   1   2
HETATM    2  C3  UNL     1      -2.735  -3.950  15.819  1.00  0.00     0.408 C 
HETATM    3  N1  UNL     1      -3.183  -2.570  16.123  1.00  0.00    -0.043 N 
HETATM    4  C2  UNL     1      -3.530  -2.602  17.526  1.00  0.00     0.262 C 
ATOM      5  H12 UNL     1      -3.932  -2.233  15.517  1.00  0.00     0.279 HD
ATOM      6  H11 UNL     1      -2.505  -1.849  15.878  1.00  0.00     0.279 HD
HETATM    7  C1  UNL     1      -3.549  -4.062  17.895  1.00  0.00     0.262 C 
HETATM    8  N4  UNL     1      -3.643  -4.732  16.615  1.00  0.00    -0.043 N 
ATOM      9  H42 UNL     1      -3.455  -5.734  16.633  1.00  0.00     0.279 HD
ATOM     10  H41 UNL     1      -4.587  -4.823  16.239  1.00  0.00     0.279 HD
ENDBRANCH   1   2
BRANCH   1  11
HETATM   11  N2  UNL     1      -3.980  -4.070  13.701  1.00  0.00    -0.064 N 
ATOM     12  H22 UNL     1      -4.354  -4.976  13.418  1.00  0.00     0.277 HD
ATOM     13  H21 UNL     1      -4.708  -3.787  14.357  1.00  0.00     0.277 HD
BRANCH  11  14
HETATM   14  C5  UNL     1      -3.916  -3.165  12.579  1.00  0.00     0.236 C 
HETATM   15  C6  UNL     1      -2.720  -3.158  11.711  1.00  0.00     0.267 C 
HETATM   16  N3  UNL     1      -3.373  -4.039  10.755  1.00  0.00    -0.071 N 
HETATM   17  C7  UNL     1      -4.621  -3.677  11.342  1.00  0.00     0.267 C 
ATOM     18  H32 UNL     1      -3.216  -3.930   9.753  1.00  0.00     0.277 HD
ATOM     19  H31 UNL     1      -3.098  -5.018  10.675  1.00  0.00     0.277 HD
ENDBRANCH  11  14
ENDBRANCH   1  11
TORSDOF 3
ENDMDL
MODEL 3
REMARK VINA RESULT: -4.810231457      2.161      4.957
REMARK  3 active torsions:
REMARK  status: ('A' for Active; 'I' for Inactive)
REMARK    1  A    between atoms: C3_6  and  C4_7 
REMARK    2  A    between atoms: C4_7  and  N2_8 
REMARK    3  A    between atoms: N2_8  and  C5_11 
ROOT
HETATM    1  C4  UNL     1      -2.135  -3.611  14.749  1.00  0.00     0.295 C 
ENDROOT
BRANCH   1   2
HETATM    2  C3  UNL     1      -2.507  -3.725  16.178  1.00  0.00     0.408 C 
HETATM    3  N1  UNL     1      -3.178  -2.499  16.672  1.00  0.00    -0.043 N 
HETATM    4  C2  UNL     1      -3.832  -2.911  17.894  1.00  0.00     0.262 C 
ATOM      5  H12 UNL     1      -3.803  -2.064  15.993  1.00  0.00     0.279 HD
ATOM      6  H11 UNL     1      -2.556  -1.699  16.782  1.00  0.00     0.279 HD
HETATM    7  C1  UNL     1      -3.757  -4.415  17.895  1.00  0.00     0.262 C 
HETATM    8  N4  UNL     1      -3.471  -4.739  16.513  1.00  0.00    -0.043 N 
ATOM      9  H42 UNL     1      -3.172  -5.699  16.344  1.00  0.00     0.279 HD
ATOM     10  H41 UNL     1      -4.285  -4.787  15.900  1.00  0.00     0.279 HD
ENDBRANCH   1   2
BRANCH   1  11
HETATM   11  N2  UNL     1      -2.929  -4.363  13.841  1.00  0.00    -0.064 N 
ATOM     12  H22 UNL     1      -2.499  -5.267  13.642  1.00  0.00     0.277 HD
ATOM     13  H21 UNL     1      -3.789  -4.682  14.286  1.00  0.00     0.277 HD
BRANCH  11  14
HETATM   14  C5  UNL     1      -3.213  -3.648  12.620  1.00  0.00     0.236 C 
HETATM   15  C6  UNL     1      -4.558  -3.737  12.015  1.00  0.00     0.267 C 
HETATM   16  N3  UNL     1      -4.957  -2.489  12.647  1.00  0.00    -0.071 N 
HETATM   17  C7  UNL     1      -3.574  -2.194  12.834  1.00  0.00     0.267 C 
ATOM     18  H32 UNL     1      -5.570  -1.832  12.165  1.00  0.00     0.277 HD
ATOM     19  H31 UNL     1      -5.603  -2.487  13.436  1.00  0.00     0.277 HD
ENDBRANCH  11  14
ENDBRANCH   1  11
TORSDOF 3
ENDMDL
MODEL 4
REMARK VINA RESULT: -4.738211804      1.535      1.988
REMARK  3 active torsions:
REMARK  status: ('A' for Active; 'I' for Inactive)
REMARK    1  A    between atoms: C3_6  and  C4_7 
REMARK    2  A    between atoms: C4_7  and  N2_8 
REMARK    3  A    between atoms: N2_8  and  C5_11 
ROOT
HETATM    1  C4  UNL     1      -3.423  -1.654  14.318  1.00  0.00     0.295 C 
ENDROOT
BRANCH   1   2
HETATM    2  C3  UNL     1      -3.482  -2.704  13.275  1.00  0.00     0.408 C 
HETATM    3  N1  UNL     1      -4.846  -2.845  12.712  1.00  0.00    -0.043 N 
HETATM    4  C2  UNL     1      -4.655  -3.564  11.472  1.00  0.00     0.262 C 
ATOM      5  H12 UNL     1      -5.348  -1.963  12.608  1.00  0.00     0.279 HD
ATOM      6  H11 UNL     1      -5.515  -3.281  13.347  1.00  0.00     0.279 HD
HETATM    7  C1  UNL     1      -3.169  -3.543  11.229  1.00  0.00     0.262 C 
HETATM    8  N4  UNL     1      -2.701  -2.475  12.088  1.00  0.00    -0.043 N 
ATOM      9  H42 UNL     1      -1.692  -2.440  12.229  1.00  0.00     0.279 HD
ATOM     10  H41 UNL     1      -2.771  -1.537  11.693  1.00  0.00     0.279 HD
ENDBRANCH   1   2
BRANCH   1  11
HETATM   11  N2  UNL     1      -3.327  -2.118  15.658  1.00  0.00    -0.064 N 
ATOM     12  H22 UNL     1      -3.042  -1.366  16.286  1.00  0.00     0.277 HD
ATOM     13  H21 UNL     1      -4.251  -2.315  16.043  1.00  0.00     0.277 HD
BRANCH  11  14
HETATM   14  C5  UNL     1      -2.457  -3.261  15.794  1.00  0.00     0.236 C 
HETATM   15  C6  UNL     1      -1.304  -3.198  16.716  1.00  0.00     0.267 C 
HETATM   16  N3  UNL     1      -2.067  -3.860  17.763  1.00  0.00    -0.071 N 
HETATM   17  C7  UNL     1      -2.972  -4.309  16.756  1.00  0.00     0.267 C 
ATOM     18  H32 UNL     1      -1.620  -4.522  18.396  1.00  0.00     0.277 HD
ATOM     19  H31 UNL     1      -2.404  -3.339  18.572  1.00  0.00     0.277 HD
ENDBRANCH  11  14
ENDBRANCH   1  11
TORSDOF 3
ENDMDL
MODEL 5
REMARK VINA RESULT: -4.737759363      1.930      4.739
REMARK  3 active torsions:
REMARK  status: ('A' for Active; 'I' for Inactive)
REMARK    1  A    between atoms: C3_6  and  C4_7 
REMARK    2  A    between atoms: C4_7  and  N2_8 
REMARK    3  A    between atoms: N2_8  and  C5_11 
ROOT
HETATM    1  C4  UNL     1      -3.499  -1.465  13.964  1.00  0.00     0.295 C 
ENDROOT
BRANCH   1   2
HETATM    2  C3  UNL     1      -2.156  -0.872  14.163  1.00  0.00     0.408 C 
HETATM    3  N1  UNL     1      -1.132  -1.907  14.440  1.00  0.00    -0.043 N 
HETATM    4  C2  UNL     1       0.130  -1.245  14.192  1.00  0.00     0.262 C 
ATOM      5  H12 UNL     1      -1.259  -2.771  13.911  1.00  0.00     0.279 HD
ATOM      6  H11 UNL     1      -1.206  -2.328  15.365  1.00  0.00     0.279 HD
HETATM    7  C1  UNL     1      -0.230   0.043  13.500  1.00  0.00     0.262 C 
HETATM    8  N4  UNL     1      -1.580  -0.189  13.034  1.00  0.00    -0.043 N 
ATOM      9  H42 UNL     1      -2.083   0.642  12.724  1.00  0.00     0.279 HD
ATOM     10  H41 UNL     1      -1.655  -0.680  12.143  1.00  0.00     0.279 HD
ENDBRANCH   1   2
BRANCH   1  11
HETATM   11  N2  UNL     1      -3.886  -1.682  12.614  1.00  0.00    -0.064 N 
ATOM     12  H22 UNL     1      -4.875  -1.473  12.479  1.00  0.00     0.277 HD
ATOM     13  H21 UNL     1      -3.482  -0.975  12.000  1.00  0.00     0.277 HD
BRANCH  11  14
HETATM   14  C5  UNL     1      -3.571  -3.011  12.148  1.00  0.00     0.236 C 
HETATM   15  C6  UNL     1      -3.686  -4.158  13.072  1.00  0.00     0.267 C 
HETATM   16  N3  UNL     1      -5.013  -4.471  12.566  1.00  0.00    -0.071 N 
HETATM   17  C7  UNL     1      -4.710  -3.686  11.415  1.00  0.00     0.267 C 
ATOM     18  H32 UNL     1      -5.322  -5.438  12.471  1.00  0.00     0.277 HD
ATOM     19  H31 UNL     1      -5.844  -4.278  13.125  1.00  0.00     0.277 HD
ENDBRANCH  11  14
ENDBRANCH   1  11
TORSDOF 3
ENDMDL
