MODEL 1
REMARK VINA RESULT: -5.010231502      0.000      0.000
REMARK  5 active torsions:
REMARK  status: ('A' for Active; 'I' for Inactive)
REMARK    1  A    between atoms: C2_2  and  N1_3 
REMARK    2  A    between atoms: N1_3  and  C3_5 
REMARK    3  A    between atoms: C3_5  and  C4_6 
REMARK    4  A    between atoms: C4_6  and  N2_7 
REMARK    5  A    between atoms: C4_6  and  N3_11 
ROOT
HETATM    1  C3  UNL     1      -2.973  -3.535  12.205  1.00  0.00     0.108 C 
HETATM    2  C5  UNL     1      -2.298  -2.191  12.562  1.00  0.00     0.064 C 
HETATM    3  C6  UNL     1      -1.694  -2.396  13.934  1.00  0.00     0.235 C 
HETATM    4  N4  UNL     1      -1.906  -3.762  14.304  1.00  0.00    -0.073 N 
ATOM      5  H41 UNL     1      -2.056  -3.890  15.304  1.00  0.00     0.277 HD
ATOM      6  H42 UNL     1      -1.066  -4.336  14.226  1.00  0.00     0.277 HD
HETATM    7  C7  UNL     1      -3.010  -4.246  13.491  1.00  0.00     0.267 C 
ENDROOT
BRANCH   1   8
HETATM    8  N1  UNL     1      -2.376  -4.079  11.078  1.00  0.00    -0.388 N 
ATOM      9  H1  UNL     1      -2.590  -5.051  10.857  1.00  0.00     0.159 HD
BRANCH   8  10
HETATM   10  C2  UNL     1      -1.511  -3.405  10.224  1.00  0.00     0.052 C 
HETATM   11  C1  UNL     1      -0.405  -4.194   9.568  1.00  0.00     0.054 C 
ENDBRANCH   8  10
ENDBRANCH   1   8
BRANCH   1  12
HETATM   12  C4  UNL     1      -4.407  -3.126  11.789  1.00  0.00     0.407 C 
BRANCH  12  13
HETATM   13  N2  UNL     1      -5.051  -2.676  12.991  1.00  0.00    -0.048 N 
ATOM     14  H23 UNL     1      -4.533  -1.946  13.482  1.00  0.00     0.276 HD
ATOM     15  H22 UNL     1      -5.897  -2.133  12.820  1.00  0.00     0.276 HD
ATOM     16  H21 UNL     1      -5.209  -3.512  13.552  1.00  0.00     0.276 HD
ENDBRANCH  12  13
BRANCH  12  17
HETATM   17  N3  UNL     1      -5.117  -4.290  11.279  1.00  0.00    -0.048 N 
ATOM     18  H33 UNL     1      -4.629  -5.160  11.487  1.00  0.00     0.276 HD
ATOM     19  H32 UNL     1      -5.975  -4.475  11.799  1.00  0.00     0.276 HD
ATOM     20  H31 UNL     1      -5.290  -4.174  10.281  1.00  0.00     0.276 HD
ENDBRANCH  12  17
ENDBRANCH   1  12
TORSDOF 5
ENDMDL
MODEL 2
REMARK VINA RESULT: -4.864062504      1.640      3.815
REMARK  5 active torsions:
REMARK  status: ('A' for Active; 'I' for Inactive)
REMARK    1  A    between atoms: C2_2  and  N1_3 
REMARK    2  A    between atoms: N1_3  and  C3_5 
REMARK    3  A    between atoms: C3_5  and  C4_6 
REMARK    4  A    between atoms: C4_6  and  N2_7 
REMARK    5  A    between atoms: C4_6  and  N3_11 
ROOT
HETATM    1  C3  UNL     1      -3.213  -3.320  12.876  1.00  0.00     0.108 C 
HETATM    2  C5  UNL     1      -4.653  -3.556  12.364  1.00  0.00     0.064 C 
HETATM    3  C6  UNL     1      -4.505  -3.941  10.909  1.00  0.00     0.235 C 
HETATM    4  N4  UNL     1      -3.105  -4.022  10.620  1.00  0.00    -0.073 N 
ATOM      5  H41 UNL     1      -2.872  -3.736   9.669  1.00  0.00     0.277 HD
ATOM      6  H42 UNL     1      -2.763  -4.980  10.552  1.00  0.00     0.277 HD
HETATM    7  C7  UNL     1      -2.425  -3.240  11.639  1.00  0.00     0.267 C 
ENDROOT
BRANCH   1   8
HETATM    8  N1  UNL     1      -2.916  -4.225  13.884  1.00  0.00    -0.388 N 
ATOM      9  H1  UNL     1      -3.142  -5.205  13.716  1.00  0.00     0.159 HD
BRANCH   8  10
HETATM   10  C2  UNL     1      -2.336  -3.903  15.105  1.00  0.00     0.052 C 
HETATM   11  C1  UNL     1      -3.001  -4.408  16.361  1.00  0.00     0.054 C 
ENDBRANCH   8  10
ENDBRANCH   1   8
BRANCH   1  12
HETATM   12  C4  UNL     1      -3.286  -1.926  13.545  1.00  0.00     0.407 C 
BRANCH  12  13
HETATM   13  N2  UNL     1      -4.682  -1.598  13.619  1.00  0.00    -0.048 N 
ATOM     14  H23 UNL     1      -5.105  -1.817  14.521  1.00  0.00     0.276 HD
ATOM     15  H22 UNL     1      -4.865  -0.595  13.638  1.00  0.00     0.276 HD
ATOM     16  H21 UNL     1      -5.122  -2.079  12.834  1.00  0.00     0.276 HD
ENDBRANCH  12  13
BRANCH  12  17
HETATM   17  N3  UNL     1      -2.614  -0.946  12.705  1.00  0.00    -0.048 N 
ATOM     18  H33 UNL     1      -2.991  -0.929  11.757  1.00  0.00     0.276 HD
ATOM     19  H32 UNL     1      -2.844   0.011  12.971  1.00  0.00     0.276 HD
ATOM     20  H31 UNL     1      -1.609  -1.118  12.716  1.00  0.00     0.276 HD
ENDBRANCH  12  17
ENDBRANCH   1  12
TORSDOF 5
ENDMDL
MODEL 3
REMARK VINA RESULT: -4.849566047      1.235      1.286
REMARK  5 active torsions:
REMARK  status: ('A' for Active; 'I' for Inactive)
REMARK    1  A    between atoms: C2_2  and  N1_3 
REMARK    2  A    between atoms: N1_3  and  C3_5 
REMARK    3  A    between atoms: C3_5  and  C4_6 
REMARK    4  A    between atoms: C4_6  and  N2_7 
REMARK    5  A    between atoms: C4_6  and  N3_11 
ROOT
HETATM    1  C3  UNL     1      -3.015  -3.008  12.788  1.00  0.00     0.108 C 
HETATM    2  C5  UNL     1      -3.112  -1.947  13.908  1.00  0.00     0.064 C 
HETATM    3  C6  UNL     1      -2.578  -2.624  15.151  1.00  0.00     0.235 C 
HETATM    4  N4  UNL     1      -2.116  -3.925  14.774  1.00  0.00    -0.073 N 
ATOM      5  H41 UNL     1      -2.249  -4.627  15.501  1.00  0.00     0.277 HD
ATOM      6  H42 UNL     1      -1.100  -3.992  14.717  1.00  0.00     0.277 HD
HETATM    7  C7  UNL     1      -2.783  -4.258  13.526  1.00  0.00     0.267 C 
ENDROOT
BRANCH   1   8
HETATM    8  N1  UNL     1      -2.156  -2.568  11.793  1.00  0.00    -0.388 N 
ATOM      9  H1  UNL     1      -2.331  -1.644  11.398  1.00  0.00     0.159 HD
BRANCH   8  10
HETATM   10  C2  UNL     1      -1.076  -3.283  11.291  1.00  0.00     0.052 C 
HETATM   11  C1  UNL     1       0.286  -3.025  11.886  1.00  0.00     0.054 C 
ENDBRANCH   8  10
ENDBRANCH   1   8
BRANCH   1  12
HETATM   12  C4  UNL     1      -4.434  -3.019  12.169  1.00  0.00     0.407 C 
BRANCH  12  13
HETATM   13  N2  UNL     1      -5.275  -2.327  13.104  1.00  0.00    -0.048 N 
ATOM     14  H23 UNL     1      -5.438  -2.845  13.968  1.00  0.00     0.276 HD
ATOM     15  H22 UNL     1      -4.829  -1.515  13.530  1.00  0.00     0.276 HD
ATOM     16  H21 UNL     1      -6.131  -2.102  12.596  1.00  0.00     0.276 HD
ENDBRANCH  12  13
BRANCH  12  17
HETATM   17  N3  UNL     1      -4.900  -4.391  12.040  1.00  0.00    -0.048 N 
ATOM     18  H33 UNL     1      -5.732  -4.462  11.455  1.00  0.00     0.276 HD
ATOM     19  H32 UNL     1      -4.272  -4.959  11.471  1.00  0.00     0.276 HD
ATOM     20  H31 UNL     1      -5.047  -4.791  12.967  1.00  0.00     0.276 HD
ENDBRANCH  12  17
ENDBRANCH   1  12
TORSDOF 5
ENDMDL
MODEL 4
REMARK VINA RESULT: -4.809969524      1.192      1.209
REMARK  5 active torsions:
REMARK  status: ('A' for Active; 'I' for Inactive)
REMARK    1  A    between atoms: C2_2  and  N1_3 
REMARK    2  A    between atoms: N1_3  and  C3_5 
REMARK    3  A    between atoms: C3_5  and  C4_6 
REMARK    4  A    between atoms: C4_6  and  N2_7 
REMARK    5  A    between atoms: C4_6  and  N3_11 
ROOT
HETATM    1  C3  UNL     1      -3.179  -2.991  12.565  1.00  0.00     0.108 C 
HETATM    2  C5  UNL     1      -3.515  -1.629  13.215  1.00  0.00     0.064 C 
HETATM    3  C6  UNL     1      -3.040  -1.739  14.648  1.00  0.00     0.235 C 
HETATM    4  N4  UNL     1      -2.395  -3.007  14.796  1.00  0.00    -0.073 N 
ATOM      5  H41 UNL     1      -2.522  -3.419  15.720  1.00  0.00     0.277 HD
ATOM      6  H42 UNL     1      -1.377  -2.941  14.826  1.00  0.00     0.277 HD
HETATM    7  C7  UNL     1      -2.884  -3.852  13.719  1.00  0.00     0.267 C 
ENDROOT
BRANCH   1   8
HETATM    8  N1  UNL     1      -2.276  -2.809  11.529  1.00  0.00    -0.388 N 
ATOM      9  H1  UNL     1      -2.638  -2.431  10.653  1.00  0.00     0.159 HD
BRANCH   8  10
HETATM   10  C2  UNL     1      -0.919  -3.101  11.586  1.00  0.00     0.052 C 
HETATM   11  C1  UNL     1      -0.221  -3.485  10.306  1.00  0.00     0.054 C 
ENDBRANCH   8  10
ENDBRANCH   1   8
BRANCH   1  12
HETATM   12  C4  UNL     1      -4.514  -3.425  11.913  1.00  0.00     0.407 C 
BRANCH  12  13
HETATM   13  N2  UNL     1      -5.113  -4.357  12.827  1.00  0.00    -0.048 N 
ATOM     14  H23 UNL     1      -5.982  -4.020  13.241  1.00  0.00     0.276 HD
ATOM     15  H22 UNL     1      -5.506  -5.180  12.371  1.00  0.00     0.276 HD
ATOM     16  H21 UNL     1      -4.392  -4.576  13.514  1.00  0.00     0.276 HD
ENDBRANCH  12  13
BRANCH  12  17
HETATM   17  N3  UNL     1      -4.244  -4.105  10.655  1.00  0.00    -0.048 N 
ATOM     18  H33 UNL     1      -3.501  -3.651  10.124  1.00  0.00     0.276 HD
ATOM     19  H32 UNL     1      -3.793  -5.009  10.795  1.00  0.00     0.276 HD
ATOM     20  H31 UNL     1      -5.107  -4.184  10.117  1.00  0.00     0.276 HD
ENDBRANCH  12  17
ENDBRANCH   1  12
TORSDOF 5
ENDMDL
MODEL 5
REMARK VINA RESULT: -4.718112819      2.159      3.630
REMARK  5 active torsions:
REMARK  status: ('A' for Active; 'I' for Inactive)
REMARK    1  A    between atoms: C2_2  and  N1_3 
REMARK    2  A    between atoms: N1_3  and  C3_5 
REMARK    3  A    between atoms: C3_5  and  C4_6 
REMARK    4  A    between atoms: C4_6  and  N2_7 
REMARK    5  A    between atoms: C4_6  and  N3_11 
ROOT
HETATM    1  C3  UNL     1      -3.044  -3.026  13.938  1.00  0.00     0.108 C 
HETATM    2  C5  UNL     1      -1.597  -3.164  13.412  1.00  0.00     0.064 C 
HETATM    3  C6  UNL     1      -0.879  -1.916  13.876  1.00  0.00     0.235 C 
HETATM    4  N4  UNL     1      -1.790  -1.165  14.684  1.00  0.00    -0.073 N 
ATOM      5  H41 UNL     1      -1.667  -0.156  14.600  1.00  0.00     0.277 HD
ATOM      6  H42 UNL     1      -1.594  -1.234  15.683  1.00  0.00     0.277 HD
HETATM    7  C7  UNL     1      -3.127  -1.612  14.329  1.00  0.00     0.267 C 
ENDROOT
BRANCH   1   8
HETATM    8  N1  UNL     1      -3.325  -4.055  14.823  1.00  0.00    -0.388 N 
ATOM      9  H1  UNL     1      -3.981  -4.773  14.514  1.00  0.00     0.159 HD
BRANCH   8  10
HETATM   10  C2  UNL     1      -2.787  -4.188  16.097  1.00  0.00     0.052 C 
HETATM   11  C1  UNL     1      -3.540  -5.022  17.103  1.00  0.00     0.054 C 
ENDBRANCH   8  10
ENDBRANCH   1   8
BRANCH   1  12
HETATM   12  C4  UNL     1      -3.916  -3.276  12.682  1.00  0.00     0.407 C 
BRANCH  12  13
HETATM   13  N2  UNL     1      -4.528  -2.015  12.372  1.00  0.00    -0.048 N 
ATOM     14  H23 UNL     1      -4.361  -1.296  13.077  1.00  0.00     0.276 HD
ATOM     15  H22 UNL     1      -4.086  -1.528  11.593  1.00  0.00     0.276 HD
ATOM     16  H21 UNL     1      -5.517  -2.215  12.220  1.00  0.00     0.276 HD
ENDBRANCH  12  13
BRANCH  12  17
HETATM   17  N3  UNL     1      -4.958  -4.243  12.997  1.00  0.00    -0.048 N 
ATOM     18  H33 UNL     1      -4.583  -5.180  13.138  1.00  0.00     0.276 HD
ATOM     19  H32 UNL     1      -5.348  -4.098  13.928  1.00  0.00     0.276 HD
ATOM     20  H31 UNL     1      -5.674  -4.220  12.272  1.00  0.00     0.276 HD
ENDBRANCH  12  17
ENDBRANCH   1  12
TORSDOF 5
ENDMDL
