MODEL 1
REMARK VINA RESULT: -4.836688043      0.000      0.000
REMARK  6 active torsions:
REMARK  status: ('A' for Active; 'I' for Inactive)
REMARK    1  A    between atoms: N1_2  and  C2_3 
REMARK    2  A    between atoms: N1_2  and  C3_10 
REMARK    3  A    between atoms: C2_3  and  O1_4 
REMARK    4  A    between atoms: C2_3  and  N2_6 
REMARK    5  A    between atoms: N2_6  and  N3_7 
REMARK    6  A    between atoms: C6_13  and  N4_14 
ROOT
HETATM    1  C1  UNL     1      -1.572   0.171  15.453  1.00  0.00     0.147 C 
HETATM    2  N1  UNL     1      -1.895  -1.156  15.750  1.00  0.00    -0.371 N 
ENDROOT
BRANCH   2   3
HETATM    3  C2  UNL     1      -2.392  -1.434  17.047  1.00  0.00     0.334 C 
BRANCH   3   4
HETATM    4  O1  UNL     1      -2.151  -0.339  17.894  1.00  0.00    -0.362 OA
ATOM      5  H1  UNL     1      -2.721  -0.386  18.652  1.00  0.00     0.213 HD
ENDBRANCH   3   4
BRANCH   3   6
HETATM    6  N2  UNL     1      -3.817  -1.722  17.015  1.00  0.00    -0.095 NA
BRANCH   6   7
HETATM    7  N3  UNL     1      -4.173  -2.752  17.893  1.00  0.00    -0.344 N 
ATOM      8  H32 UNL     1      -4.754  -3.543  17.614  1.00  0.00     0.172 HD
ATOM      9  H31 UNL     1      -3.788  -2.617  18.828  1.00  0.00     0.172 HD
ENDBRANCH   6   7
ENDBRANCH   3   6
ENDBRANCH   2   3
BRANCH   2  10
HETATM   10  C3  UNL     1      -1.623  -2.191  14.875  1.00  0.00     0.113 C 
HETATM   11  C4  UNL     1      -1.962  -3.610  15.247  1.00  0.00     0.029 C 
HETATM   12  C5  UNL     1      -2.001  -3.861  13.739  1.00  0.00     0.037 C 
HETATM   13  C6  UNL     1      -2.506  -2.407  13.649  1.00  0.00     0.206 C 
BRANCH  13  14
HETATM   14  N4  UNL     1      -3.915  -2.398  13.862  1.00  0.00    -0.073 N 
ATOM     15  H43 UNL     1      -4.143  -2.984  14.664  1.00  0.00     0.274 HD
ATOM     16  H42 UNL     1      -4.201  -1.483  14.211  1.00  0.00     0.274 HD
ATOM     17  H41 UNL     1      -4.501  -2.660  13.070  1.00  0.00     0.274 HD
ENDBRANCH  13  14
ENDBRANCH   2  10
TORSDOF 6
ENDMDL
MODEL 2
REMARK VINA RESULT: -4.828147880      1.249      1.672
REMARK  6 active torsions:
REMARK  status: ('A' for Active; 'I' for Inactive)
REMARK    1  A    between atoms: N1_2  and  C2_3 
REMARK    2  A    between atoms: N1_2  and  C3_10 
REMARK    3  A    between atoms: C2_3  and  O1_4 
REMARK    4  A    between atoms: C2_3  and  N2_6 
REMARK    5  A    between atoms: N2_6  and  N3_7 
REMARK    6  A    between atoms: C6_13  and  N4_14 
ROOT
HETATM    1  C1  UNL     1      -0.785  -2.847  16.629  1.00  0.00     0.147 C 
HETATM    2  N1  UNL     1      -1.661  -1.768  16.474  1.00  0.00    -0.371 N 
ENDROOT
BRANCH   2   3
HETATM    3  C2  UNL     1      -2.427  -1.380  17.600  1.00  0.00     0.334 C 
BRANCH   3   4
HETATM    4  O1  UNL     1      -2.293   0.002  17.815  1.00  0.00    -0.362 OA
ATOM      5  H1  UNL     1      -2.420   0.199  18.735  1.00  0.00     0.213 HD
ENDBRANCH   3   4
BRANCH   3   6
HETATM    6  N2  UNL     1      -3.831  -1.714  17.423  1.00  0.00    -0.095 NA
BRANCH   6   7
HETATM    7  N3  UNL     1      -4.140  -2.995  17.894  1.00  0.00    -0.344 N 
ATOM      8  H32 UNL     1      -3.433  -3.645  18.236  1.00  0.00     0.172 HD
ATOM      9  H31 UNL     1      -5.139  -3.194  17.855  1.00  0.00     0.172 HD
ENDBRANCH   6   7
ENDBRANCH   3   6
ENDBRANCH   2   3
BRANCH   2  10
HETATM   10  C3  UNL     1      -1.884  -1.175  15.246  1.00  0.00     0.113 C 
HETATM   11  C4  UNL     1      -1.096  -1.608  14.039  1.00  0.00     0.029 C 
HETATM   12  C5  UNL     1      -2.282  -1.077  13.232  1.00  0.00     0.037 C 
HETATM   13  C6  UNL     1      -3.128  -1.532  14.438  1.00  0.00     0.206 C 
BRANCH  13  14
HETATM   14  N4  UNL     1      -3.424  -2.917  14.293  1.00  0.00    -0.073 N 
ATOM     15  H43 UNL     1      -3.802  -3.280  15.168  1.00  0.00     0.274 HD
ATOM     16  H42 UNL     1      -4.231  -3.032  13.680  1.00  0.00     0.274 HD
ATOM     17  H41 UNL     1      -2.665  -3.519  13.974  1.00  0.00     0.274 HD
ENDBRANCH  13  14
ENDBRANCH   2  10
TORSDOF 6
ENDMDL
MODEL 3
REMARK VINA RESULT: -4.821267230      2.831      3.593
REMARK  6 active torsions:
REMARK  status: ('A' for Active; 'I' for Inactive)
REMARK    1  A    between atoms: N1_2  and  C2_3 
REMARK    2  A    between atoms: N1_2  and  C3_10 
REMARK    3  A    between atoms: C2_3  and  O1_4 
REMARK    4  A    between atoms: C2_3  and  N2_6 
REMARK    5  A    between atoms: N2_6  and  N3_7 
REMARK    6  A    between atoms: C6_13  and  N4_14 
ROOT
HETATM    1  C1  UNL     1      -2.460  -1.672  15.121  1.00  0.00     0.147 C 
HETATM    2  N1  UNL     1      -2.157  -1.814  13.764  1.00  0.00    -0.371 N 
ENDROOT
BRANCH   2   3
HETATM    3  C2  UNL     1      -1.331  -0.828  13.172  1.00  0.00     0.334 C 
BRANCH   3   4
HETATM    4  O1  UNL     1      -2.102   0.004  12.342  1.00  0.00    -0.362 OA
ATOM      5  H1  UNL     1      -1.667   0.841  12.232  1.00  0.00     0.213 HD
ENDBRANCH   3   4
BRANCH   3   6
HETATM    6  N2  UNL     1      -0.662  -0.025  14.183  1.00  0.00    -0.095 NA
BRANCH   6   7
HETATM    7  N3  UNL     1      -0.922   1.342  14.037  1.00  0.00    -0.344 N 
ATOM      8  H32 UNL     1      -1.021   1.794  13.129  1.00  0.00     0.172 HD
ATOM      9  H31 UNL     1      -1.000   1.821  14.934  1.00  0.00     0.172 HD
ENDBRANCH   6   7
ENDBRANCH   3   6
ENDBRANCH   2   3
BRANCH   2  10
HETATM   10  C3  UNL     1      -2.737  -2.795  12.982  1.00  0.00     0.113 C 
HETATM   11  C4  UNL     1      -3.308  -4.035  13.617  1.00  0.00     0.029 C 
HETATM   12  C5  UNL     1      -4.181  -4.119  12.364  1.00  0.00     0.037 C 
HETATM   13  C6  UNL     1      -4.126  -2.579  12.388  1.00  0.00     0.206 C 
BRANCH  13  14
HETATM   14  N4  UNL     1      -5.135  -2.099  13.271  1.00  0.00    -0.073 N 
ATOM     15  H43 UNL     1      -6.027  -2.053  12.779  1.00  0.00     0.274 HD
ATOM     16  H42 UNL     1      -5.344  -2.811  13.971  1.00  0.00     0.274 HD
ATOM     17  H41 UNL     1      -4.955  -1.208  13.734  1.00  0.00     0.274 HD
ENDBRANCH  13  14
ENDBRANCH   2  10
TORSDOF 6
ENDMDL
MODEL 4
REMARK VINA RESULT: -4.811681423      2.560      3.531
REMARK  6 active torsions:
REMARK  status: ('A' for Active; 'I' for Inactive)
REMARK    1  A    between atoms: N1_2  and  C2_3 
REMARK    2  A    between atoms: N1_2  and  C3_10 
REMARK    3  A    between atoms: C2_3  and  O1_4 
REMARK    4  A    between atoms: C2_3  and  N2_6 
REMARK    5  A    between atoms: N2_6  and  N3_7 
REMARK    6  A    between atoms: C6_13  and  N4_14 
ROOT
HETATM    1  C1  UNL     1      -0.669  -2.337  13.115  1.00  0.00     0.147 C 
HETATM    2  N1  UNL     1      -1.810  -2.056  13.873  1.00  0.00    -0.371 N 
ENDROOT
BRANCH   2   3
HETATM    3  C2  UNL     1      -2.864  -1.360  13.233  1.00  0.00     0.334 C 
BRANCH   3   4
HETATM    4  O1  UNL     1      -2.337  -0.410  12.342  1.00  0.00    -0.362 OA
ATOM      5  H1  UNL     1      -2.903  -0.331  11.584  1.00  0.00     0.213 HD
ENDBRANCH   3   4
BRANCH   3   6
HETATM    6  N2  UNL     1      -3.738  -2.272  12.513  1.00  0.00    -0.095 NA
BRANCH   6   7
HETATM    7  N3  UNL     1      -5.062  -2.211  12.963  1.00  0.00    -0.344 N 
ATOM      8  H32 UNL     1      -5.854  -2.064  12.337  1.00  0.00     0.172 HD
ATOM      9  H31 UNL     1      -5.136  -2.329  13.973  1.00  0.00     0.172 HD
ENDBRANCH   6   7
ENDBRANCH   3   6
ENDBRANCH   2   3
BRANCH   2  10
HETATM   10  C3  UNL     1      -1.874  -2.319  15.228  1.00  0.00     0.113 C 
HETATM   11  C4  UNL     1      -3.035  -1.820  16.045  1.00  0.00     0.029 C 
HETATM   12  C5  UNL     1      -2.695  -2.969  16.996  1.00  0.00     0.037 C 
HETATM   13  C6  UNL     1      -2.256  -3.713  15.719  1.00  0.00     0.206 C 
BRANCH  13  14
HETATM   14  N4  UNL     1      -3.402  -4.313  15.121  1.00  0.00    -0.073 N 
ATOM     15  H43 UNL     1      -3.441  -4.064  14.133  1.00  0.00     0.274 HD
ATOM     16  H42 UNL     1      -3.264  -5.321  15.056  1.00  0.00     0.274 HD
ATOM     17  H41 UNL     1      -4.303  -4.119  15.558  1.00  0.00     0.274 HD
ENDBRANCH  13  14
ENDBRANCH   2  10
TORSDOF 6
ENDMDL
MODEL 5
REMARK VINA RESULT: -4.698065123      2.627      4.025
REMARK  6 active torsions:
REMARK  status: ('A' for Active; 'I' for Inactive)
REMARK    1  A    between atoms: N1_2  and  C2_3 
REMARK    2  A    between atoms: N1_2  and  C3_10 
REMARK    3  A    between atoms: C2_3  and  O1_4 
REMARK    4  A    between atoms: C2_3  and  N2_6 
REMARK    5  A    between atoms: N2_6  and  N3_7 
REMARK    6  A    between atoms: C6_13  and  N4_14 
ROOT
HETATM    1  C1  UNL     1      -2.697  -4.042  15.802  1.00  0.00     0.147 C 
HETATM    2  N1  UNL     1      -2.758  -3.151  14.727  1.00  0.00    -0.371 N 
ENDROOT
BRANCH   2   3
HETATM    3  C2  UNL     1      -2.957  -3.697  13.435  1.00  0.00     0.334 C 
BRANCH   3   4
HETATM    4  O1  UNL     1      -2.264  -4.914  13.320  1.00  0.00    -0.362 OA
ATOM      5  H1  UNL     1      -2.279  -5.209  12.417  1.00  0.00     0.213 HD
ENDBRANCH   3   4
BRANCH   3   6
HETATM    6  N2  UNL     1      -4.370  -3.914  13.167  1.00  0.00    -0.095 NA
BRANCH   6   7
HETATM    7  N3  UNL     1      -5.002  -2.766  12.675  1.00  0.00    -0.344 N 
ATOM      8  H32 UNL     1      -4.490  -1.938  12.370  1.00  0.00     0.172 HD
ATOM      9  H31 UNL     1      -6.018  -2.858  12.658  1.00  0.00     0.172 HD
ENDBRANCH   6   7
ENDBRANCH   3   6
ENDBRANCH   2   3
BRANCH   2  10
HETATM   10  C3  UNL     1      -2.503  -1.801  14.877  1.00  0.00     0.113 C 
HETATM   11  C4  UNL     1      -2.165  -1.238  16.232  1.00  0.00     0.029 C 
HETATM   12  C5  UNL     1      -1.472  -0.120  15.453  1.00  0.00     0.037 C 
HETATM   13  C6  UNL     1      -1.171  -1.218  14.413  1.00  0.00     0.206 C 
BRANCH  13  14
HETATM   14  N4  UNL     1       0.008  -1.912  14.809  1.00  0.00    -0.073 N 
ATOM     15  H43 UNL     1       0.576  -1.310  15.404  1.00  0.00     0.274 HD
ATOM     16  H42 UNL     1      -0.236  -2.650  15.469  1.00  0.00     0.274 HD
ATOM     17  H41 UNL     1       0.586  -2.299  14.063  1.00  0.00     0.274 HD
ENDBRANCH  13  14
ENDBRANCH   2  10
TORSDOF 6
ENDMDL
