MODEL 1
REMARK VINA RESULT: -5.398062570      0.000      0.000
REMARK  2 active torsions:
REMARK  status: ('A' for Active; 'I' for Inactive)
REMARK    1  A    between atoms: N1_1  and  N2_4 
REMARK    2  A    between atoms: N2_4  and  C1_6 
ROOT
HETATM    1  C1  UNL     1      -3.532  -1.930  13.901  1.00  0.00     0.049 A 
HETATM    2  C2  UNL     1      -3.403  -1.442  15.185  1.00  0.00     0.033 A 
HETATM    3  C3  UNL     1      -2.164  -1.515  15.777  1.00  0.00     0.031 A 
HETATM    4  C4  UNL     1      -1.084  -2.058  15.110  1.00  0.00     0.070 A 
HETATM    5  N3  UNL     1       0.189  -2.118  15.752  1.00  0.00    -0.100 NA
HETATM    6  C5  UNL     1      -1.196  -2.551  13.821  1.00  0.00     0.072 A 
HETATM    7  N4  UNL     1      -0.089  -3.113  13.120  1.00  0.00    -0.100 NA
HETATM    8  C6  UNL     1      -2.447  -2.469  13.243  1.00  0.00     0.059 A 
ENDROOT
BRANCH   1   9
HETATM    9  N2  UNL     1      -4.799  -1.874  13.250  1.00  0.00    -0.307 N 
ATOM     10  H2  UNL     1      -5.529  -1.260  13.612  1.00  0.00     0.186 HD
BRANCH   9  11
HETATM   11  N1  UNL     1      -5.045  -2.656  12.118  1.00  0.00    -0.345 N 
ATOM     12  H12 UNL     1      -5.998  -2.718  11.760  1.00  0.00     0.176 HD
ATOM     13  H11 UNL     1      -4.281  -3.155  11.661  1.00  0.00     0.176 HD
ENDBRANCH   9  11
ENDBRANCH   1   9
TORSDOF 2
ENDMDL
MODEL 2
REMARK VINA RESULT: -5.396393809      1.350      1.364
REMARK  2 active torsions:
REMARK  status: ('A' for Active; 'I' for Inactive)
REMARK    1  A    between atoms: N1_1  and  N2_4 
REMARK    2  A    between atoms: N2_4  and  C1_6 
ROOT
HETATM    1  C1  UNL     1      -3.853  -1.932  13.321  1.00  0.00     0.049 A 
HETATM    2  C2  UNL     1      -3.709  -1.963  14.692  1.00  0.00     0.033 A 
HETATM    3  C3  UNL     1      -2.506  -1.554  15.220  1.00  0.00     0.031 A 
HETATM    4  C4  UNL     1      -1.478  -1.125  14.406  1.00  0.00     0.070 A 
HETATM    5  N3  UNL     1      -0.243  -0.706  14.985  1.00  0.00    -0.100 NA
HETATM    6  C5  UNL     1      -1.606  -1.087  13.027  1.00  0.00     0.072 A 
HETATM    7  N4  UNL     1      -0.552  -0.645  12.176  1.00  0.00    -0.100 NA
HETATM    8  C6  UNL     1      -2.819  -1.501  12.516  1.00  0.00     0.059 A 
ENDROOT
BRANCH   1   9
HETATM    9  N2  UNL     1      -5.082  -2.347  12.732  1.00  0.00    -0.307 N 
ATOM     10  H2  UNL     1      -5.953  -2.257  13.256  1.00  0.00     0.186 HD
BRANCH   9  11
HETATM   11  N1  UNL     1      -5.101  -2.878  11.438  1.00  0.00    -0.345 N 
ATOM     12  H12 UNL     1      -4.802  -3.843  11.298  1.00  0.00     0.176 HD
ATOM     13  H11 UNL     1      -5.408  -2.306  10.652  1.00  0.00     0.176 HD
ENDBRANCH   9  11
ENDBRANCH   1   9
TORSDOF 2
ENDMDL
MODEL 3
REMARK VINA RESULT: -5.396157700      1.131      1.425
REMARK  2 active torsions:
REMARK  status: ('A' for Active; 'I' for Inactive)
REMARK    1  A    between atoms: N1_1  and  N2_4 
REMARK    2  A    between atoms: N2_4  and  C1_6 
ROOT
HETATM    1  C1  UNL     1      -3.754  -2.522  12.513  1.00  0.00     0.049 A 
HETATM    2  C2  UNL     1      -3.850  -1.869  13.724  1.00  0.00     0.033 A 
HETATM    3  C3  UNL     1      -2.684  -1.611  14.408  1.00  0.00     0.031 A 
HETATM    4  C4  UNL     1      -1.459  -1.993  13.901  1.00  0.00     0.070 A 
HETATM    5  N3  UNL     1      -0.268  -1.710  14.634  1.00  0.00    -0.100 NA
HETATM    6  C5  UNL     1      -1.345  -2.649  12.686  1.00  0.00     0.072 A 
HETATM    7  N4  UNL     1      -0.085  -3.048  12.151  1.00  0.00    -0.100 NA
HETATM    8  C6  UNL     1      -2.524  -2.899  12.015  1.00  0.00     0.059 A 
ENDROOT
BRANCH   1   9
HETATM    9  N2  UNL     1      -4.936  -2.809  11.772  1.00  0.00    -0.307 N 
ATOM     10  H2  UNL     1      -5.761  -2.219  11.884  1.00  0.00     0.186 HD
BRANCH   9  11
HETATM   11  N1  UNL     1      -4.971  -3.894  10.891  1.00  0.00    -0.345 N 
ATOM     12  H12 UNL     1      -4.150  -4.496  10.819  1.00  0.00     0.176 HD
ATOM     13  H11 UNL     1      -5.804  -4.077  10.333  1.00  0.00     0.176 HD
ENDBRANCH   9  11
ENDBRANCH   1   9
TORSDOF 2
ENDMDL
MODEL 4
REMARK VINA RESULT: -5.393658999      2.084      2.805
REMARK  2 active torsions:
REMARK  status: ('A' for Active; 'I' for Inactive)
REMARK    1  A    between atoms: N1_1  and  N2_4 
REMARK    2  A    between atoms: N2_4  and  C1_6 
ROOT
HETATM    1  C1  UNL     1      -3.198  -3.384  11.967  1.00  0.00     0.049 A 
HETATM    2  C2  UNL     1      -2.138  -2.512  12.100  1.00  0.00     0.033 A 
HETATM    3  C3  UNL     1      -1.668  -2.262  13.368  1.00  0.00     0.031 A 
HETATM    4  C4  UNL     1      -2.237  -2.864  14.472  1.00  0.00     0.070 A 
HETATM    5  N3  UNL     1      -1.726  -2.584  15.775  1.00  0.00    -0.100 NA
HETATM    6  C5  UNL     1      -3.302  -3.742  14.357  1.00  0.00     0.072 A 
HETATM    7  N4  UNL     1      -3.898  -4.371  15.488  1.00  0.00    -0.100 NA
HETATM    8  C6  UNL     1      -3.759  -3.981  13.076  1.00  0.00     0.059 A 
ENDROOT
BRANCH   1   9
HETATM    9  N2  UNL     1      -3.716  -3.672  10.671  1.00  0.00    -0.307 N 
ATOM     10  H2  UNL     1      -3.117  -3.572   9.851  1.00  0.00     0.186 HD
BRANCH   9  11
HETATM   11  N1  UNL     1      -5.042  -4.089  10.518  1.00  0.00    -0.345 N 
ATOM     12  H12 UNL     1      -5.687  -3.976  11.300  1.00  0.00     0.176 HD
ATOM     13  H11 UNL     1      -5.354  -4.498   9.638  1.00  0.00     0.176 HD
ENDBRANCH   9  11
ENDBRANCH   1   9
TORSDOF 2
ENDMDL
MODEL 5
REMARK VINA RESULT: -5.375999661      1.722      1.951
REMARK  2 active torsions:
REMARK  status: ('A' for Active; 'I' for Inactive)
REMARK    1  A    between atoms: N1_1  and  N2_4 
REMARK    2  A    between atoms: N2_4  and  C1_6 
ROOT
HETATM    1  C1  UNL     1      -3.748  -3.386  12.977  1.00  0.00     0.049 A 
HETATM    2  C2  UNL     1      -3.397  -3.755  14.259  1.00  0.00     0.033 A 
HETATM    3  C3  UNL     1      -2.404  -3.036  14.884  1.00  0.00     0.031 A 
HETATM    4  C4  UNL     1      -1.779  -1.981  14.250  1.00  0.00     0.070 A 
HETATM    5  N3  UNL     1      -0.753  -1.255  14.926  1.00  0.00    -0.100 NA
HETATM    6  C5  UNL     1      -2.119  -1.598  12.963  1.00  0.00     0.072 A 
HETATM    7  N4  UNL     1      -1.482  -0.510  12.298  1.00  0.00    -0.100 NA
HETATM    8  C6  UNL     1      -3.117  -2.330  12.352  1.00  0.00     0.059 A 
ENDROOT
BRANCH   1   9
HETATM    9  N2  UNL     1      -4.771  -4.104  12.292  1.00  0.00    -0.307 N 
ATOM     10  H2  UNL     1      -5.375  -4.743  12.809  1.00  0.00     0.186 HD
BRANCH   9  11
HETATM   11  N1  UNL     1      -4.951  -3.935  10.916  1.00  0.00    -0.345 N 
ATOM     12  H12 UNL     1      -4.995  -4.761  10.320  1.00  0.00     0.176 HD
ATOM     13  H11 UNL     1      -5.036  -2.999  10.519  1.00  0.00     0.176 HD
ENDBRANCH   9  11
ENDBRANCH   1   9
TORSDOF 2
ENDMDL
