MODEL 1
REMARK VINA RESULT: -5.029258586      0.000      0.000
REMARK  3 active torsions:
REMARK  status: ('A' for Active; 'I' for Inactive)
REMARK    1  A    between atoms: C2_2  and  N1_4 
REMARK    2  A    between atoms: N1_4  and  N2_5 
REMARK    3  A    between atoms: N2_5  and  C4_7 
ROOT
HETATM    1  C4  UNL     1      -2.848  -2.215  12.369  1.00  0.00     0.133 A 
HETATM    2  C5  UNL     1      -4.047  -1.871  12.973  1.00  0.00     0.138 A 
HETATM    3  N3  UNL     1      -5.029  -2.585  12.397  1.00  0.00    -0.358 N 
ATOM      4  H3  UNL     1      -6.018  -2.537  12.642  1.00  0.00     0.166 HD
HETATM    5  C6  UNL     1      -4.500  -3.365  11.454  1.00  0.00     0.182 A 
HETATM    6  N4  UNL     1      -3.175  -3.135  11.442  1.00  0.00    -0.337 N 
ATOM      7  H4  UNL     1      -2.510  -3.593  10.819  1.00  0.00     0.168 HD
ENDROOT
BRANCH   1   8
HETATM    8  N2  UNL     1      -1.556  -1.714  12.657  1.00  0.00    -0.288 N 
ATOM      9  H2  UNL     1      -0.850  -2.329  13.062  1.00  0.00     0.184 HD
BRANCH   8  10
HETATM   10  N1  UNL     1      -1.251  -0.397  12.392  1.00  0.00    -0.136 NA
BRANCH  10  11
HETATM   11  C2  UNL     1      -0.555   0.273  13.456  1.00  0.00     0.091 C 
HETATM   12  C1  UNL     1      -0.652  -0.635  14.684  1.00  0.00     0.029 C 
HETATM   13  C3  UNL     1       0.942   0.394  13.163  1.00  0.00     0.029 C 
ENDBRANCH  10  11
ENDBRANCH   8  10
ENDBRANCH   1   8
TORSDOF 3
ENDMDL
MODEL 2
REMARK VINA RESULT: -4.884963297      2.669      3.572
REMARK  3 active torsions:
REMARK  status: ('A' for Active; 'I' for Inactive)
REMARK    1  A    between atoms: C2_2  and  N1_4 
REMARK    2  A    between atoms: N1_4  and  N2_5 
REMARK    3  A    between atoms: N2_5  and  C4_7 
ROOT
HETATM    1  C4  UNL     1      -3.182  -3.140  11.251  1.00  0.00     0.133 A 
HETATM    2  C5  UNL     1      -4.518  -3.431  11.478  1.00  0.00     0.138 A 
HETATM    3  N3  UNL     1      -4.957  -2.643  12.474  1.00  0.00    -0.358 N 
ATOM      4  H3  UNL     1      -5.904  -2.640  12.853  1.00  0.00     0.166 HD
HETATM    5  C6  UNL     1      -3.954  -1.867  12.885  1.00  0.00     0.182 A 
HETATM    6  N4  UNL     1      -2.879  -2.174  12.138  1.00  0.00    -0.337 N 
ATOM      7  H4  UNL     1      -1.962  -1.737  12.231  1.00  0.00     0.168 HD
ENDROOT
BRANCH   1   8
HETATM    8  N2  UNL     1      -2.317  -3.725  10.296  1.00  0.00    -0.288 N 
ATOM      9  H2  UNL     1      -2.473  -4.685   9.989  1.00  0.00     0.184 HD
BRANCH   8  10
HETATM   10  N1  UNL     1      -1.265  -3.000   9.781  1.00  0.00    -0.136 NA
BRANCH  10  11
HETATM   11  C2  UNL     1       0.032  -3.512  10.130  1.00  0.00     0.091 C 
HETATM   12  C1  UNL     1       0.466  -4.426   8.982  1.00  0.00     0.029 C 
HETATM   13  C3  UNL     1       1.083  -2.400  10.178  1.00  0.00     0.029 C 
ENDBRANCH  10  11
ENDBRANCH   8  10
ENDBRANCH   1   8
TORSDOF 3
ENDMDL
MODEL 3
REMARK VINA RESULT: -4.862739719      0.991      1.482
REMARK  3 active torsions:
REMARK  status: ('A' for Active; 'I' for Inactive)
REMARK    1  A    between atoms: C2_2  and  N1_4 
REMARK    2  A    between atoms: N1_4  and  N2_5 
REMARK    3  A    between atoms: N2_5  and  C4_7 
ROOT
HETATM    1  C4  UNL     1      -2.888  -1.949  12.611  1.00  0.00     0.133 A 
HETATM    2  C5  UNL     1      -4.150  -1.810  13.168  1.00  0.00     0.138 A 
HETATM    3  N3  UNL     1      -4.993  -2.620  12.507  1.00  0.00    -0.358 N 
ATOM      4  H3  UNL     1      -5.990  -2.725  12.702  1.00  0.00     0.166 HD
HETATM    5  C6  UNL     1      -4.317  -3.265  11.555  1.00  0.00     0.182 A 
HETATM    6  N4  UNL     1      -3.039  -2.852  11.624  1.00  0.00    -0.337 N 
ATOM      7  H4  UNL     1      -2.289  -3.177  11.015  1.00  0.00     0.168 HD
ENDROOT
BRANCH   1   8
HETATM    8  N2  UNL     1      -1.696  -1.289  12.991  1.00  0.00    -0.288 N 
ATOM      9  H2  UNL     1      -1.462  -1.188  13.979  1.00  0.00     0.184 HD
BRANCH   8  10
HETATM   10  N1  UNL     1      -0.849  -0.784  12.029  1.00  0.00    -0.136 NA
BRANCH  10  11
HETATM   11  C2  UNL     1       0.545  -0.864  12.368  1.00  0.00     0.091 C 
HETATM   12  C1  UNL     1       1.320  -0.820  11.049  1.00  0.00     0.029 C 
HETATM   13  C3  UNL     1       1.009   0.370  13.147  1.00  0.00     0.029 C 
ENDBRANCH  10  11
ENDBRANCH   8  10
ENDBRANCH   1   8
TORSDOF 3
ENDMDL
MODEL 4
REMARK VINA RESULT: -4.834293853      2.276      3.046
REMARK  3 active torsions:
REMARK  status: ('A' for Active; 'I' for Inactive)
REMARK    1  A    between atoms: C2_2  and  N1_4 
REMARK    2  A    between atoms: N1_4  and  N2_5 
REMARK    3  A    between atoms: N2_5  and  C4_7 
ROOT
HETATM    1  C4  UNL     1      -3.945  -2.393  12.391  1.00  0.00     0.133 A 
HETATM    2  C5  UNL     1      -2.838  -2.945  11.766  1.00  0.00     0.138 A 
HETATM    3  N3  UNL     1      -3.269  -3.750  10.781  1.00  0.00    -0.358 N 
ATOM      4  H3  UNL     1      -2.673  -4.289  10.153  1.00  0.00     0.166 HD
HETATM    5  C6  UNL     1      -4.603  -3.730  10.758  1.00  0.00     0.182 A 
HETATM    6  N4  UNL     1      -5.006  -2.904  11.739  1.00  0.00    -0.337 N 
ATOM      7  H4  UNL     1      -5.980  -2.693  11.959  1.00  0.00     0.168 HD
ENDROOT
BRANCH   1   8
HETATM    8  N2  UNL     1      -3.966  -1.488  13.479  1.00  0.00    -0.288 N 
ATOM      9  H2  UNL     1      -3.570  -0.553  13.371  1.00  0.00     0.184 HD
BRANCH   8  10
HETATM   10  N1  UNL     1      -4.518  -1.867  14.682  1.00  0.00    -0.136 NA
BRANCH  10  11
HETATM   11  C2  UNL     1      -3.585  -1.902  15.775  1.00  0.00     0.091 C 
HETATM   12  C1  UNL     1      -2.965  -3.301  15.776  1.00  0.00     0.029 C 
HETATM   13  C3  UNL     1      -2.414  -0.944  15.549  1.00  0.00     0.029 C 
ENDBRANCH  10  11
ENDBRANCH   8  10
ENDBRANCH   1   8
TORSDOF 3
ENDMDL
MODEL 5
REMARK VINA RESULT: -4.782098800      2.433      2.747
REMARK  3 active torsions:
REMARK  status: ('A' for Active; 'I' for Inactive)
REMARK    1  A    between atoms: C2_2  and  N1_4 
REMARK    2  A    between atoms: N1_4  and  N2_5 
REMARK    3  A    between atoms: N2_5  and  C4_7 
ROOT
HETATM    1  C4  UNL     1      -2.663  -2.823  11.906  1.00  0.00     0.133 A 
HETATM    2  C5  UNL     1      -3.603  -2.121  12.644  1.00  0.00     0.138 A 
HETATM    3  N3  UNL     1      -4.822  -2.586  12.324  1.00  0.00    -0.358 N 
ATOM      4  H3  UNL     1      -5.704  -2.253  12.714  1.00  0.00     0.166 HD
HETATM    5  C6  UNL     1      -4.692  -3.552  11.413  1.00  0.00     0.182 A 
HETATM    6  N4  UNL     1      -3.377  -3.690  11.164  1.00  0.00    -0.337 N 
ATOM      7  H4  UNL     1      -2.977  -4.358  10.506  1.00  0.00     0.168 HD
ENDROOT
BRANCH   1   8
HETATM    8  N2  UNL     1      -1.256  -2.669  11.922  1.00  0.00    -0.288 N 
ATOM      9  H2  UNL     1      -0.785  -2.385  12.781  1.00  0.00     0.184 HD
BRANCH   8  10
HETATM   10  N1  UNL     1      -0.523  -2.901  10.780  1.00  0.00    -0.136 NA
BRANCH  10  11
HETATM   11  C2  UNL     1       0.891  -2.697  10.934  1.00  0.00     0.091 C 
HETATM   12  C1  UNL     1       1.574  -3.489   9.816  1.00  0.00     0.029 C 
HETATM   13  C3  UNL     1       1.281  -1.237  10.687  1.00  0.00     0.029 C 
ENDBRANCH  10  11
ENDBRANCH   8  10
ENDBRANCH   1   8
TORSDOF 3
ENDMDL
