MODEL 1
REMARK VINA RESULT: -5.291741491      0.000      0.000
REMARK  3 active torsions:
REMARK  status: ('A' for Active; 'I' for Inactive)
REMARK    1  A    between atoms: N1_2  and  N2_4 
REMARK    2  A    between atoms: N2_4  and  N3_6 
REMARK    3  A    between atoms: N3_6  and  C2_8 
ROOT
HETATM    1  C2  UNL     1      -3.211  -1.712  13.502  1.00  0.00     0.122 A 
HETATM    2  C3  UNL     1      -2.463  -1.458  14.636  1.00  0.00     0.053 A 
HETATM    3  C4  UNL     1      -1.228  -0.977  14.236  1.00  0.00     0.049 A 
HETATM    4  C5  UNL     1      -1.284  -0.960  12.843  1.00  0.00     0.117 A 
HETATM    5  N4  UNL     1      -0.205  -0.526  12.022  1.00  0.00    -0.083 NA
HETATM    6  N5  UNL     1      -2.469  -1.399  12.420  1.00  0.00    -0.330 N 
ATOM      7  H5  UNL     1      -2.763  -1.483  11.447  1.00  0.00     0.168 HD
ENDROOT
BRANCH   1   8
HETATM    8  N3  UNL     1      -4.549  -2.221  13.481  1.00  0.00    -0.271 N 
ATOM      9  H3  UNL     1      -5.068  -2.312  14.355  1.00  0.00     0.190 HD
BRANCH   8  10
HETATM   10  N2  UNL     1      -5.106  -2.564  12.375  1.00  0.00    -0.246 N 
ATOM     11  H2  UNL     1      -5.757  -1.946  11.892  1.00  0.00     0.208 HD
BRANCH  10  12
HETATM   12  N1  UNL     1      -4.781  -3.811  11.868  1.00  0.00    -0.326 N 
HETATM   13  C1  UNL     1      -4.700  -3.997  10.446  1.00  0.00     0.169 C 
ATOM     14  H1  UNL     1      -4.601  -4.591  12.499  1.00  0.00     0.181 HD
ENDBRANCH  10  12
ENDBRANCH   8  10
ENDBRANCH   1   8
TORSDOF 3
ENDMDL
MODEL 2
REMARK VINA RESULT: -5.209476923      1.260      1.269
REMARK  3 active torsions:
REMARK  status: ('A' for Active; 'I' for Inactive)
REMARK    1  A    between atoms: N1_2  and  N2_4 
REMARK    2  A    between atoms: N2_4  and  N3_6 
REMARK    3  A    between atoms: N3_6  and  C2_8 
ROOT
HETATM    1  C2  UNL     1      -2.882  -1.972  12.711  1.00  0.00     0.122 A 
HETATM    2  C3  UNL     1      -2.401  -1.885  14.004  1.00  0.00     0.053 A 
HETATM    3  C4  UNL     1      -1.069  -2.263  13.992  1.00  0.00     0.049 A 
HETATM    4  C5  UNL     1      -0.795  -2.569  12.660  1.00  0.00     0.117 A 
HETATM    5  N4  UNL     1       0.480  -3.007  12.204  1.00  0.00    -0.083 NA
HETATM    6  N5  UNL     1      -1.881  -2.391  11.909  1.00  0.00    -0.330 N 
ATOM      7  H5  UNL     1      -1.945  -2.545  10.903  1.00  0.00     0.168 HD
ENDROOT
BRANCH   1   8
HETATM    8  N3  UNL     1      -4.217  -1.666  12.295  1.00  0.00    -0.271 N 
ATOM      9  H3  UNL     1      -4.442  -0.724  11.975  1.00  0.00     0.190 HD
BRANCH   8  10
HETATM   10  N2  UNL     1      -5.135  -2.564  12.318  1.00  0.00    -0.246 N 
ATOM     11  H2  UNL     1      -6.066  -2.365  12.685  1.00  0.00     0.208 HD
BRANCH  10  12
HETATM   12  N1  UNL     1      -4.806  -3.814  11.822  1.00  0.00    -0.326 N 
HETATM   13  C1  UNL     1      -4.816  -4.038  10.403  1.00  0.00     0.169 C 
ATOM     14  H1  UNL     1      -4.558  -4.571  12.459  1.00  0.00     0.181 HD
ENDBRANCH  10  12
ENDBRANCH   8  10
ENDBRANCH   1   8
TORSDOF 3
ENDMDL
MODEL 3
REMARK VINA RESULT: -5.087371311      1.112      1.230
REMARK  3 active torsions:
REMARK  status: ('A' for Active; 'I' for Inactive)
REMARK    1  A    between atoms: N1_2  and  N2_4 
REMARK    2  A    between atoms: N2_4  and  N3_6 
REMARK    3  A    between atoms: N3_6  and  C2_8 
ROOT
HETATM    1  C2  UNL     1      -3.139  -1.775  14.260  1.00  0.00     0.122 A 
HETATM    2  C3  UNL     1      -2.961  -1.308  15.549  1.00  0.00     0.053 A 
HETATM    3  C4  UNL     1      -1.788  -0.573  15.581  1.00  0.00     0.049 A 
HETATM    4  C5  UNL     1      -1.296  -0.628  14.277  1.00  0.00     0.117 A 
HETATM    5  N4  UNL     1      -0.089   0.007  13.869  1.00  0.00    -0.083 NA
HETATM    6  N5  UNL     1      -2.109  -1.345  13.502  1.00  0.00    -0.330 N 
ATOM      7  H5  UNL     1      -1.975  -1.535  12.509  1.00  0.00     0.168 HD
ENDROOT
BRANCH   1   8
HETATM    8  N3  UNL     1      -4.234  -2.578  13.807  1.00  0.00    -0.271 N 
ATOM      9  H3  UNL     1      -4.303  -3.551  14.106  1.00  0.00     0.190 HD
BRANCH   8  10
HETATM   10  N2  UNL     1      -5.132  -2.089  13.029  1.00  0.00    -0.246 N 
ATOM     11  H2  UNL     1      -5.840  -1.441  13.373  1.00  0.00     0.208 HD
BRANCH  10  12
HETATM   12  N1  UNL     1      -5.095  -2.481  11.701  1.00  0.00    -0.326 N 
HETATM   13  C1  UNL     1      -4.275  -3.594  11.314  1.00  0.00     0.169 C 
ATOM     14  H1  UNL     1      -5.647  -1.982  11.004  1.00  0.00     0.181 HD
ENDBRANCH  10  12
ENDBRANCH   8  10
ENDBRANCH   1   8
TORSDOF 3
ENDMDL
MODEL 4
REMARK VINA RESULT: -4.992218486      1.516      1.866
REMARK  3 active torsions:
REMARK  status: ('A' for Active; 'I' for Inactive)
REMARK    1  A    between atoms: N1_2  and  N2_4 
REMARK    2  A    between atoms: N2_4  and  N3_6 
REMARK    3  A    between atoms: N3_6  and  C2_8 
ROOT
HETATM    1  C2  UNL     1      -1.995  -1.610  12.735  1.00  0.00     0.122 A 
HETATM    2  C3  UNL     1      -1.051  -0.610  12.869  1.00  0.00     0.053 A 
HETATM    3  C4  UNL     1       0.147  -1.079  12.358  1.00  0.00     0.049 A 
HETATM    4  C5  UNL     1      -0.131  -2.375  11.926  1.00  0.00     0.117 A 
HETATM    5  N4  UNL     1       0.841  -3.225  11.326  1.00  0.00    -0.083 NA
HETATM    6  N5  UNL     1      -1.408  -2.679  12.155  1.00  0.00    -0.330 N 
ATOM      7  H5  UNL     1      -1.863  -3.563  11.931  1.00  0.00     0.168 HD
ENDROOT
BRANCH   1   8
HETATM    8  N3  UNL     1      -3.365  -1.526  13.142  1.00  0.00    -0.271 N 
ATOM      9  H3  UNL     1      -3.592  -1.457  14.134  1.00  0.00     0.190 HD
BRANCH   8  10
HETATM   10  N2  UNL     1      -4.312  -1.537  12.274  1.00  0.00    -0.246 N 
ATOM     11  H2  UNL     1      -4.528  -0.714  11.711  1.00  0.00     0.208 HD
BRANCH  10  12
HETATM   12  N1  UNL     1      -5.026  -2.714  12.135  1.00  0.00    -0.326 N 
HETATM   13  C1  UNL     1      -4.649  -3.656  11.118  1.00  0.00     0.169 C 
ATOM     14  H1  UNL     1      -5.814  -2.912  12.751  1.00  0.00     0.181 HD
ENDBRANCH  10  12
ENDBRANCH   8  10
ENDBRANCH   1   8
TORSDOF 3
ENDMDL
MODEL 5
REMARK VINA RESULT: -4.961461877      1.683      1.986
REMARK  3 active torsions:
REMARK  status: ('A' for Active; 'I' for Inactive)
REMARK    1  A    between atoms: N1_2  and  N2_4 
REMARK    2  A    between atoms: N2_4  and  N3_6 
REMARK    3  A    between atoms: N3_6  and  C2_8 
ROOT
HETATM    1  C2  UNL     1      -2.325  -1.670  13.579  1.00  0.00     0.122 A 
HETATM    2  C3  UNL     1      -2.891  -1.457  14.821  1.00  0.00     0.053 A 
HETATM    3  C4  UNL     1      -1.904  -1.625  15.777  1.00  0.00     0.049 A 
HETATM    4  C5  UNL     1      -0.754  -1.940  15.054  1.00  0.00     0.117 A 
HETATM    5  N4  UNL     1       0.507  -2.194  15.662  1.00  0.00    -0.083 NA
HETATM    6  N5  UNL     1      -1.018  -1.963  13.748  1.00  0.00    -0.330 N 
ATOM      7  H5  UNL     1      -0.349  -2.166  13.006  1.00  0.00     0.168 HD
ENDROOT
BRANCH   1   8
HETATM    8  N3  UNL     1      -3.009  -1.592  12.324  1.00  0.00    -0.271 N 
ATOM      9  H3  UNL     1      -2.477  -1.643  11.455  1.00  0.00     0.190 HD
BRANCH   8  10
HETATM   10  N2  UNL     1      -4.286  -1.458  12.278  1.00  0.00    -0.246 N 
ATOM     11  H2  UNL     1      -4.732  -0.550  12.410  1.00  0.00     0.208 HD
BRANCH  10  12
HETATM   12  N1  UNL     1      -5.031  -2.600  12.041  1.00  0.00    -0.326 N 
HETATM   13  C1  UNL     1      -4.484  -3.645  11.220  1.00  0.00     0.169 C 
ATOM     14  H1  UNL     1      -5.961  -2.700  12.447  1.00  0.00     0.181 HD
ENDBRANCH  10  12
ENDBRANCH   8  10
ENDBRANCH   1   8
TORSDOF 3
ENDMDL
