MODEL 1
REMARK VINA RESULT: -4.911528846      0.000      0.000
REMARK  4 active torsions:
REMARK  status: ('A' for Active; 'I' for Inactive)
REMARK    1  A    between atoms: N1_1  and  N2_4 
REMARK    2  A    between atoms: N2_4  and  C1_6 
REMARK    3  A    between atoms: C4_9  and  O1_10 
REMARK    4  A    between atoms: O1_10  and  N3_11 
ROOT
HETATM    1  C1  UNL     1      -3.399  -3.021  11.737  1.00  0.00     0.047 A 
HETATM    2  C2  UNL     1      -2.041  -2.783  11.915  1.00  0.00     0.034 A 
HETATM    3  C3  UNL     1      -1.596  -2.060  13.011  1.00  0.00     0.041 A 
HETATM    4  C4  UNL     1      -2.516  -1.590  13.908  1.00  0.00     0.098 A 
HETATM    5  C5  UNL     1      -3.875  -1.822  13.741  1.00  0.00     0.041 A 
HETATM    6  C6  UNL     1      -4.312  -2.545  12.645  1.00  0.00     0.034 A 
ENDROOT
BRANCH   1   7
HETATM    7  N2  UNL     1      -3.815  -3.764  10.607  1.00  0.00    -0.307 N 
ATOM      8  H2  UNL     1      -3.107  -4.014   9.917  1.00  0.00     0.186 HD
BRANCH   7   9
HETATM    9  N1  UNL     1      -5.109  -4.171  10.372  1.00  0.00    -0.345 N 
ATOM     10  H12 UNL     1      -5.748  -3.470   9.998  1.00  0.00     0.176 HD
ATOM     11  H11 UNL     1      -5.460  -5.113  10.546  1.00  0.00     0.176 HD
ENDBRANCH   7   9
ENDBRANCH   1   7
BRANCH   4  12
HETATM   12  O1  UNL     1      -2.101  -0.872  15.000  1.00  0.00    -0.245 OA
BRANCH  12  13
HETATM   13  N3  UNL     1      -1.008  -0.063  14.910  1.00  0.00    -0.305 N 
ATOM     14  H32 UNL     1      -1.126   0.943  15.031  1.00  0.00     0.184 HD
ATOM     15  H31 UNL     1      -0.090  -0.465  14.724  1.00  0.00     0.184 HD
ENDBRANCH  12  13
ENDBRANCH   4  12
TORSDOF 4
ENDMDL
MODEL 2
REMARK VINA RESULT: -4.895219604      1.725      4.328
REMARK  4 active torsions:
REMARK  status: ('A' for Active; 'I' for Inactive)
REMARK    1  A    between atoms: N1_1  and  N2_4 
REMARK    2  A    between atoms: N2_4  and  C1_6 
REMARK    3  A    between atoms: C4_9  and  O1_10 
REMARK    4  A    between atoms: O1_10  and  N3_11 
ROOT
HETATM    1  C1  UNL     1      -1.649  -0.966  14.053  1.00  0.00     0.047 A 
HETATM    2  C2  UNL     1      -1.644  -1.531  12.783  1.00  0.00     0.034 A 
HETATM    3  C3  UNL     1      -2.582  -2.495  12.443  1.00  0.00     0.041 A 
HETATM    4  C4  UNL     1      -3.505  -2.874  13.379  1.00  0.00     0.098 A 
HETATM    5  C5  UNL     1      -3.519  -2.317  14.651  1.00  0.00     0.041 A 
HETATM    6  C6  UNL     1      -2.581  -1.356  14.983  1.00  0.00     0.034 A 
ENDROOT
BRANCH   1   7
HETATM    7  N2  UNL     1      -0.677   0.015  14.363  1.00  0.00    -0.307 N 
ATOM      8  H2  UNL     1      -0.122  -0.119  15.209  1.00  0.00     0.186 HD
BRANCH   7   9
HETATM    9  N1  UNL     1      -0.427   1.136  13.605  1.00  0.00    -0.345 N 
ATOM     10  H12 UNL     1       0.518   1.518  13.651  1.00  0.00     0.176 HD
ATOM     11  H11 UNL     1      -1.115   1.598  13.010  1.00  0.00     0.176 HD
ENDBRANCH   7   9
ENDBRANCH   1   7
BRANCH   4  12
HETATM   12  O1  UNL     1      -4.442  -3.825  13.067  1.00  0.00    -0.245 OA
BRANCH  12  13
HETATM   13  N3  UNL     1      -4.785  -4.044  11.767  1.00  0.00    -0.305 N 
ATOM     14  H32 UNL     1      -4.657  -3.294  11.088  1.00  0.00     0.184 HD
ATOM     15  H31 UNL     1      -5.163  -4.948  11.484  1.00  0.00     0.184 HD
ENDBRANCH  12  13
ENDBRANCH   4  12
TORSDOF 4
ENDMDL
MODEL 3
REMARK VINA RESULT: -4.887273222      1.726      4.495
REMARK  4 active torsions:
REMARK  status: ('A' for Active; 'I' for Inactive)
REMARK    1  A    between atoms: N1_1  and  N2_4 
REMARK    2  A    between atoms: N2_4  and  C1_6 
REMARK    3  A    between atoms: C4_9  and  O1_10 
REMARK    4  A    between atoms: O1_10  and  N3_11 
ROOT
HETATM    1  C1  UNL     1      -1.628  -0.979  13.998  1.00  0.00     0.047 A 
HETATM    2  C2  UNL     1      -2.574  -1.353  14.945  1.00  0.00     0.034 A 
HETATM    3  C3  UNL     1      -3.523  -2.318  14.643  1.00  0.00     0.041 A 
HETATM    4  C4  UNL     1      -3.507  -2.891  13.401  1.00  0.00     0.098 A 
HETATM    5  C5  UNL     1      -2.566  -2.526  12.447  1.00  0.00     0.041 A 
HETATM    6  C6  UNL     1      -1.622  -1.563  12.755  1.00  0.00     0.034 A 
ENDROOT
BRANCH   1   7
HETATM    7  N2  UNL     1      -0.675   0.008  14.343  1.00  0.00    -0.307 N 
ATOM      8  H2  UNL     1      -0.135  -0.132  15.197  1.00  0.00     0.186 HD
BRANCH   7   9
HETATM    9  N1  UNL     1      -0.426   1.145  13.608  1.00  0.00    -0.345 N 
ATOM     10  H12 UNL     1       0.502   1.558  13.705  1.00  0.00     0.176 HD
ATOM     11  H11 UNL     1      -1.098   1.591  12.984  1.00  0.00     0.176 HD
ENDBRANCH   7   9
ENDBRANCH   1   7
BRANCH   4  12
HETATM   12  O1  UNL     1      -4.434  -3.848  13.077  1.00  0.00    -0.245 OA
BRANCH  12  13
HETATM   13  N3  UNL     1      -4.785  -4.044  11.775  1.00  0.00    -0.305 N 
ATOM     14  H32 UNL     1      -4.442  -4.873  11.289  1.00  0.00     0.184 HD
ATOM     15  H31 UNL     1      -5.383  -3.367  11.300  1.00  0.00     0.184 HD
ENDBRANCH  12  13
ENDBRANCH   4  12
TORSDOF 4
ENDMDL
MODEL 4
REMARK VINA RESULT: -4.862896469      1.134      1.311
REMARK  4 active torsions:
REMARK  status: ('A' for Active; 'I' for Inactive)
REMARK    1  A    between atoms: N1_1  and  N2_4 
REMARK    2  A    between atoms: N2_4  and  C1_6 
REMARK    3  A    between atoms: C4_9  and  O1_10 
REMARK    4  A    between atoms: O1_10  and  N3_11 
ROOT
HETATM    1  C1  UNL     1      -3.683  -2.869  12.799  1.00  0.00     0.047 A 
HETATM    2  C2  UNL     1      -2.506  -2.836  12.061  1.00  0.00     0.034 A 
HETATM    3  C3  UNL     1      -1.450  -2.032  12.462  1.00  0.00     0.041 A 
HETATM    4  C4  UNL     1      -1.590  -1.278  13.595  1.00  0.00     0.098 A 
HETATM    5  C5  UNL     1      -2.761  -1.303  14.342  1.00  0.00     0.041 A 
HETATM    6  C6  UNL     1      -3.811  -2.107  13.935  1.00  0.00     0.034 A 
ENDROOT
BRANCH   1   7
HETATM    7  N2  UNL     1      -4.739  -3.701  12.358  1.00  0.00    -0.307 N 
ATOM      8  H2  UNL     1      -5.339  -4.120  13.068  1.00  0.00     0.186 HD
BRANCH   7   9
HETATM    9  N1  UNL     1      -5.013  -3.984  11.039  1.00  0.00    -0.345 N 
ATOM     10  H12 UNL     1      -4.334  -4.564  10.546  1.00  0.00     0.176 HD
ATOM     11  H11 UNL     1      -5.837  -3.656  10.535  1.00  0.00     0.176 HD
ENDBRANCH   7   9
ENDBRANCH   1   7
BRANCH   4  12
HETATM   12  O1  UNL     1      -0.560  -0.476  14.014  1.00  0.00    -0.245 OA
BRANCH  12  13
HETATM   13  N3  UNL     1      -0.574   0.857  13.726  1.00  0.00    -0.305 N 
ATOM     14  H32 UNL     1      -1.182   1.473  14.265  1.00  0.00     0.184 HD
ATOM     15  H31 UNL     1       0.019   1.223  12.982  1.00  0.00     0.184 HD
ENDBRANCH  12  13
ENDBRANCH   4  12
TORSDOF 4
ENDMDL
MODEL 5
REMARK VINA RESULT: -4.799662825      1.150      1.874
REMARK  4 active torsions:
REMARK  status: ('A' for Active; 'I' for Inactive)
REMARK    1  A    between atoms: N1_1  and  N2_4 
REMARK    2  A    between atoms: N2_4  and  C1_6 
REMARK    3  A    between atoms: C4_9  and  O1_10 
REMARK    4  A    between atoms: O1_10  and  N3_11 
ROOT
HETATM    1  C1  UNL     1      -3.605  -2.988  12.769  1.00  0.00     0.047 A 
HETATM    2  C2  UNL     1      -3.705  -2.231  13.931  1.00  0.00     0.034 A 
HETATM    3  C3  UNL     1      -2.665  -1.398  14.315  1.00  0.00     0.041 A 
HETATM    4  C4  UNL     1      -1.546  -1.338  13.530  1.00  0.00     0.098 A 
HETATM    5  C5  UNL     1      -1.435  -2.088  12.368  1.00  0.00     0.041 A 
HETATM    6  C6  UNL     1      -2.476  -2.917  11.990  1.00  0.00     0.034 A 
ENDROOT
BRANCH   1   7
HETATM    7  N2  UNL     1      -4.687  -3.826  12.409  1.00  0.00    -0.307 N 
ATOM      8  H2  UNL     1      -5.223  -4.256  13.162  1.00  0.00     0.186 HD
BRANCH   7   9
HETATM    9  N1  UNL     1      -5.065  -4.102  11.115  1.00  0.00    -0.345 N 
ATOM     10  H12 UNL     1      -5.329  -3.304  10.536  1.00  0.00     0.176 HD
ATOM     11  H11 UNL     1      -5.098  -5.036  10.707  1.00  0.00     0.176 HD
ENDBRANCH   7   9
ENDBRANCH   1   7
BRANCH   4  12
HETATM   12  O1  UNL     1      -0.504  -0.521  13.888  1.00  0.00    -0.245 OA
BRANCH  12  13
HETATM   13  N3  UNL     1      -0.644   0.833  13.821  1.00  0.00    -0.305 N 
ATOM     14  H32 UNL     1      -1.557   1.224  13.589  1.00  0.00     0.184 HD
ATOM     15  H31 UNL     1       0.157   1.438  14.000  1.00  0.00     0.184 HD
ENDBRANCH  12  13
ENDBRANCH   4  12
TORSDOF 4
ENDMDL
