MODEL 1
REMARK VINA RESULT: -5.446710866      0.000      0.000
REMARK  2 active torsions:
REMARK  status: ('A' for Active; 'I' for Inactive)
REMARK    1  A    between atoms: C5_5  and  N1_6 
REMARK    2  A    between atoms: N1_6  and  N2_8 
ROOT
HETATM    1  C1  UNL     1      -2.041  -0.761  15.267  1.00  0.00     0.068 C 
HETATM    2  C2  UNL     1      -2.458  -1.540  14.059  1.00  0.00     0.006 A 
HETATM    3  C3  UNL     1      -3.787  -1.870  13.895  1.00  0.00     0.027 A 
HETATM    4  C4  UNL     1      -4.209  -2.592  12.789  1.00  0.00     0.036 A 
HETATM    5  C5  UNL     1      -3.300  -2.991  11.832  1.00  0.00     0.088 A 
HETATM    6  C6  UNL     1      -1.959  -2.641  12.029  1.00  0.00     0.144 A 
HETATM    7  N3  UNL     1      -1.043  -3.058  11.042  1.00  0.00    -0.080 NA
HETATM    8  N4  UNL     1      -1.586  -1.940  13.117  1.00  0.00    -0.347 N 
ATOM      9  H4  UNL     1      -0.601  -1.702  13.231  1.00  0.00     0.167 HD
ENDROOT
BRANCH   5  10
HETATM   10  N1  UNL     1      -3.694  -3.731  10.687  1.00  0.00    -0.304 N 
ATOM     11  H1  UNL     1      -3.008  -4.008   9.986  1.00  0.00     0.186 HD
BRANCH  10  12
HETATM   12  N2  UNL     1      -5.026  -4.067  10.543  1.00  0.00    -0.345 N 
ATOM     13  H22 UNL     1      -5.493  -3.911   9.649  1.00  0.00     0.176 HD
ATOM     14  H21 UNL     1      -5.518  -4.469  11.341  1.00  0.00     0.176 HD
ENDBRANCH  10  12
ENDBRANCH   5  10
TORSDOF 2
ENDMDL
MODEL 2
REMARK VINA RESULT: -5.428617243      1.069      1.197
REMARK  2 active torsions:
REMARK  status: ('A' for Active; 'I' for Inactive)
REMARK    1  A    between atoms: C5_5  and  N1_6 
REMARK    2  A    between atoms: N1_6  and  N2_8 
ROOT
HETATM    1  C1  UNL     1      -0.522  -1.888  15.313  1.00  0.00     0.068 C 
HETATM    2  C2  UNL     1      -1.628  -2.104  14.328  1.00  0.00     0.006 A 
HETATM    3  C3  UNL     1      -2.913  -1.729  14.665  1.00  0.00     0.027 A 
HETATM    4  C4  UNL     1      -3.963  -1.915  13.778  1.00  0.00     0.036 A 
HETATM    5  C5  UNL     1      -3.734  -2.480  12.541  1.00  0.00     0.088 A 
HETATM    6  C6  UNL     1      -2.420  -2.849  12.231  1.00  0.00     0.144 A 
HETATM    7  N3  UNL     1      -2.205  -3.425  10.963  1.00  0.00    -0.080 NA
HETATM    8  N4  UNL     1      -1.426  -2.654  13.119  1.00  0.00    -0.347 N 
ATOM      9  H4  UNL     1      -0.480  -2.935  12.863  1.00  0.00     0.167 HD
ENDROOT
BRANCH   5  10
HETATM   10  N1  UNL     1      -4.783  -2.686  11.607  1.00  0.00    -0.304 N 
ATOM     11  H1  UNL     1      -5.338  -1.902  11.266  1.00  0.00     0.186 HD
BRANCH  10  12
HETATM   12  N2  UNL     1      -5.035  -3.972  11.169  1.00  0.00    -0.345 N 
ATOM     13  H22 UNL     1      -4.339  -4.703  11.317  1.00  0.00     0.176 HD
ATOM     14  H21 UNL     1      -5.921  -4.163  10.702  1.00  0.00     0.176 HD
ENDBRANCH  10  12
ENDBRANCH   5  10
TORSDOF 2
ENDMDL
MODEL 3
REMARK VINA RESULT: -5.370295661      1.078      1.123
REMARK  2 active torsions:
REMARK  status: ('A' for Active; 'I' for Inactive)
REMARK    1  A    between atoms: C5_5  and  N1_6 
REMARK    2  A    between atoms: N1_6  and  N2_8 
ROOT
HETATM    1  C1  UNL     1      -0.821  -0.276  13.772  1.00  0.00     0.068 C 
HETATM    2  C2  UNL     1      -1.795  -1.290  13.261  1.00  0.00     0.006 A 
HETATM    3  C3  UNL     1      -2.988  -1.476  13.929  1.00  0.00     0.027 A 
HETATM    4  C4  UNL     1      -3.914  -2.407  13.484  1.00  0.00     0.036 A 
HETATM    5  C5  UNL     1      -3.653  -3.164  12.361  1.00  0.00     0.088 A 
HETATM    6  C6  UNL     1      -2.434  -2.951  11.707  1.00  0.00     0.144 A 
HETATM    7  N3  UNL     1      -2.184  -3.733  10.562  1.00  0.00    -0.080 NA
HETATM    8  N4  UNL     1      -1.558  -2.037  12.170  1.00  0.00    -0.347 N 
ATOM      9  H4  UNL     1      -0.678  -1.907  11.671  1.00  0.00     0.167 HD
ENDROOT
BRANCH   5  10
HETATM   10  N1  UNL     1      -4.576  -4.126  11.875  1.00  0.00    -0.304 N 
ATOM     11  H1  UNL     1      -4.864  -4.912  12.458  1.00  0.00     0.186 HD
BRANCH  10  12
HETATM   12  N2  UNL     1      -5.076  -3.977  10.596  1.00  0.00    -0.345 N 
ATOM     13  H22 UNL     1      -5.292  -4.803  10.038  1.00  0.00     0.176 HD
ATOM     14  H21 UNL     1      -5.219  -3.034  10.235  1.00  0.00     0.176 HD
ENDBRANCH  10  12
ENDBRANCH   5  10
TORSDOF 2
ENDMDL
MODEL 4
REMARK VINA RESULT: -5.359228205      1.801      2.301
REMARK  2 active torsions:
REMARK  status: ('A' for Active; 'I' for Inactive)
REMARK    1  A    between atoms: C5_5  and  N1_6 
REMARK    2  A    between atoms: N1_6  and  N2_8 
ROOT
HETATM    1  C1  UNL     1      -0.722  -0.747  14.798  1.00  0.00     0.068 C 
HETATM    2  C2  UNL     1      -1.778  -1.628  14.208  1.00  0.00     0.006 A 
HETATM    3  C3  UNL     1      -2.183  -1.416  12.906  1.00  0.00     0.027 A 
HETATM    4  C4  UNL     1      -3.158  -2.212  12.326  1.00  0.00     0.036 A 
HETATM    5  C5  UNL     1      -3.740  -3.233  13.048  1.00  0.00     0.088 A 
HETATM    6  C6  UNL     1      -3.307  -3.421  14.366  1.00  0.00     0.144 A 
HETATM    7  N3  UNL     1      -3.913  -4.469  15.088  1.00  0.00    -0.080 NA
HETATM    8  N4  UNL     1      -2.357  -2.626  14.895  1.00  0.00    -0.347 N 
ATOM      9  H4  UNL     1      -2.065  -2.789  15.858  1.00  0.00     0.167 HD
ENDROOT
BRANCH   5  10
HETATM   10  N1  UNL     1      -4.742  -4.069  12.489  1.00  0.00    -0.304 N 
ATOM     11  H1  UNL     1      -5.270  -4.713  13.077  1.00  0.00     0.186 HD
BRANCH  10  12
HETATM   12  N2  UNL     1      -4.986  -3.992  11.132  1.00  0.00    -0.345 N 
ATOM     13  H22 UNL     1      -5.017  -4.845  10.574  1.00  0.00     0.176 HD
ATOM     14  H21 UNL     1      -5.131  -3.073  10.712  1.00  0.00     0.176 HD
ENDBRANCH  10  12
ENDBRANCH   5  10
TORSDOF 2
ENDMDL
MODEL 5
REMARK VINA RESULT: -5.349761980      2.271      3.053
REMARK  2 active torsions:
REMARK  status: ('A' for Active; 'I' for Inactive)
REMARK    1  A    between atoms: C5_5  and  N1_6 
REMARK    2  A    between atoms: N1_6  and  N2_8 
ROOT
HETATM    1  C1  UNL     1       0.538  -2.201  15.182  1.00  0.00     0.068 C 
HETATM    2  C2  UNL     1      -0.853  -2.102  14.640  1.00  0.00     0.006 A 
HETATM    3  C3  UNL     1      -1.046  -2.102  13.274  1.00  0.00     0.027 A 
HETATM    4  C4  UNL     1      -2.321  -2.012  12.736  1.00  0.00     0.036 A 
HETATM    5  C5  UNL     1      -3.419  -1.921  13.565  1.00  0.00     0.088 A 
HETATM    6  C6  UNL     1      -3.189  -1.923  14.946  1.00  0.00     0.144 A 
HETATM    7  N3  UNL     1      -4.322  -1.829  15.778  1.00  0.00    -0.080 NA
HETATM    8  N4  UNL     1      -1.935  -2.012  15.431  1.00  0.00    -0.347 N 
ATOM      9  H4  UNL     1      -1.801  -2.010  16.442  1.00  0.00     0.167 HD
ENDROOT
BRANCH   5  10
HETATM   10  N1  UNL     1      -4.739  -1.826  13.052  1.00  0.00    -0.304 N 
ATOM     11  H1  UNL     1      -5.426  -1.216  13.493  1.00  0.00     0.186 HD
BRANCH  10  12
HETATM   12  N2  UNL     1      -5.072  -2.578  11.942  1.00  0.00    -0.345 N 
ATOM     13  H22 UNL     1      -4.792  -3.558  11.892  1.00  0.00     0.176 HD
ATOM     14  H21 UNL     1      -5.597  -2.132  11.190  1.00  0.00     0.176 HD
ENDBRANCH  10  12
ENDBRANCH   5  10
TORSDOF 2
ENDMDL
