MODEL 1
REMARK VINA RESULT: -9.849254685      0.000      0.000
REMARK  16 active torsions:
REMARK  status: ('A' for Active; 'I' for Inactive)
REMARK    1  A    between atoms: C2_2  and  C3_3 
REMARK    2  A    between atoms: C3_3  and  C4_4 
REMARK    3  A    between atoms: C4_4  and  C5_5 
REMARK    4  A    between atoms: C5_5  and  C6_6 
REMARK       I    between atoms: C6_6  and  N1_8 
REMARK    5  A    between atoms: N1_8  and  C7_10 
REMARK    6  A    between atoms: C7_10  and  N2_11 
REMARK    7  A    between atoms: C7_10  and  C24_33 
REMARK       I    between atoms: N2_11  and  C8_13 
REMARK    8  A    between atoms: C8_13  and  C9_15 
REMARK    9  A    between atoms: C9_15  and  C10_16 
REMARK   10  A    between atoms: C9_15  and  N3_20 
REMARK   11  A    between atoms: C10_16  and  C11_17 
REMARK       I    between atoms: N3_20  and  C14_22 
REMARK   12  A    between atoms: C14_22  and  C15_24 
REMARK   13  A    between atoms: C15_24  and  C17_26 
REMARK   14  A    between atoms: C24_33  and  O4_34 
REMARK   15  A    between atoms: C24_33  and  C25_36 
REMARK       I    between atoms: C25_36  and  N4_38 
REMARK   16  A    between atoms: N4_38  and  C26_40 
ROOT
HETATM    1  C7  UNL     1     -19.420   0.647   0.627  1.00  0.00     0.250 C 
ENDROOT
BRANCH   1   2
HETATM    2  N1  UNL     1     -19.482   0.968   2.078  1.00  0.00    -0.334 N 
HETATM    3  C6  UNL     1     -18.313   0.969   2.834  1.00  0.00     0.219 C 
HETATM    4  O1  UNL     1     -17.210   0.702   2.252  1.00  0.00    -0.274 OA
ATOM      5  H1  UNL     1     -20.377   1.186   2.517  1.00  0.00     0.165 HD
BRANCH   3   6
HETATM    6  C5  UNL     1     -18.257   1.264   4.283  1.00  0.00     0.103 C 
BRANCH   6   7
HETATM    7  C4  UNL     1     -17.703   0.153   5.115  1.00  0.00     0.009 C 
BRANCH   7   8
HETATM    8  C3  UNL     1     -18.585  -0.200   6.312  1.00  0.00     0.000 C 
BRANCH   8   9
HETATM    9  C2  UNL     1     -17.844  -1.103   7.263  1.00  0.00    -0.005 C 
HETATM   10  C1  UNL     1     -18.442  -2.477   7.280  1.00  0.00     0.005 C 
ENDBRANCH   8   9
ENDBRANCH   7   8
ENDBRANCH   6   7
ENDBRANCH   3   6
ENDBRANCH   1   2
BRANCH   1  11
HETATM   11  N2  UNL     1     -18.377   1.332  -0.019  1.00  0.00    -0.329 N 
HETATM   12  C8  UNL     1     -18.515   2.678  -0.522  1.00  0.00     0.266 C 
HETATM   13  O2  UNL     1     -19.656   3.210  -0.267  1.00  0.00    -0.266 OA
ATOM     14  H2  UNL     1     -17.483   0.856  -0.139  1.00  0.00     0.165 HD
BRANCH  12  15
HETATM   15  C9  UNL     1     -17.536   3.439  -1.242  1.00  0.00     0.080 C 
BRANCH  15  16
HETATM   16  C10 UNL     1     -17.498   4.918  -1.190  1.00  0.00     0.067 C 
BRANCH  16  17
HETATM   17  C11 UNL     1     -17.830   5.650  -2.436  1.00  0.00    -0.017 C 
HETATM   18  C12 UNL     1     -16.893   6.860  -2.587  1.00  0.00     0.010 C 
HETATM   19  C13 UNL     1     -19.195   6.090  -2.720  1.00  0.00     0.010 C 
ENDBRANCH  16  17
ENDBRANCH  15  16
BRANCH  15  20
HETATM   20  N3  UNL     1     -16.873   2.909  -2.395  1.00  0.00    -0.326 N 
HETATM   21  C14 UNL     1     -17.427   2.091  -3.399  1.00  0.00     0.226 C 
HETATM   22  O3  UNL     1     -18.657   1.830  -3.238  1.00  0.00    -0.273 OA
ATOM     23  H3  UNL     1     -15.888   3.152  -2.501  1.00  0.00     0.168 HD
BRANCH  21  24
HETATM   24  C15 UNL     1     -16.693   1.587  -4.499  1.00  0.00     0.078 C 
HETATM   25  C16 UNL     1     -16.252   0.132  -4.119  1.00  0.00     0.020 C 
BRANCH  24  26
HETATM   26  C17 UNL     1     -17.092   1.526  -5.885  1.00  0.00     0.003 C 
HETATM   27  C18 UNL     1     -16.316   2.240  -6.956  1.00  0.00     0.010 C 
HETATM   28  C19 UNL     1     -17.269   1.946  -8.148  1.00  0.00    -0.014 C 
HETATM   29  C20 UNL     1     -17.819   0.565  -8.136  1.00  0.00     0.005 C 
HETATM   30  C23 UNL     1     -18.481   2.694  -7.522  1.00  0.00     0.009 C 
HETATM   31  C21 UNL     1     -18.954   0.534  -7.087  1.00  0.00     0.005 C 
HETATM   32  C22 UNL     1     -18.518   1.779  -6.281  1.00  0.00    -0.009 C 
ENDBRANCH  24  26
ENDBRANCH  21  24
ENDBRANCH  15  20
ENDBRANCH  12  15
ENDBRANCH   1  11
BRANCH   1  33
HETATM   33  C24 UNL     1     -19.568  -0.787   0.515  1.00  0.00     0.154 C 
BRANCH  33  34
HETATM   34  O4  UNL     1     -20.781  -1.176   0.174  1.00  0.00    -0.357 OA
ATOM     35  H4  UNL     1     -20.812  -2.038  -0.225  1.00  0.00     0.217 HD
ENDBRANCH  33  34
BRANCH  33  36
HETATM   36  C25 UNL     1     -18.586  -1.804   0.723  1.00  0.00     0.274 C 
HETATM   37  O5  UNL     1     -17.580  -1.892   0.005  1.00  0.00    -0.266 OA
HETATM   38  N4  UNL     1     -18.722  -2.751   1.763  1.00  0.00    -0.350 N 
ATOM     39  H4  UNL     1     -19.571  -2.665   2.323  1.00  0.00     0.163 HD
BRANCH  38  40
HETATM   40  C26 UNL     1     -17.852  -3.801   2.142  1.00  0.00     0.093 C 
HETATM   41  C27 UNL     1     -17.687  -4.044   3.584  1.00  0.00     0.030 C 
HETATM   42  C28 UNL     1     -18.278  -5.428   3.888  1.00  0.00    -0.011 C 
HETATM   43  C29 UNL     1     -17.240  -6.491   3.927  1.00  0.00     0.013 C 
HETATM   44  C36 UNL     1     -19.148  -5.686   2.660  1.00  0.00     0.016 C 
HETATM   45  C30 UNL     1     -16.497  -6.708   2.657  1.00  0.00    -0.047 C 
HETATM   46  C31 UNL     1     -15.022  -6.467   2.929  1.00  0.00     0.015 C 
HETATM   47  C32 UNL     1     -16.613  -8.199   2.312  1.00  0.00     0.015 C 
HETATM   48  C33 UNL     1     -16.948  -5.951   1.477  1.00  0.00     0.020 C 
HETATM   49  C34 UNL     1     -18.230  -5.174   1.597  1.00  0.00    -0.022 C 
HETATM   50  C35 UNL     1     -18.934  -5.132   0.284  1.00  0.00     0.017 C 
ENDBRANCH  38  40
ENDBRANCH  33  36
ENDBRANCH   1  33
TORSDOF 16
ENDMDL
MODEL 2
REMARK VINA RESULT: -9.737068665      1.659      9.701
REMARK  16 active torsions:
REMARK  status: ('A' for Active; 'I' for Inactive)
REMARK    1  A    between atoms: C2_2  and  C3_3 
REMARK    2  A    between atoms: C3_3  and  C4_4 
REMARK    3  A    between atoms: C4_4  and  C5_5 
REMARK    4  A    between atoms: C5_5  and  C6_6 
REMARK       I    between atoms: C6_6  and  N1_8 
REMARK    5  A    between atoms: N1_8  and  C7_10 
REMARK    6  A    between atoms: C7_10  and  N2_11 
REMARK    7  A    between atoms: C7_10  and  C24_33 
REMARK       I    between atoms: N2_11  and  C8_13 
REMARK    8  A    between atoms: C8_13  and  C9_15 
REMARK    9  A    between atoms: C9_15  and  C10_16 
REMARK   10  A    between atoms: C9_15  and  N3_20 
REMARK   11  A    between atoms: C10_16  and  C11_17 
REMARK       I    between atoms: N3_20  and  C14_22 
REMARK   12  A    between atoms: C14_22  and  C15_24 
REMARK   13  A    between atoms: C15_24  and  C17_26 
REMARK   14  A    between atoms: C24_33  and  O4_34 
REMARK   15  A    between atoms: C24_33  and  C25_36 
REMARK       I    between atoms: C25_36  and  N4_38 
REMARK   16  A    between atoms: N4_38  and  C26_40 
ROOT
HETATM    1  C7  UNL     1     -18.251   0.037   0.667  1.00  0.00     0.250 C 
ENDROOT
BRANCH   1   2
HETATM    2  N1  UNL     1     -18.242   1.521   0.757  1.00  0.00    -0.334 N 
HETATM    3  C6  UNL     1     -17.224   2.243   0.140  1.00  0.00     0.219 C 
HETATM    4  O1  UNL     1     -16.326   1.605  -0.500  1.00  0.00    -0.274 OA
ATOM      5  H1  UNL     1     -18.978   2.008   1.269  1.00  0.00     0.165 HD
BRANCH   3   6
HETATM    6  C5  UNL     1     -17.110   3.718   0.172  1.00  0.00     0.103 C 
BRANCH   6   7
HETATM    7  C4  UNL     1     -17.273   4.376  -1.160  1.00  0.00     0.009 C 
BRANCH   7   8
HETATM    8  C3  UNL     1     -18.678   4.220  -1.740  1.00  0.00     0.000 C 
BRANCH   8   9
HETATM    9  C2  UNL     1     -19.016   5.394  -2.622  1.00  0.00    -0.005 C 
HETATM   10  C1  UNL     1     -18.910   5.028  -4.071  1.00  0.00     0.005 C 
ENDBRANCH   8   9
ENDBRANCH   7   8
ENDBRANCH   6   7
ENDBRANCH   3   6
ENDBRANCH   1   2
BRANCH   1  11
HETATM   11  N2  UNL     1     -18.317  -0.567   1.934  1.00  0.00    -0.329 N 
HETATM   12  C8  UNL     1     -17.176  -0.680   2.812  1.00  0.00     0.266 C 
HETATM   13  O2  UNL     1     -16.115  -0.122   2.351  1.00  0.00    -0.266 OA
ATOM     14  H2  UNL     1     -19.213  -0.942   2.249  1.00  0.00     0.165 HD
BRANCH  12  15
HETATM   15  C9  UNL     1     -17.127  -1.324   4.091  1.00  0.00     0.080 C 
BRANCH  15  16
HETATM   16  C10 UNL     1     -16.538  -0.664   5.280  1.00  0.00     0.067 C 
BRANCH  16  17
HETATM   17  C11 UNL     1     -17.478  -0.167   6.314  1.00  0.00    -0.017 C 
HETATM   18  C12 UNL     1     -17.642  -1.231   7.413  1.00  0.00     0.010 C 
HETATM   19  C13 UNL     1     -18.806   0.332   5.960  1.00  0.00     0.010 C 
ENDBRANCH  16  17
ENDBRANCH  15  16
BRANCH  15  20
HETATM   20  N3  UNL     1     -17.174  -2.748   4.217  1.00  0.00    -0.326 N 
HETATM   21  C14 UNL     1     -18.287  -3.540   4.562  1.00  0.00     0.226 C 
HETATM   22  O3  UNL     1     -19.352  -2.882   4.760  1.00  0.00    -0.273 OA
ATOM     23  H3  UNL     1     -16.303  -3.248   4.036  1.00  0.00     0.168 HD
BRANCH  21  24
HETATM   24  C15 UNL     1     -18.243  -4.949   4.689  1.00  0.00     0.078 C 
HETATM   25  C16 UNL     1     -19.654  -5.484   4.268  1.00  0.00     0.020 C 
BRANCH  24  26
HETATM   26  C17 UNL     1     -17.289  -5.867   4.115  1.00  0.00     0.003 C 
HETATM   27  C18 UNL     1     -15.934  -6.076   4.732  1.00  0.00     0.010 C 
HETATM   28  C19 UNL     1     -15.339  -7.007   3.639  1.00  0.00    -0.014 C 
HETATM   29  C20 UNL     1     -16.309  -8.006   3.122  1.00  0.00     0.005 C 
HETATM   30  C23 UNL     1     -15.452  -5.949   2.504  1.00  0.00     0.009 C 
HETATM   31  C21 UNL     1     -17.241  -7.269   2.133  1.00  0.00     0.005 C 
HETATM   32  C22 UNL     1     -16.984  -5.833   2.645  1.00  0.00    -0.009 C 
ENDBRANCH  24  26
ENDBRANCH  21  24
ENDBRANCH  15  20
ENDBRANCH  12  15
ENDBRANCH   1  11
BRANCH   1  33
HETATM   33  C24 UNL     1     -19.181  -0.307  -0.384  1.00  0.00     0.154 C 
BRANCH  33  34
HETATM   34  O4  UNL     1     -20.003  -1.290  -0.072  1.00  0.00    -0.357 OA
ATOM     35  H4  UNL     1     -19.643  -2.157  -0.222  1.00  0.00     0.217 HD
ENDBRANCH  33  34
BRANCH  33  36
HETATM   36  C25 UNL     1     -19.314   0.272  -1.684  1.00  0.00     0.274 C 
HETATM   37  O5  UNL     1     -20.396   0.721  -2.087  1.00  0.00    -0.266 OA
HETATM   38  N4  UNL     1     -18.210   0.358  -2.562  1.00  0.00    -0.350 N 
ATOM     39  H4  UNL     1     -17.339  -0.040  -2.209  1.00  0.00     0.163 HD
BRANCH  38  40
HETATM   40  C26 UNL     1     -18.137   0.917  -3.861  1.00  0.00     0.093 C 
HETATM   41  C27 UNL     1     -17.013   1.826  -4.133  1.00  0.00     0.030 C 
HETATM   42  C28 UNL     1     -16.120   1.152  -5.186  1.00  0.00    -0.011 C 
HETATM   43  C29 UNL     1     -16.409   1.630  -6.563  1.00  0.00     0.013 C 
HETATM   44  C36 UNL     1     -16.569  -0.305  -5.105  1.00  0.00     0.016 C 
HETATM   45  C30 UNL     1     -17.785   1.362  -7.059  1.00  0.00    -0.047 C 
HETATM   46  C31 UNL     1     -18.432   2.695  -7.394  1.00  0.00     0.015 C 
HETATM   47  C32 UNL     1     -17.651   0.622  -8.397  1.00  0.00     0.015 C 
HETATM   48  C33 UNL     1     -18.664   0.549  -6.199  1.00  0.00     0.020 C 
HETATM   49  C34 UNL     1     -18.046  -0.102  -4.992  1.00  0.00    -0.022 C 
HETATM   50  C35 UNL     1     -18.725  -1.395  -4.699  1.00  0.00     0.017 C 
ENDBRANCH  38  40
ENDBRANCH  33  36
ENDBRANCH   1  33
TORSDOF 16
ENDMDL
MODEL 3
REMARK VINA RESULT: -9.735773300      1.852     11.169
REMARK  16 active torsions:
REMARK  status: ('A' for Active; 'I' for Inactive)
REMARK    1  A    between atoms: C2_2  and  C3_3 
REMARK    2  A    between atoms: C3_3  and  C4_4 
REMARK    3  A    between atoms: C4_4  and  C5_5 
REMARK    4  A    between atoms: C5_5  and  C6_6 
REMARK       I    between atoms: C6_6  and  N1_8 
REMARK    5  A    between atoms: N1_8  and  C7_10 
REMARK    6  A    between atoms: C7_10  and  N2_11 
REMARK    7  A    between atoms: C7_10  and  C24_33 
REMARK       I    between atoms: N2_11  and  C8_13 
REMARK    8  A    between atoms: C8_13  and  C9_15 
REMARK    9  A    between atoms: C9_15  and  C10_16 
REMARK   10  A    between atoms: C9_15  and  N3_20 
REMARK   11  A    between atoms: C10_16  and  C11_17 
REMARK       I    between atoms: N3_20  and  C14_22 
REMARK   12  A    between atoms: C14_22  and  C15_24 
REMARK   13  A    between atoms: C15_24  and  C17_26 
REMARK   14  A    between atoms: C24_33  and  O4_34 
REMARK   15  A    between atoms: C24_33  and  C25_36 
REMARK       I    between atoms: C25_36  and  N4_38 
REMARK   16  A    between atoms: N4_38  and  C26_40 
ROOT
HETATM    1  C7  UNL     1     -19.038  -0.263  -2.382  1.00  0.00     0.250 C 
ENDROOT
BRANCH   1   2
HETATM    2  N1  UNL     1     -17.735  -0.302  -3.098  1.00  0.00    -0.334 N 
HETATM    3  C6  UNL     1     -17.668   0.098  -4.429  1.00  0.00     0.219 C 
HETATM    4  O1  UNL     1     -18.735   0.500  -5.000  1.00  0.00    -0.274 OA
ATOM      5  H1  UNL     1     -16.894  -0.620  -2.615  1.00  0.00     0.165 HD
BRANCH   3   6
HETATM    6  C5  UNL     1     -16.431   0.092  -5.241  1.00  0.00     0.103 C 
BRANCH   6   7
HETATM    7  C4  UNL     1     -16.621   0.539  -6.655  1.00  0.00     0.009 C 
BRANCH   7   8
HETATM    8  C3  UNL     1     -16.186   1.985  -6.892  1.00  0.00     0.000 C 
BRANCH   8   9
HETATM    9  C2  UNL     1     -16.925   2.569  -8.068  1.00  0.00    -0.005 C 
HETATM   10  C1  UNL     1     -18.402   2.592  -7.819  1.00  0.00     0.005 C 
ENDBRANCH   8   9
ENDBRANCH   7   8
ENDBRANCH   6   7
ENDBRANCH   3   6
ENDBRANCH   1   2
BRANCH   1  11
HETATM   11  N2  UNL     1     -19.228  -1.397  -1.574  1.00  0.00    -0.329 N 
HETATM   12  C8  UNL     1     -18.283  -1.808  -0.562  1.00  0.00     0.266 C 
HETATM   13  O2  UNL     1     -17.290  -1.005  -0.427  1.00  0.00    -0.266 OA
ATOM     14  H2  UNL     1     -20.071  -1.956  -1.709  1.00  0.00     0.165 HD
BRANCH  12  15
HETATM   15  C9  UNL     1     -18.356  -2.973   0.271  1.00  0.00     0.080 C 
BRANCH  15  16
HETATM   16  C10 UNL     1     -18.400  -4.340  -0.296  1.00  0.00     0.067 C 
BRANCH  16  17
HETATM   17  C11 UNL     1     -17.177  -5.169  -0.162  1.00  0.00    -0.017 C 
HETATM   18  C12 UNL     1     -17.199  -5.904   1.189  1.00  0.00     0.010 C 
HETATM   19  C13 UNL     1     -15.845  -4.596  -0.349  1.00  0.00     0.010 C 
ENDBRANCH  16  17
ENDBRANCH  15  16
BRANCH  15  20
HETATM   20  N3  UNL     1     -18.868  -2.910   1.605  1.00  0.00    -0.326 N 
HETATM   21  C14 UNL     1     -18.137  -2.705   2.792  1.00  0.00     0.226 C 
HETATM   22  O3  UNL     1     -16.892  -2.546   2.617  1.00  0.00    -0.273 OA
ATOM     23  H3  UNL     1     -19.876  -3.027   1.709  1.00  0.00     0.168 HD
BRANCH  21  24
HETATM   24  C15 UNL     1     -18.720  -2.681   4.083  1.00  0.00     0.078 C 
HETATM   25  C16 UNL     1     -18.810  -4.169   4.565  1.00  0.00     0.020 C 
BRANCH  24  26
HETATM   26  C17 UNL     1     -18.302  -1.920   5.236  1.00  0.00     0.003 C 
HETATM   27  C18 UNL     1     -18.917  -2.146   6.589  1.00  0.00     0.010 C 
HETATM   28  C19 UNL     1     -18.209  -0.987   7.345  1.00  0.00    -0.014 C 
HETATM   29  C20 UNL     1     -16.781  -0.822   6.968  1.00  0.00     0.005 C 
HETATM   30  C23 UNL     1     -18.825   0.132   6.458  1.00  0.00     0.009 C 
HETATM   31  C21 UNL     1     -16.750  -0.090   5.607  1.00  0.00     0.005 C 
HETATM   32  C22 UNL     1     -18.193  -0.424   5.165  1.00  0.00    -0.009 C 
ENDBRANCH  24  26
ENDBRANCH  21  24
ENDBRANCH  15  20
ENDBRANCH  12  15
ENDBRANCH   1  11
BRANCH   1  33
HETATM   33  C24 UNL     1     -19.178   1.075  -1.852  1.00  0.00     0.154 C 
BRANCH  33  34
HETATM   34  O4  UNL     1     -20.280   1.261  -1.151  1.00  0.00    -0.357 OA
ATOM     35  H4  UNL     1     -20.244   2.009  -0.566  1.00  0.00     0.217 HD
ENDBRANCH  33  34
BRANCH  33  36
HETATM   36  C25 UNL     1     -18.293   2.187  -1.992  1.00  0.00     0.274 C 
HETATM   37  O5  UNL     1     -17.295   2.319  -1.269  1.00  0.00    -0.266 OA
HETATM   38  N4  UNL     1     -18.521   3.185  -2.968  1.00  0.00    -0.350 N 
ATOM     39  H4  UNL     1     -19.362   3.060  -3.531  1.00  0.00     0.163 HD
BRANCH  38  40
HETATM   40  C26 UNL     1     -17.751   4.332  -3.275  1.00  0.00     0.093 C 
HETATM   41  C27 UNL     1     -17.619   4.685  -4.698  1.00  0.00     0.030 C 
HETATM   42  C28 UNL     1     -18.334   6.028  -4.908  1.00  0.00    -0.011 C 
HETATM   43  C29 UNL     1     -17.396   7.180  -4.876  1.00  0.00     0.013 C 
HETATM   44  C36 UNL     1     -19.214   6.123  -3.664  1.00  0.00     0.016 C 
HETATM   45  C30 UNL     1     -16.666   7.377  -3.596  1.00  0.00    -0.047 C 
HETATM   46  C31 UNL     1     -15.177   7.288  -3.885  1.00  0.00     0.015 C 
HETATM   47  C32 UNL     1     -16.912   8.825  -3.150  1.00  0.00     0.015 C 
HETATM   48  C33 UNL     1     -17.038   6.505  -2.468  1.00  0.00     0.020 C 
HETATM   49  C34 UNL     1     -18.247   5.626  -2.639  1.00  0.00    -0.022 C 
HETATM   50  C35 UNL     1     -18.934   5.433  -1.331  1.00  0.00     0.017 C 
ENDBRANCH  38  40
ENDBRANCH  33  36
ENDBRANCH   1  33
TORSDOF 16
ENDMDL
MODEL 4
REMARK VINA RESULT: -9.610970973      1.266      1.772
REMARK  16 active torsions:
REMARK  status: ('A' for Active; 'I' for Inactive)
REMARK    1  A    between atoms: C2_2  and  C3_3 
REMARK    2  A    between atoms: C3_3  and  C4_4 
REMARK    3  A    between atoms: C4_4  and  C5_5 
REMARK    4  A    between atoms: C5_5  and  C6_6 
REMARK       I    between atoms: C6_6  and  N1_8 
REMARK    5  A    between atoms: N1_8  and  C7_10 
REMARK    6  A    between atoms: C7_10  and  N2_11 
REMARK    7  A    between atoms: C7_10  and  C24_33 
REMARK       I    between atoms: N2_11  and  C8_13 
REMARK    8  A    between atoms: C8_13  and  C9_15 
REMARK    9  A    between atoms: C9_15  and  C10_16 
REMARK   10  A    between atoms: C9_15  and  N3_20 
REMARK   11  A    between atoms: C10_16  and  C11_17 
REMARK       I    between atoms: N3_20  and  C14_22 
REMARK   12  A    between atoms: C14_22  and  C15_24 
REMARK   13  A    between atoms: C15_24  and  C17_26 
REMARK   14  A    between atoms: C24_33  and  O4_34 
REMARK   15  A    between atoms: C24_33  and  C25_36 
REMARK       I    between atoms: C25_36  and  N4_38 
REMARK   16  A    between atoms: N4_38  and  C26_40 
ROOT
HETATM    1  C7  UNL     1     -19.133   0.417   1.697  1.00  0.00     0.250 C 
ENDROOT
BRANCH   1   2
HETATM    2  N1  UNL     1     -17.834   0.469   2.418  1.00  0.00    -0.334 N 
HETATM    3  C6  UNL     1     -17.764   0.055   3.745  1.00  0.00     0.219 C 
HETATM    4  O1  UNL     1     -18.825  -0.372   4.307  1.00  0.00    -0.274 OA
ATOM      5  H1  UNL     1     -16.997   0.808   1.942  1.00  0.00     0.165 HD
BRANCH   3   6
HETATM    6  C5  UNL     1     -16.530   0.073   4.561  1.00  0.00     0.103 C 
BRANCH   6   7
HETATM    7  C4  UNL     1     -16.717  -0.394   5.969  1.00  0.00     0.009 C 
BRANCH   7   8
HETATM    8  C3  UNL     1     -16.298  -1.848   6.181  1.00  0.00     0.000 C 
BRANCH   8   9
HETATM    9  C2  UNL     1     -17.037  -2.442   7.352  1.00  0.00    -0.005 C 
HETATM   10  C1  UNL     1     -18.514  -2.221   7.226  1.00  0.00     0.005 C 
ENDBRANCH   8   9
ENDBRANCH   7   8
ENDBRANCH   6   7
ENDBRANCH   3   6
ENDBRANCH   1   2
BRANCH   1  11
HETATM   11  N2  UNL     1     -19.323   1.538   0.872  1.00  0.00    -0.329 N 
HETATM   12  C8  UNL     1     -18.402   1.906  -0.177  1.00  0.00     0.266 C 
HETATM   13  O2  UNL     1     -17.431   1.078  -0.324  1.00  0.00    -0.266 OA
ATOM     14  H2  UNL     1     -20.149   2.119   1.022  1.00  0.00     0.165 HD
BRANCH  12  15
HETATM   15  C9  UNL     1     -18.474   3.056  -1.031  1.00  0.00     0.080 C 
BRANCH  15  16
HETATM   16  C10 UNL     1     -18.549   4.432  -0.489  1.00  0.00     0.067 C 
BRANCH  16  17
HETATM   17  C11 UNL     1     -17.336   5.276  -0.612  1.00  0.00    -0.017 C 
HETATM   18  C12 UNL     1     -17.413   6.101  -1.908  1.00  0.00     0.010 C 
HETATM   19  C13 UNL     1     -15.995   4.701  -0.516  1.00  0.00     0.010 C 
ENDBRANCH  16  17
ENDBRANCH  15  16
BRANCH  15  20
HETATM   20  N3  UNL     1     -18.958   2.963  -2.374  1.00  0.00    -0.326 N 
HETATM   21  C14 UNL     1     -18.194   2.863  -3.553  1.00  0.00     0.226 C 
HETATM   22  O3  UNL     1     -16.941   2.840  -3.361  1.00  0.00    -0.273 OA
ATOM     23  H3  UNL     1     -19.972   2.969  -2.491  1.00  0.00     0.168 HD
BRANCH  21  24
HETATM   24  C15 UNL     1     -18.752   2.800  -4.852  1.00  0.00     0.078 C 
HETATM   25  C16 UNL     1     -18.831   4.272  -5.382  1.00  0.00     0.020 C 
BRANCH  24  26
HETATM   26  C17 UNL     1     -18.315   2.002  -5.973  1.00  0.00     0.003 C 
HETATM   27  C18 UNL     1     -18.877   2.213  -7.351  1.00  0.00     0.010 C 
HETATM   28  C19 UNL     1     -18.174   1.021  -8.057  1.00  0.00    -0.014 C 
HETATM   29  C20 UNL     1     -16.765   0.827  -7.627  1.00  0.00     0.005 C 
HETATM   30  C23 UNL     1     -18.850  -0.062  -7.168  1.00  0.00     0.009 C 
HETATM   31  C21 UNL     1     -16.800   0.126  -6.250  1.00  0.00     0.005 C 
HETATM   32  C22 UNL     1     -18.248   0.506  -5.866  1.00  0.00    -0.009 C 
ENDBRANCH  24  26
ENDBRANCH  21  24
ENDBRANCH  15  20
ENDBRANCH  12  15
ENDBRANCH   1  11
BRANCH   1  33
HETATM   33  C24 UNL     1     -19.268  -0.929   1.187  1.00  0.00     0.154 C 
BRANCH  33  34
HETATM   34  O4  UNL     1     -20.380  -1.136   0.509  1.00  0.00    -0.357 OA
ATOM     35  H4  UNL     1     -20.254  -1.192  -0.432  1.00  0.00     0.217 HD
ENDBRANCH  33  34
BRANCH  33  36
HETATM   36  C25 UNL     1     -18.368  -2.030   1.325  1.00  0.00     0.274 C 
HETATM   37  O5  UNL     1     -17.364  -2.141   0.608  1.00  0.00    -0.266 OA
HETATM   38  N4  UNL     1     -18.588  -3.038   2.291  1.00  0.00    -0.350 N 
ATOM     39  H4  UNL     1     -19.434  -2.929   2.850  1.00  0.00     0.163 HD
BRANCH  38  40
HETATM   40  C26 UNL     1     -17.804  -4.177   2.596  1.00  0.00     0.093 C 
HETATM   41  C27 UNL     1     -17.678  -4.539   4.017  1.00  0.00     0.030 C 
HETATM   42  C28 UNL     1     -18.375  -5.894   4.209  1.00  0.00    -0.011 C 
HETATM   43  C29 UNL     1     -17.420  -7.032   4.176  1.00  0.00     0.013 C 
HETATM   44  C36 UNL     1     -19.244  -5.992   2.958  1.00  0.00     0.016 C 
HETATM   45  C30 UNL     1     -16.677  -7.208   2.899  1.00  0.00    -0.047 C 
HETATM   46  C31 UNL     1     -15.192  -7.100   3.201  1.00  0.00     0.015 C 
HETATM   47  C32 UNL     1     -16.899  -8.655   2.440  1.00  0.00     0.015 C 
HETATM   48  C33 UNL     1     -17.053  -6.332   1.776  1.00  0.00     0.020 C 
HETATM   49  C34 UNL     1     -18.276  -5.472   1.944  1.00  0.00    -0.022 C 
HETATM   50  C35 UNL     1     -18.955  -5.278   0.633  1.00  0.00     0.017 C 
ENDBRANCH  38  40
ENDBRANCH  33  36
ENDBRANCH   1  33
TORSDOF 16
ENDMDL
MODEL 5
REMARK VINA RESULT: -9.554011139      1.395      2.157
REMARK  16 active torsions:
REMARK  status: ('A' for Active; 'I' for Inactive)
REMARK    1  A    between atoms: C2_2  and  C3_3 
REMARK    2  A    between atoms: C3_3  and  C4_4 
REMARK    3  A    between atoms: C4_4  and  C5_5 
REMARK    4  A    between atoms: C5_5  and  C6_6 
REMARK       I    between atoms: C6_6  and  N1_8 
REMARK    5  A    between atoms: N1_8  and  C7_10 
REMARK    6  A    between atoms: C7_10  and  N2_11 
REMARK    7  A    between atoms: C7_10  and  C24_33 
REMARK       I    between atoms: N2_11  and  C8_13 
REMARK    8  A    between atoms: C8_13  and  C9_15 
REMARK    9  A    between atoms: C9_15  and  C10_16 
REMARK   10  A    between atoms: C9_15  and  N3_20 
REMARK   11  A    between atoms: C10_16  and  C11_17 
REMARK       I    between atoms: N3_20  and  C14_22 
REMARK   12  A    between atoms: C14_22  and  C15_24 
REMARK   13  A    between atoms: C15_24  and  C17_26 
REMARK   14  A    between atoms: C24_33  and  O4_34 
REMARK   15  A    between atoms: C24_33  and  C25_36 
REMARK       I    between atoms: C25_36  and  N4_38 
REMARK   16  A    between atoms: N4_38  and  C26_40 
ROOT
HETATM    1  C7  UNL     1     -18.154   0.014   1.223  1.00  0.00     0.250 C 
ENDROOT
BRANCH   1   2
HETATM    2  N1  UNL     1     -17.059  -0.448   2.117  1.00  0.00    -0.334 N 
HETATM    3  C6  UNL     1     -16.965   0.058   3.410  1.00  0.00     0.219 C 
HETATM    4  O1  UNL     1     -17.837   0.903   3.799  1.00  0.00    -0.274 OA
ATOM      5  H1  UNL     1     -16.379  -1.131   1.783  1.00  0.00     0.165 HD
BRANCH   3   6
HETATM    6  C5  UNL     1     -15.915  -0.322   4.380  1.00  0.00     0.103 C 
BRANCH   6   7
HETATM    7  C4  UNL     1     -16.379  -0.372   5.800  1.00  0.00     0.009 C 
BRANCH   7   8
HETATM    8  C3  UNL     1     -16.618  -1.795   6.305  1.00  0.00     0.000 C 
BRANCH   8   9
HETATM    9  C2  UNL     1     -17.897  -1.863   7.098  1.00  0.00    -0.005 C 
HETATM   10  C1  UNL     1     -18.842  -0.773   6.692  1.00  0.00     0.005 C 
ENDBRANCH   8   9
ENDBRANCH   7   8
ENDBRANCH   6   7
ENDBRANCH   3   6
ENDBRANCH   1   2
BRANCH   1  11
HETATM   11  N2  UNL     1     -17.661   0.646   0.069  1.00  0.00    -0.329 N 
HETATM   12  C8  UNL     1     -18.260   1.833  -0.493  1.00  0.00     0.266 C 
HETATM   13  O2  UNL     1     -19.245   2.289   0.194  1.00  0.00    -0.266 OA
ATOM     14  H2  UNL     1     -16.841   0.249  -0.391  1.00  0.00     0.165 HD
BRANCH  12  15
HETATM   15  C9  UNL     1     -17.869   2.518  -1.691  1.00  0.00     0.080 C 
BRANCH  15  16
HETATM   16  C10 UNL     1     -17.840   3.996  -1.776  1.00  0.00     0.067 C 
BRANCH  16  17
HETATM   17  C11 UNL     1     -16.566   4.670  -1.427  1.00  0.00    -0.017 C 
HETATM   18  C12 UNL     1     -16.662   5.243  -0.003  1.00  0.00     0.010 C 
HETATM   19  C13 UNL     1     -15.985   5.695  -2.293  1.00  0.00     0.010 C 
ENDBRANCH  16  17
ENDBRANCH  15  16
BRANCH  15  20
HETATM   20  N3  UNL     1     -17.955   1.892  -2.975  1.00  0.00    -0.326 N 
HETATM   21  C14 UNL     1     -17.255   0.752  -3.419  1.00  0.00     0.226 C 
HETATM   22  O3  UNL     1     -16.485   0.243  -2.550  1.00  0.00    -0.273 OA
ATOM     23  H3  UNL     1     -18.596   2.319  -3.645  1.00  0.00     0.168 HD
BRANCH  21  24
HETATM   24  C15 UNL     1     -17.379   0.208  -4.720  1.00  0.00     0.078 C 
HETATM   25  C16 UNL     1     -18.453  -0.929  -4.633  1.00  0.00     0.020 C 
BRANCH  24  26
HETATM   26  C17 UNL     1     -17.644   0.904  -5.956  1.00  0.00     0.003 C 
HETATM   27  C18 UNL     1     -18.936   0.715  -6.701  1.00  0.00     0.010 C 
HETATM   28  C19 UNL     1     -18.587   1.557  -7.960  1.00  0.00    -0.014 C 
HETATM   29  C20 UNL     1     -17.847   2.807  -7.647  1.00  0.00     0.005 C 
HETATM   30  C23 UNL     1     -17.384   0.661  -8.375  1.00  0.00     0.009 C 
HETATM   31  C21 UNL     1     -16.377   2.413  -7.376  1.00  0.00     0.005 C 
HETATM   32  C22 UNL     1     -16.624   0.920  -7.058  1.00  0.00    -0.009 C 
ENDBRANCH  24  26
ENDBRANCH  21  24
ENDBRANCH  15  20
ENDBRANCH  12  15
ENDBRANCH   1  11
BRANCH   1  33
HETATM   33  C24 UNL     1     -19.106  -1.072   1.141  1.00  0.00     0.154 C 
BRANCH  33  34
HETATM   34  O4  UNL     1     -20.365  -0.680   1.117  1.00  0.00    -0.357 OA
ATOM     35  H4  UNL     1     -20.964  -1.281   1.545  1.00  0.00     0.217 HD
ENDBRANCH  33  34
BRANCH  33  36
HETATM   36  C25 UNL     1     -18.853  -2.477   1.085  1.00  0.00     0.274 C 
HETATM   37  O5  UNL     1     -18.751  -3.076   0.005  1.00  0.00    -0.266 OA
HETATM   38  N4  UNL     1     -18.706  -3.242   2.265  1.00  0.00    -0.350 N 
ATOM     39  H4  UNL     1     -18.818  -2.724   3.137  1.00  0.00     0.163 HD
BRANCH  38  40
HETATM   40  C26 UNL     1     -18.427  -4.621   2.413  1.00  0.00     0.093 C 
HETATM   41  C27 UNL     1     -17.106  -5.086   1.962  1.00  0.00     0.030 C 
HETATM   42  C28 UNL     1     -16.337  -5.563   3.203  1.00  0.00    -0.011 C 
HETATM   43  C29 UNL     1     -16.423  -7.034   3.392  1.00  0.00     0.013 C 
HETATM   44  C36 UNL     1     -17.122  -4.911   4.339  1.00  0.00     0.016 C 
HETATM   45  C30 UNL     1     -17.793  -7.574   3.609  1.00  0.00    -0.047 C 
HETATM   46  C31 UNL     1     -18.085  -8.572   2.502  1.00  0.00     0.015 C 
HETATM   47  C32 UNL     1     -17.757  -8.395   4.905  1.00  0.00     0.015 C 
HETATM   48  C33 UNL     1     -18.887  -6.596   3.743  1.00  0.00     0.020 C 
HETATM   49  C34 UNL     1     -18.513  -5.143   3.843  1.00  0.00    -0.022 C 
HETATM   50  C35 UNL     1     -19.494  -4.415   4.696  1.00  0.00     0.017 C 
ENDBRANCH  38  40
ENDBRANCH  33  36
ENDBRANCH   1  33
TORSDOF 16
ENDMDL
