MODEL 1
REMARK VINA RESULT: -8.568588788      0.000      0.000
REMARK  17 active torsions:
REMARK  status: ('A' for Active; 'I' for Inactive)
REMARK    1  A    between atoms: C2_2  and  C3_3 
REMARK    2  A    between atoms: C3_3  and  C4_4 
REMARK    3  A    between atoms: C4_4  and  C5_5 
REMARK    4  A    between atoms: C5_5  and  C6_6 
REMARK    5  A    between atoms: C6_6  and  C7_7 
REMARK    6  A    between atoms: C6_6  and  N3_32 
REMARK    7  A    between atoms: C7_7  and  C8_8 
REMARK    8  A    between atoms: C8_8  and  C9_9 
REMARK       I    between atoms: C9_9  and  N1_11 
REMARK    9  A    between atoms: N1_11  and  C10_13 
REMARK   10  A    between atoms: C10_13  and  C11_14 
REMARK   11  A    between atoms: C10_13  and  C20_28 
REMARK       I    between atoms: C11_14  and  N2_16 
REMARK   12  A    between atoms: N2_16  and  C12_18 
REMARK   13  A    between atoms: C12_18  and  C13_19 
REMARK   14  A    between atoms: C13_19  and  O4_21 
REMARK   15  A    between atoms: O4_21  and  C14_22 
REMARK       I    between atoms: N3_32  and  C24_34 
REMARK   16  A    between atoms: C24_34  and  C25_36 
REMARK   17  A    between atoms: C25_36  and  N4_37 
REMARK       I    between atoms: N4_37  and  C26_39 
REMARK       I    between atoms: C26_39  and  N5_41 
ROOT
HETATM    1  C7  UNL     1     -17.669  -2.320  -0.626  1.00  0.00     0.034 C 
ENDROOT
BRANCH   1   2
HETATM    2  C6  UNL     1     -18.795  -1.306  -1.051  1.00  0.00     0.084 C 
BRANCH   2   3
HETATM    3  C5  UNL     1     -18.642  -1.226  -2.527  1.00  0.00     0.025 C 
BRANCH   3   4
HETATM    4  C4  UNL     1     -18.404   0.061  -3.192  1.00  0.00     0.002 C 
BRANCH   4   5
HETATM    5  C3  UNL     1     -17.697   0.109  -4.473  1.00  0.00    -0.000 C 
BRANCH   5   6
HETATM    6  C2  UNL     1     -16.257   0.414  -4.549  1.00  0.00    -0.005 C 
HETATM    7  C1  UNL     1     -15.637   0.444  -5.903  1.00  0.00     0.005 C 
ENDBRANCH   5   6
ENDBRANCH   4   5
ENDBRANCH   3   4
ENDBRANCH   2   3
BRANCH   2   8
HETATM    8  N3  UNL     1     -18.381  -0.006  -0.516  1.00  0.00    -0.355 N 
HETATM    9  C24 UNL     1     -18.541   0.561   0.726  1.00  0.00     0.235 C 
HETATM   10  O5  UNL     1     -19.097   0.038   1.695  1.00  0.00    -0.272 OA
ATOM     11  H3  UNL     1     -17.885   0.584  -1.184  1.00  0.00     0.162 HD
BRANCH   9  12
HETATM   12  C25 UNL     1     -17.978   1.949   0.927  1.00  0.00     0.227 C 
BRANCH  12  13
HETATM   13  N4  UNL     1     -17.638   2.578  -0.361  1.00  0.00    -0.334 N 
HETATM   14  C26 UNL     1     -18.500   3.531  -0.903  1.00  0.00     0.318 C 
HETATM   15  O6  UNL     1     -19.561   3.819  -0.243  1.00  0.00    -0.247 OA
HETATM   16  N5  UNL     1     -18.315   4.234  -2.128  1.00  0.00    -0.334 N 
HETATM   17  C27 UNL     1     -17.249   3.902  -2.988  1.00  0.00     0.127 C 
HETATM   18  C34 UNL     1     -19.287   5.324  -2.297  1.00  0.00     0.136 C 
HETATM   19  C28 UNL     1     -17.534   3.736  -4.438  1.00  0.00     0.020 C 
HETATM   20  C29 UNL     1     -18.907   3.989  -4.913  1.00  0.00     0.002 C 
HETATM   21  C30 UNL     1     -19.439   5.359  -4.768  1.00  0.00     0.010 C 
HETATM   22  C31 UNL     1     -19.039   6.105  -3.530  1.00  0.00    -0.031 C 
HETATM   23  C32 UNL     1     -20.149   7.217  -3.449  1.00  0.00     0.016 C 
HETATM   24  C33 UNL     1     -17.778   6.877  -3.603  1.00  0.00     0.016 C 
ATOM     25  H4  UNL     1     -16.781   2.320  -0.850  1.00  0.00     0.164 HD
ENDBRANCH  12  13
ENDBRANCH   9  12
ENDBRANCH   2   8
ENDBRANCH   1   2
BRANCH   1  26
HETATM   26  C8  UNL     1     -18.278  -3.661  -0.254  1.00  0.00     0.105 C 
BRANCH  26  27
HETATM   27  C9  UNL     1     -18.041  -3.956   1.165  1.00  0.00     0.218 C 
HETATM   28  O1  UNL     1     -16.812  -3.961   1.541  1.00  0.00    -0.274 OA
HETATM   29  N1  UNL     1     -18.978  -4.248   2.183  1.00  0.00    -0.347 N 
ATOM     30  H1  UNL     1     -19.976  -4.256   1.975  1.00  0.00     0.163 HD
BRANCH  29  31
HETATM   31  C10 UNL     1     -18.510  -4.537   3.523  1.00  0.00     0.181 C 
BRANCH  31  32
HETATM   32  C11 UNL     1     -18.409  -3.349   4.405  1.00  0.00     0.241 C 
HETATM   33  O2  UNL     1     -19.362  -3.111   5.183  1.00  0.00    -0.271 OA
HETATM   34  N2  UNL     1     -17.300  -2.496   4.390  1.00  0.00    -0.341 N 
ATOM     35  H2  UNL     1     -16.558  -2.748   3.737  1.00  0.00     0.163 HD
BRANCH  34  36
HETATM   36  C12 UNL     1     -17.067  -1.314   5.171  1.00  0.00     0.121 A 
HETATM   37  C18 UNL     1     -16.137  -0.249   4.545  1.00  0.00     0.044 A 
HETATM   38  C19 UNL     1     -17.579   0.018   4.841  1.00  0.00     0.044 A 
BRANCH  36  39
HETATM   39  C13 UNL     1     -16.739  -1.575   6.641  1.00  0.00     0.288 C 
HETATM   40  O3  UNL     1     -17.288  -0.946   7.541  1.00  0.00    -0.262 OA
BRANCH  39  41
HETATM   41  O4  UNL     1     -15.795  -2.546   6.946  1.00  0.00    -0.309 OA
BRANCH  41  42
HETATM   42  C14 UNL     1     -16.025  -3.768   7.564  1.00  0.00     0.060 C 
HETATM   43  C15 UNL     1     -15.103  -4.022   8.741  1.00  0.00     0.045 C 
HETATM   44  C16 UNL     1     -15.726  -4.852   6.518  1.00  0.00     0.045 C 
HETATM   45  C17 UNL     1     -17.449  -3.991   8.001  1.00  0.00     0.045 C 
ENDBRANCH  41  42
ENDBRANCH  39  41
ENDBRANCH  36  39
ENDBRANCH  34  36
ENDBRANCH  31  32
BRANCH  31  46
HETATM   46  C20 UNL     1     -19.317  -5.594   4.223  1.00  0.00     0.021 A 
HETATM   47  C21 UNL     1     -20.023  -6.669   3.488  1.00  0.00     0.012 A 
HETATM   48  C22 UNL     1     -18.734  -7.006   4.109  1.00  0.00    -0.012 A 
HETATM   49  C23 UNL     1     -18.629  -7.759   5.406  1.00  0.00     0.010 C 
ENDBRANCH  31  46
ENDBRANCH  29  31
ENDBRANCH  26  27
ENDBRANCH   1  26
TORSDOF 17
ENDMDL
MODEL 2
REMARK VINA RESULT: -8.559829311      2.204      5.060
REMARK  17 active torsions:
REMARK  status: ('A' for Active; 'I' for Inactive)
REMARK    1  A    between atoms: C2_2  and  C3_3 
REMARK    2  A    between atoms: C3_3  and  C4_4 
REMARK    3  A    between atoms: C4_4  and  C5_5 
REMARK    4  A    between atoms: C5_5  and  C6_6 
REMARK    5  A    between atoms: C6_6  and  C7_7 
REMARK    6  A    between atoms: C6_6  and  N3_32 
REMARK    7  A    between atoms: C7_7  and  C8_8 
REMARK    8  A    between atoms: C8_8  and  C9_9 
REMARK       I    between atoms: C9_9  and  N1_11 
REMARK    9  A    between atoms: N1_11  and  C10_13 
REMARK   10  A    between atoms: C10_13  and  C11_14 
REMARK   11  A    between atoms: C10_13  and  C20_28 
REMARK       I    between atoms: C11_14  and  N2_16 
REMARK   12  A    between atoms: N2_16  and  C12_18 
REMARK   13  A    between atoms: C12_18  and  C13_19 
REMARK   14  A    between atoms: C13_19  and  O4_21 
REMARK   15  A    between atoms: O4_21  and  C14_22 
REMARK       I    between atoms: N3_32  and  C24_34 
REMARK   16  A    between atoms: C24_34  and  C25_36 
REMARK   17  A    between atoms: C25_36  and  N4_37 
REMARK       I    between atoms: N4_37  and  C26_39 
REMARK       I    between atoms: C26_39  and  N5_41 
ROOT
HETATM    1  C7  UNL     1     -17.682   0.653   3.611  1.00  0.00     0.034 C 
ENDROOT
BRANCH   1   2
HETATM    2  C6  UNL     1     -18.614   0.812   2.352  1.00  0.00     0.084 C 
BRANCH   2   3
HETATM    3  C5  UNL     1     -18.724  -0.576   1.832  1.00  0.00     0.025 C 
BRANCH   3   4
HETATM    4  C4  UNL     1     -19.608  -0.890   0.703  1.00  0.00     0.002 C 
BRANCH   4   5
HETATM    5  C3  UNL     1     -19.116  -1.697  -0.415  1.00  0.00    -0.000 C 
BRANCH   5   6
HETATM    6  C2  UNL     1     -18.206  -1.136  -1.431  1.00  0.00    -0.005 C 
HETATM    7  C1  UNL     1     -16.755  -1.093  -1.096  1.00  0.00     0.005 C 
ENDBRANCH   5   6
ENDBRANCH   4   5
ENDBRANCH   3   4
ENDBRANCH   2   3
BRANCH   2   8
HETATM    8  N3  UNL     1     -17.829   1.566   1.371  1.00  0.00    -0.355 N 
HETATM    9  C24 UNL     1     -18.210   2.349   0.307  1.00  0.00     0.235 C 
HETATM   10  O5  UNL     1     -19.369   2.586  -0.039  1.00  0.00    -0.272 OA
ATOM     11  H3  UNL     1     -16.819   1.498   1.500  1.00  0.00     0.162 HD
BRANCH   9  12
HETATM   12  C25 UNL     1     -17.108   2.983  -0.509  1.00  0.00     0.227 C 
BRANCH  12  13
HETATM   13  N4  UNL     1     -16.848   2.219  -1.741  1.00  0.00    -0.334 N 
HETATM   14  C26 UNL     1     -17.421   2.642  -2.940  1.00  0.00     0.318 C 
HETATM   15  O6  UNL     1     -18.155   3.692  -2.913  1.00  0.00    -0.247 OA
HETATM   16  N5  UNL     1     -17.264   2.022  -4.213  1.00  0.00    -0.334 N 
HETATM   17  C27 UNL     1     -16.581   0.793  -4.330  1.00  0.00     0.127 C 
HETATM   18  C34 UNL     1     -17.812   2.842  -5.304  1.00  0.00     0.136 C 
HETATM   19  C28 UNL     1     -17.201  -0.286  -5.142  1.00  0.00     0.020 C 
HETATM   20  C29 UNL     1     -18.469   0.003  -5.837  1.00  0.00     0.002 C 
HETATM   21  C30 UNL     1     -18.452   1.046  -6.884  1.00  0.00     0.010 C 
HETATM   22  C31 UNL     1     -17.572   2.233  -6.631  1.00  0.00    -0.031 C 
HETATM   23  C32 UNL     1     -18.187   3.306  -7.605  1.00  0.00     0.016 C 
HETATM   24  C33 UNL     1     -16.166   2.120  -7.082  1.00  0.00     0.016 C 
ATOM     25  H4  UNL     1     -16.255   1.390  -1.717  1.00  0.00     0.164 HD
ENDBRANCH  12  13
ENDBRANCH   9  12
ENDBRANCH   2   8
ENDBRANCH   1   2
BRANCH   1  26
HETATM   26  C8  UNL     1     -18.516   0.546   4.876  1.00  0.00     0.105 C 
BRANCH  26  27
HETATM   27  C9  UNL     1     -18.490  -0.829   5.393  1.00  0.00     0.218 C 
HETATM   28  O1  UNL     1     -19.346  -1.101   6.312  1.00  0.00    -0.274 OA
HETATM   29  N1  UNL     1     -17.644  -1.901   5.030  1.00  0.00    -0.347 N 
ATOM     30  H1  UNL     1     -16.942  -1.777   4.301  1.00  0.00     0.163 HD
BRANCH  29  31
HETATM   31  C10 UNL     1     -17.781  -3.178   5.699  1.00  0.00     0.181 C 
BRANCH  31  32
HETATM   32  C11 UNL     1     -17.825  -4.346   4.786  1.00  0.00     0.241 C 
HETATM   33  O2  UNL     1     -18.855  -4.512   4.092  1.00  0.00    -0.271 OA
HETATM   34  N2  UNL     1     -16.769  -5.257   4.683  1.00  0.00    -0.341 N 
ATOM     35  H2  UNL     1     -15.959  -5.063   5.272  1.00  0.00     0.163 HD
BRANCH  34  36
HETATM   36  C12 UNL     1     -16.672  -6.430   3.860  1.00  0.00     0.121 A 
HETATM   37  C18 UNL     1     -16.376  -7.760   4.590  1.00  0.00     0.044 A 
HETATM   38  C19 UNL     1     -17.650  -7.519   3.842  1.00  0.00     0.044 A 
BRANCH  36  39
HETATM   39  C13 UNL     1     -15.817  -6.257   2.604  1.00  0.00     0.288 C 
HETATM   40  O3  UNL     1     -14.596  -6.145   2.672  1.00  0.00    -0.262 OA
BRANCH  39  41
HETATM   41  O4  UNL     1     -16.450  -6.225   1.370  1.00  0.00    -0.309 OA
BRANCH  41  42
HETATM   42  C14 UNL     1     -17.023  -5.120   0.754  1.00  0.00     0.060 C 
HETATM   43  C15 UNL     1     -18.538  -5.176   0.723  1.00  0.00     0.045 C 
HETATM   44  C16 UNL     1     -16.543  -5.132  -0.705  1.00  0.00     0.045 C 
HETATM   45  C17 UNL     1     -16.593  -3.794   1.324  1.00  0.00     0.045 C 
ENDBRANCH  41  42
ENDBRANCH  39  41
ENDBRANCH  36  39
ENDBRANCH  34  36
ENDBRANCH  31  32
BRANCH  31  46
HETATM   46  C20 UNL     1     -16.730  -3.420   6.746  1.00  0.00     0.021 A 
HETATM   47  C21 UNL     1     -16.640  -2.608   7.981  1.00  0.00     0.012 A 
HETATM   48  C22 UNL     1     -17.283  -3.925   8.083  1.00  0.00    -0.012 A 
HETATM   49  C23 UNL     1     -16.582  -5.130   8.648  1.00  0.00     0.010 C 
ENDBRANCH  31  46
ENDBRANCH  29  31
ENDBRANCH  26  27
ENDBRANCH   1  26
TORSDOF 17
ENDMDL
MODEL 3
REMARK VINA RESULT: -8.547300211      2.955     11.699
REMARK  17 active torsions:
REMARK  status: ('A' for Active; 'I' for Inactive)
REMARK    1  A    between atoms: C2_2  and  C3_3 
REMARK    2  A    between atoms: C3_3  and  C4_4 
REMARK    3  A    between atoms: C4_4  and  C5_5 
REMARK    4  A    between atoms: C5_5  and  C6_6 
REMARK    5  A    between atoms: C6_6  and  C7_7 
REMARK    6  A    between atoms: C6_6  and  N3_32 
REMARK    7  A    between atoms: C7_7  and  C8_8 
REMARK    8  A    between atoms: C8_8  and  C9_9 
REMARK       I    between atoms: C9_9  and  N1_11 
REMARK    9  A    between atoms: N1_11  and  C10_13 
REMARK   10  A    between atoms: C10_13  and  C11_14 
REMARK   11  A    between atoms: C10_13  and  C20_28 
REMARK       I    between atoms: C11_14  and  N2_16 
REMARK   12  A    between atoms: N2_16  and  C12_18 
REMARK   13  A    between atoms: C12_18  and  C13_19 
REMARK   14  A    between atoms: C13_19  and  O4_21 
REMARK   15  A    between atoms: O4_21  and  C14_22 
REMARK       I    between atoms: N3_32  and  C24_34 
REMARK   16  A    between atoms: C24_34  and  C25_36 
REMARK   17  A    between atoms: C25_36  and  N4_37 
REMARK       I    between atoms: N4_37  and  C26_39 
REMARK       I    between atoms: C26_39  and  N5_41 
ROOT
HETATM    1  C7  UNL     1     -17.247   2.605   0.019  1.00  0.00     0.034 C 
ENDROOT
BRANCH   1   2
HETATM    2  C6  UNL     1     -18.532   1.819   0.477  1.00  0.00     0.084 C 
BRANCH   2   3
HETATM    3  C5  UNL     1     -18.308   1.620   1.933  1.00  0.00     0.025 C 
BRANCH   3   4
HETATM    4  C4  UNL     1     -17.501   0.497   2.425  1.00  0.00     0.002 C 
BRANCH   4   5
HETATM    5  C3  UNL     1     -17.490   0.167   3.852  1.00  0.00    -0.000 C 
BRANCH   5   6
HETATM    6  C2  UNL     1     -18.371   0.858   4.811  1.00  0.00    -0.005 C 
HETATM    7  C1  UNL     1     -18.659   0.160   6.096  1.00  0.00     0.005 C 
ENDBRANCH   5   6
ENDBRANCH   4   5
ENDBRANCH   3   4
ENDBRANCH   2   3
BRANCH   2   8
HETATM    8  N3  UNL     1     -18.432   0.497  -0.147  1.00  0.00    -0.355 N 
HETATM    9  C24 UNL     1     -18.663   0.078  -1.435  1.00  0.00     0.235 C 
HETATM   10  O5  UNL     1     -19.015   0.792  -2.377  1.00  0.00    -0.272 OA
ATOM     11  H3  UNL     1     -18.138  -0.245   0.488  1.00  0.00     0.162 HD
BRANCH   9  12
HETATM   12  C25 UNL     1     -18.459  -1.390  -1.728  1.00  0.00     0.227 C 
BRANCH  12  13
HETATM   13  N4  UNL     1     -17.939  -2.103  -0.549  1.00  0.00    -0.334 N 
HETATM   14  C26 UNL     1     -18.683  -3.146   0.000  1.00  0.00     0.318 C 
HETATM   15  O6  UNL     1     -19.799  -3.441  -0.557  1.00  0.00    -0.247 OA
HETATM   16  N5  UNL     1     -18.320  -3.936   1.129  1.00  0.00    -0.334 N 
HETATM   17  C27 UNL     1     -17.176  -3.614   1.889  1.00  0.00     0.127 C 
HETATM   18  C34 UNL     1     -19.210  -5.092   1.310  1.00  0.00     0.136 C 
HETATM   19  C28 UNL     1     -17.295  -3.585   3.370  1.00  0.00     0.020 C 
HETATM   20  C29 UNL     1     -18.588  -3.957   3.974  1.00  0.00     0.002 C 
HETATM   21  C30 UNL     1     -19.065  -5.340   3.769  1.00  0.00     0.010 C 
HETATM   22  C31 UNL     1     -18.779  -5.955   2.433  1.00  0.00    -0.031 C 
HETATM   23  C32 UNL     1     -19.835  -7.121   2.380  1.00  0.00     0.016 C 
HETATM   24  C33 UNL     1     -17.482  -6.655   2.292  1.00  0.00     0.016 C 
ATOM     25  H4  UNL     1     -17.044  -1.836  -0.140  1.00  0.00     0.164 HD
ENDBRANCH  12  13
ENDBRANCH   9  12
ENDBRANCH   2   8
ENDBRANCH   1   2
BRANCH   1  26
HETATM   26  C8  UNL     1     -17.589   4.057  -0.270  1.00  0.00     0.105 C 
BRANCH  26  27
HETATM   27  C9  UNL     1     -17.633   4.295  -1.718  1.00  0.00     0.218 C 
HETATM   28  O1  UNL     1     -16.567   4.788  -2.239  1.00  0.00    -0.274 OA
HETATM   29  N1  UNL     1     -18.692   4.068  -2.627  1.00  0.00    -0.347 N 
ATOM     30  H1  UNL     1     -19.571   3.669  -2.300  1.00  0.00     0.163 HD
BRANCH  29  31
HETATM   31  C10 UNL     1     -18.519   4.406  -4.024  1.00  0.00     0.181 C 
BRANCH  31  32
HETATM   32  C11 UNL     1     -18.590   3.248  -4.947  1.00  0.00     0.241 C 
HETATM   33  O2  UNL     1     -19.577   3.168  -5.716  1.00  0.00    -0.271 OA
HETATM   34  N2  UNL     1     -17.606   2.254  -4.981  1.00  0.00    -0.341 N 
ATOM     35  H2  UNL     1     -16.828   2.381  -4.334  1.00  0.00     0.163 HD
BRANCH  34  36
HETATM   36  C12 UNL     1     -17.545   1.080  -5.806  1.00  0.00     0.121 A 
HETATM   37  C18 UNL     1     -16.961  -0.191  -5.148  1.00  0.00     0.044 A 
HETATM   38  C19 UNL     1     -18.377  -0.111  -5.624  1.00  0.00     0.044 A 
BRANCH  36  39
HETATM   39  C13 UNL     1     -16.983   1.315  -7.208  1.00  0.00     0.288 C 
HETATM   40  O3  UNL     1     -17.290   0.589  -8.150  1.00  0.00    -0.262 OA
BRANCH  39  41
HETATM   41  O4  UNL     1     -16.108   2.374  -7.402  1.00  0.00    -0.309 OA
BRANCH  41  42
HETATM   42  C14 UNL     1     -16.340   3.523  -8.146  1.00  0.00     0.060 C 
HETATM   43  C15 UNL     1     -15.459   3.622  -9.378  1.00  0.00     0.045 C 
HETATM   44  C16 UNL     1     -15.982   4.712  -7.243  1.00  0.00     0.045 C 
HETATM   45  C17 UNL     1     -17.775   3.725  -8.554  1.00  0.00     0.045 C 
ENDBRANCH  41  42
ENDBRANCH  39  41
ENDBRANCH  36  39
ENDBRANCH  34  36
ENDBRANCH  31  32
BRANCH  31  46
HETATM   46  C20 UNL     1     -19.468   5.468  -4.504  1.00  0.00     0.021 A 
HETATM   47  C21 UNL     1     -19.953   6.556  -3.623  1.00  0.00     0.012 A 
HETATM   48  C22 UNL     1     -18.861   6.875  -4.553  1.00  0.00    -0.012 A 
HETATM   49  C23 UNL     1     -19.083   7.620  -5.840  1.00  0.00     0.010 C 
ENDBRANCH  31  46
ENDBRANCH  29  31
ENDBRANCH  26  27
ENDBRANCH   1  26
TORSDOF 17
ENDMDL
MODEL 4
REMARK VINA RESULT: -8.546853886      3.026     11.715
REMARK  17 active torsions:
REMARK  status: ('A' for Active; 'I' for Inactive)
REMARK    1  A    between atoms: C2_2  and  C3_3 
REMARK    2  A    between atoms: C3_3  and  C4_4 
REMARK    3  A    between atoms: C4_4  and  C5_5 
REMARK    4  A    between atoms: C5_5  and  C6_6 
REMARK    5  A    between atoms: C6_6  and  C7_7 
REMARK    6  A    between atoms: C6_6  and  N3_32 
REMARK    7  A    between atoms: C7_7  and  C8_8 
REMARK    8  A    between atoms: C8_8  and  C9_9 
REMARK       I    between atoms: C9_9  and  N1_11 
REMARK    9  A    between atoms: N1_11  and  C10_13 
REMARK   10  A    between atoms: C10_13  and  C11_14 
REMARK   11  A    between atoms: C10_13  and  C20_28 
REMARK       I    between atoms: C11_14  and  N2_16 
REMARK   12  A    between atoms: N2_16  and  C12_18 
REMARK   13  A    between atoms: C12_18  and  C13_19 
REMARK   14  A    between atoms: C13_19  and  O4_21 
REMARK   15  A    between atoms: O4_21  and  C14_22 
REMARK       I    between atoms: N3_32  and  C24_34 
REMARK   16  A    between atoms: C24_34  and  C25_36 
REMARK   17  A    between atoms: C25_36  and  N4_37 
REMARK       I    between atoms: N4_37  and  C26_39 
REMARK       I    between atoms: C26_39  and  N5_41 
ROOT
HETATM    1  C7  UNL     1     -19.834   3.392  -0.424  1.00  0.00     0.034 C 
ENDROOT
BRANCH   1   2
HETATM    2  C6  UNL     1     -18.837   2.177  -0.503  1.00  0.00     0.084 C 
BRANCH   2   3
HETATM    3  C5  UNL     1     -19.237   1.490  -1.758  1.00  0.00     0.025 C 
BRANCH   3   4
HETATM    4  C4  UNL     1     -18.294   0.624  -2.477  1.00  0.00     0.002 C 
BRANCH   4   5
HETATM    5  C3  UNL     1     -18.453  -0.831  -2.439  1.00  0.00    -0.000 C 
BRANCH   5   6
HETATM    6  C2  UNL     1     -18.094  -1.616  -1.243  1.00  0.00    -0.005 C 
HETATM    7  C1  UNL     1     -16.751  -1.370  -0.645  1.00  0.00     0.005 C 
ENDBRANCH   5   6
ENDBRANCH   4   5
ENDBRANCH   3   4
ENDBRANCH   2   3
BRANCH   2   8
HETATM    8  N3  UNL     1     -19.210   1.286   0.599  1.00  0.00    -0.355 N 
HETATM    9  C24 UNL     1     -18.507   0.854   1.699  1.00  0.00     0.235 C 
HETATM   10  O5  UNL     1     -17.350   1.166   1.988  1.00  0.00    -0.272 OA
ATOM     11  H3  UNL     1     -20.160   0.920   0.540  1.00  0.00     0.162 HD
BRANCH   9  12
HETATM   12  C25 UNL     1     -19.220  -0.084   2.646  1.00  0.00     0.227 C 
BRANCH  12  13
HETATM   13  N4  UNL     1     -19.234  -1.461   2.123  1.00  0.00    -0.334 N 
HETATM   14  C26 UNL     1     -18.246  -2.356   2.534  1.00  0.00     0.318 C 
HETATM   15  O6  UNL     1     -17.363  -1.932   3.360  1.00  0.00    -0.247 OA
HETATM   16  N5  UNL     1     -18.123  -3.717   2.130  1.00  0.00    -0.334 N 
HETATM   17  C27 UNL     1     -18.966  -4.245   1.130  1.00  0.00     0.127 C 
HETATM   18  C34 UNL     1     -17.113  -4.441   2.915  1.00  0.00     0.136 C 
HETATM   19  C28 UNL     1     -18.354  -5.045   0.038  1.00  0.00     0.020 C 
HETATM   20  C29 UNL     1     -16.902  -5.300   0.088  1.00  0.00     0.002 C 
HETATM   21  C30 UNL     1     -16.387  -6.096   1.222  1.00  0.00     0.010 C 
HETATM   22  C31 UNL     1     -17.047  -5.874   2.549  1.00  0.00    -0.031 C 
HETATM   23  C32 UNL     1     -15.961  -6.423   3.547  1.00  0.00     0.016 C 
HETATM   24  C33 UNL     1     -18.237  -6.705   2.841  1.00  0.00     0.016 C 
ATOM     25  H4  UNL     1     -19.958  -1.756   1.469  1.00  0.00     0.164 HD
ENDBRANCH  12  13
ENDBRANCH   9  12
ENDBRANCH   2   8
ENDBRANCH   1   2
BRANCH   1  26
HETATM   26  C8  UNL     1     -19.085   4.704  -0.585  1.00  0.00     0.105 C 
BRANCH  26  27
HETATM   27  C9  UNL     1     -18.528   4.813  -1.939  1.00  0.00     0.218 C 
HETATM   28  O1  UNL     1     -17.285   5.134  -2.012  1.00  0.00    -0.274 OA
HETATM   29  N1  UNL     1     -19.169   4.624  -3.184  1.00  0.00    -0.347 N 
ATOM     30  H1  UNL     1     -20.153   4.358  -3.220  1.00  0.00     0.163 HD
BRANCH  29  31
HETATM   31  C10 UNL     1     -18.421   4.812  -4.409  1.00  0.00     0.181 C 
BRANCH  31  32
HETATM   32  C11 UNL     1     -18.298   3.593  -5.245  1.00  0.00     0.241 C 
HETATM   33  O2  UNL     1     -19.311   3.206  -5.873  1.00  0.00    -0.271 OA
HETATM   34  N2  UNL     1     -17.104   2.871  -5.346  1.00  0.00    -0.341 N 
ATOM     35  H2  UNL     1     -16.317   3.242  -4.814  1.00  0.00     0.163 HD
BRANCH  34  36
HETATM   36  C12 UNL     1     -16.838   1.678  -6.100  1.00  0.00     0.121 A 
HETATM   37  C18 UNL     1     -15.837   0.680  -5.476  1.00  0.00     0.044 A 
HETATM   38  C19 UNL     1     -17.273   0.334  -5.715  1.00  0.00     0.044 A 
BRANCH  36  39
HETATM   39  C13 UNL     1     -16.571   1.911  -7.587  1.00  0.00     0.288 C 
HETATM   40  O3  UNL     1     -17.188   1.295  -8.452  1.00  0.00    -0.262 OA
BRANCH  39  41
HETATM   41  O4  UNL     1     -15.605   2.839  -7.950  1.00  0.00    -0.309 OA
BRANCH  41  42
HETATM   42  C14 UNL     1     -15.804   4.021  -8.651  1.00  0.00     0.060 C 
HETATM   43  C15 UNL     1     -15.258   3.972 -10.065  1.00  0.00     0.045 C 
HETATM   44  C16 UNL     1     -15.022   5.112  -7.905  1.00  0.00     0.045 C 
HETATM   45  C17 UNL     1     -17.235   4.489  -8.695  1.00  0.00     0.045 C 
ENDBRANCH  41  42
ENDBRANCH  39  41
ENDBRANCH  36  39
ENDBRANCH  34  36
ENDBRANCH  31  32
BRANCH  31  46
HETATM   46  C20 UNL     1     -18.943   5.935  -5.263  1.00  0.00     0.021 A 
HETATM   47  C21 UNL     1     -19.338   7.244  -4.695  1.00  0.00     0.012 A 
HETATM   48  C22 UNL     1     -18.016   7.153  -5.330  1.00  0.00    -0.012 A 
HETATM   49  C23 UNL     1     -17.744   7.670  -6.716  1.00  0.00     0.010 C 
ENDBRANCH  31  46
ENDBRANCH  29  31
ENDBRANCH  26  27
ENDBRANCH   1  26
TORSDOF 17
ENDMDL
MODEL 5
REMARK VINA RESULT: -8.375954736      2.408      4.810
REMARK  17 active torsions:
REMARK  status: ('A' for Active; 'I' for Inactive)
REMARK    1  A    between atoms: C2_2  and  C3_3 
REMARK    2  A    between atoms: C3_3  and  C4_4 
REMARK    3  A    between atoms: C4_4  and  C5_5 
REMARK    4  A    between atoms: C5_5  and  C6_6 
REMARK    5  A    between atoms: C6_6  and  C7_7 
REMARK    6  A    between atoms: C6_6  and  N3_32 
REMARK    7  A    between atoms: C7_7  and  C8_8 
REMARK    8  A    between atoms: C8_8  and  C9_9 
REMARK       I    between atoms: C9_9  and  N1_11 
REMARK    9  A    between atoms: N1_11  and  C10_13 
REMARK   10  A    between atoms: C10_13  and  C11_14 
REMARK   11  A    between atoms: C10_13  and  C20_28 
REMARK       I    between atoms: C11_14  and  N2_16 
REMARK   12  A    between atoms: N2_16  and  C12_18 
REMARK   13  A    between atoms: C12_18  and  C13_19 
REMARK   14  A    between atoms: C13_19  and  O4_21 
REMARK   15  A    between atoms: O4_21  and  C14_22 
REMARK       I    between atoms: N3_32  and  C24_34 
REMARK   16  A    between atoms: C24_34  and  C25_36 
REMARK   17  A    between atoms: C25_36  and  N4_37 
REMARK       I    between atoms: N4_37  and  C26_39 
REMARK       I    between atoms: C26_39  and  N5_41 
ROOT
HETATM    1  C7  UNL     1     -16.890   0.086   1.918  1.00  0.00     0.034 C 
ENDROOT
BRANCH   1   2
HETATM    2  C6  UNL     1     -17.842   1.311   2.186  1.00  0.00     0.084 C 
BRANCH   2   3
HETATM    3  C5  UNL     1     -18.731   0.819   3.270  1.00  0.00     0.025 C 
BRANCH   3   4
HETATM    4  C4  UNL     1     -18.493   1.194   4.669  1.00  0.00     0.002 C 
BRANCH   4   5
HETATM    5  C3  UNL     1     -18.262   0.160   5.680  1.00  0.00    -0.000 C 
BRANCH   5   6
HETATM    6  C2  UNL     1     -17.145  -0.796   5.566  1.00  0.00    -0.005 C 
HETATM    7  C1  UNL     1     -15.791  -0.232   5.306  1.00  0.00     0.005 C 
ENDBRANCH   5   6
ENDBRANCH   4   5
ENDBRANCH   3   4
ENDBRANCH   2   3
BRANCH   2   8
HETATM    8  N3  UNL     1     -18.674   1.437   0.986  1.00  0.00    -0.355 N 
HETATM    9  C24 UNL     1     -18.644   2.337  -0.052  1.00  0.00     0.235 C 
HETATM   10  O5  UNL     1     -17.846   3.268  -0.181  1.00  0.00    -0.272 OA
ATOM     11  H3  UNL     1     -19.406   0.732   0.908  1.00  0.00     0.162 HD
BRANCH   9  12
HETATM   12  C25 UNL     1     -19.677   2.165  -1.141  1.00  0.00     0.227 C 
BRANCH  12  13
HETATM   13  N4  UNL     1     -19.173   1.306  -2.225  1.00  0.00    -0.334 N 
HETATM   14  C26 UNL     1     -18.622   1.896  -3.363  1.00  0.00     0.318 C 
HETATM   15  O6  UNL     1     -18.579   3.176  -3.409  1.00  0.00    -0.247 OA
HETATM   16  N5  UNL     1     -18.087   1.211  -4.492  1.00  0.00    -0.334 N 
HETATM   17  C27 UNL     1     -18.200  -0.191  -4.597  1.00  0.00     0.127 C 
HETATM   18  C34 UNL     1     -17.386   2.118  -5.413  1.00  0.00     0.136 C 
HETATM   19  C28 UNL     1     -18.660  -0.770  -5.886  1.00  0.00     0.020 C 
HETATM   20  C29 UNL     1     -18.914   0.148  -7.012  1.00  0.00     0.002 C 
HETATM   21  C30 UNL     1     -17.767   0.914  -7.543  1.00  0.00     0.010 C 
HETATM   22  C31 UNL     1     -16.760   1.390  -6.540  1.00  0.00    -0.031 C 
HETATM   23  C32 UNL     1     -16.042   2.549  -7.326  1.00  0.00     0.016 C 
HETATM   24  C33 UNL     1     -15.658   0.456  -6.217  1.00  0.00     0.016 C 
ATOM     25  H4  UNL     1     -19.225   0.291  -2.145  1.00  0.00     0.164 HD
ENDBRANCH  12  13
ENDBRANCH   9  12
ENDBRANCH   2   8
ENDBRANCH   1   2
BRANCH   1  26
HETATM   26  C8  UNL     1     -17.614  -0.982   1.117  1.00  0.00     0.105 C 
BRANCH  26  27
HETATM   27  C9  UNL     1     -17.507  -2.285   1.785  1.00  0.00     0.218 C 
HETATM   28  O1  UNL     1     -16.551  -3.046   1.384  1.00  0.00    -0.274 OA
HETATM   29  N1  UNL     1     -18.316  -2.833   2.807  1.00  0.00    -0.347 N 
ATOM     30  H1  UNL     1     -19.091  -2.294   3.191  1.00  0.00     0.163 HD
BRANCH  29  31
HETATM   31  C10 UNL     1     -18.036  -4.164   3.303  1.00  0.00     0.181 C 
BRANCH  31  32
HETATM   32  C11 UNL     1     -18.014  -4.274   4.782  1.00  0.00     0.241 C 
HETATM   33  O2  UNL     1     -19.106  -4.207   5.393  1.00  0.00    -0.271 OA
HETATM   34  N2  UNL     1     -16.827  -4.440   5.503  1.00  0.00    -0.341 N 
ATOM     35  H2  UNL     1     -15.974  -4.491   4.945  1.00  0.00     0.163 HD
BRANCH  34  36
HETATM   36  C12 UNL     1     -16.648  -4.551   6.924  1.00  0.00     0.121 A 
HETATM   37  C18 UNL     1     -15.644  -3.568   7.568  1.00  0.00     0.044 A 
HETATM   38  C19 UNL     1     -17.103  -3.560   7.900  1.00  0.00     0.044 A 
BRANCH  36  39
HETATM   39  C13 UNL     1     -16.466  -5.980   7.434  1.00  0.00     0.288 C 
HETATM   40  O3  UNL     1     -16.941  -6.343   8.507  1.00  0.00    -0.262 OA
BRANCH  39  41
HETATM   41  O4  UNL     1     -15.742  -6.874   6.656  1.00  0.00    -0.309 OA
BRANCH  41  42
HETATM   42  C14 UNL     1     -14.363  -7.030   6.630  1.00  0.00     0.060 C 
HETATM   43  C15 UNL     1     -13.718  -6.409   5.404  1.00  0.00     0.045 C 
HETATM   44  C16 UNL     1     -14.092  -8.540   6.563  1.00  0.00     0.045 C 
HETATM   45  C17 UNL     1     -13.653  -6.532   7.861  1.00  0.00     0.045 C 
ENDBRANCH  41  42
ENDBRANCH  39  41
ENDBRANCH  36  39
ENDBRANCH  34  36
ENDBRANCH  31  32
BRANCH  31  46
HETATM   46  C20 UNL     1     -18.962  -5.213   2.753  1.00  0.00     0.021 A 
HETATM   47  C21 UNL     1     -19.035  -5.527   1.307  1.00  0.00     0.012 A 
HETATM   48  C22 UNL     1     -18.245  -6.429   2.156  1.00  0.00    -0.012 A 
HETATM   49  C23 UNL     1     -18.760  -7.764   2.622  1.00  0.00     0.010 C 
ENDBRANCH  31  46
ENDBRANCH  29  31
ENDBRANCH  26  27
ENDBRANCH   1  26
TORSDOF 17
ENDMDL
