MODEL 1
REMARK VINA RESULT: -8.667184178      0.000      0.000
REMARK  16 active torsions:
REMARK  status: ('A' for Active; 'I' for Inactive)
REMARK    1  A    between atoms: C2_2  and  C4_4 
REMARK    2  A    between atoms: C4_4  and  N1_5 
REMARK       I    between atoms: N1_5  and  C5_7 
REMARK    3  A    between atoms: C5_7  and  C6_9 
REMARK    4  A    between atoms: C6_9  and  C7_10 
REMARK    5  A    between atoms: C7_10  and  C8_11 
REMARK    6  A    between atoms: C8_11  and  N2_12 
REMARK    7  A    between atoms: C8_11  and  C17_25 
REMARK       I    between atoms: N2_12  and  C9_14 
REMARK       I    between atoms: C9_14  and  N3_16 
REMARK    8  A    between atoms: N3_16  and  C10_18 
REMARK       I    between atoms: C17_25  and  N4_27 
REMARK    9  A    between atoms: N4_27  and  C18_28 
REMARK   10  A    between atoms: N4_27  and  C30_45 
REMARK   11  A    between atoms: C18_28  and  C19_29 
REMARK   12  A    between atoms: C19_29  and  C20_30 
REMARK       I    between atoms: C20_30  and  N5_32 
REMARK   13  A    between atoms: C24_36  and  C25_37 
REMARK       I    between atoms: C25_37  and  N6_39 
REMARK   14  A    between atoms: N6_39  and  C26_41 
REMARK   15  A    between atoms: C26_41  and  C27_42 
REMARK   16  A    between atoms: C30_45  and  C31_46 
ROOT
HETATM    1  C17 UNL     1     -17.768   2.924  -0.587  1.00  0.00     0.242 C 
HETATM    2  O3  UNL     1     -17.019   3.678   0.144  1.00  0.00    -0.271 OA
HETATM    3  N4  UNL     1     -17.977   1.594  -0.134  1.00  0.00    -0.349 N 
ENDROOT
BRANCH   1   4
HETATM    4  C8  UNL     1     -18.293   3.570  -1.786  1.00  0.00     0.179 C 
BRANCH   4   5
HETATM    5  C7  UNL     1     -18.344   5.109  -1.584  1.00  0.00     0.044 C 
BRANCH   5   6
HETATM    6  C6  UNL     1     -19.491   5.760  -2.228  1.00  0.00     0.105 C 
BRANCH   6   7
HETATM    7  C5  UNL     1     -19.118   6.646  -3.353  1.00  0.00     0.217 C 
HETATM    8  N1  UNL     1     -18.909   6.095  -4.673  1.00  0.00    -0.357 N 
ATOM      9  H1  UNL     1     -19.016   5.094  -4.837  1.00  0.00     0.162 HD
HETATM   10  O1  UNL     1     -18.978   7.869  -3.187  1.00  0.00    -0.274 OA
BRANCH   8  11
HETATM   11  C4  UNL     1     -18.552   6.963  -5.740  1.00  0.00     0.155 C 
BRANCH  11  12
HETATM   12  C2  UNL     1     -17.235   6.763  -6.339  1.00  0.00    -0.075 C 
HETATM   13  C1  UNL     1     -16.230   6.215  -5.727  1.00  0.00     0.015 C 
HETATM   14  C3  UNL     1     -17.048   7.227  -7.761  1.00  0.00     0.044 C 
ENDBRANCH  11  12
ENDBRANCH   8  11
ENDBRANCH   6   7
ENDBRANCH   5   6
ENDBRANCH   4   5
BRANCH   4  15
HETATM   15  N2  UNL     1     -17.450   3.340  -2.937  1.00  0.00    -0.330 N 
HETATM   16  C9  UNL     1     -17.666   2.529  -4.051  1.00  0.00     0.317 C 
HETATM   17  O2  UNL     1     -18.658   1.826  -4.325  1.00  0.00    -0.247 OA
HETATM   18  N3  UNL     1     -16.614   2.474  -5.048  1.00  0.00    -0.334 N 
ATOM     19  H3  UNL     1     -15.762   3.016  -4.905  1.00  0.00     0.165 HD
ATOM     20  H2  UNL     1     -16.566   3.848  -2.935  1.00  0.00     0.165 HD
BRANCH  18  21
HETATM   21  C10 UNL     1     -16.745   1.667  -6.243  1.00  0.00     0.031 C 
HETATM   22  C11 UNL     1     -16.223   0.287  -5.905  1.00  0.00     0.038 C 
HETATM   23  C12 UNL     1     -18.210   1.558  -6.538  1.00  0.00     0.031 C 
HETATM   24  C13 UNL     1     -18.554   1.943  -7.957  1.00  0.00     0.002 C 
HETATM   25  C14 UNL     1     -18.090   3.377  -8.108  1.00  0.00     0.000 C 
HETATM   26  C15 UNL     1     -16.605   3.368  -8.106  1.00  0.00     0.002 C 
HETATM   27  C16 UNL     1     -15.939   2.292  -7.334  1.00  0.00     0.031 C 
ENDBRANCH  18  21
ENDBRANCH   4  15
ENDBRANCH   1   4
BRANCH   3  28
HETATM   28  C18 UNL     1     -17.396   1.203   1.165  1.00  0.00     0.135 C 
BRANCH  28  29
HETATM   29  C19 UNL     1     -18.441   0.857   2.184  1.00  0.00     0.123 C 
BRANCH  29  30
HETATM   30  C20 UNL     1     -17.937  -0.306   2.974  1.00  0.00     0.222 C 
HETATM   31  O4  UNL     1     -17.458  -1.282   2.335  1.00  0.00    -0.273 OA
HETATM   32  N5  UNL     1     -17.970  -0.358   4.388  1.00  0.00    -0.339 N 
HETATM   33  C21 UNL     1     -18.523   0.702   5.221  1.00  0.00     0.127 C 
HETATM   34  C24 UNL     1     -17.464  -1.439   5.193  1.00  0.00     0.179 C 
HETATM   35  C22 UNL     1     -18.762   0.004   6.550  1.00  0.00     0.022 C 
HETATM   36  C23 UNL     1     -17.702  -1.039   6.640  1.00  0.00     0.037 C 
BRANCH  34  37
HETATM   37  C25 UNL     1     -18.102  -2.739   4.903  1.00  0.00     0.240 C 
HETATM   38  O5  UNL     1     -19.248  -3.024   5.332  1.00  0.00    -0.271 OA
HETATM   39  N6  UNL     1     -17.396  -3.684   4.116  1.00  0.00    -0.359 N 
ATOM     40  H6  UNL     1     -16.464  -3.452   3.774  1.00  0.00     0.162 HD
BRANCH  39  41
HETATM   41  C26 UNL     1     -17.969  -4.968   3.791  1.00  0.00     0.126 C 
BRANCH  41  42
HETATM   42  C27 UNL     1     -18.549  -4.971   2.385  1.00  0.00    -0.005 C 
HETATM   43  C28 UNL     1     -19.318  -6.255   2.152  1.00  0.00     0.011 C 
HETATM   44  C29 UNL     1     -17.430  -4.939   1.356  1.00  0.00     0.011 C 
ENDBRANCH  41  42
ENDBRANCH  39  41
ENDBRANCH  34  37
ENDBRANCH  29  30
ENDBRANCH  28  29
ENDBRANCH   3  28
BRANCH   3  45
HETATM   45  C30 UNL     1     -18.687   0.585  -0.841  1.00  0.00     0.134 C 
BRANCH  45  46
HETATM   46  C31 UNL     1     -17.903  -0.472  -1.520  1.00  0.00    -0.035 C 
HETATM   47  C32 UNL     1     -16.525  -0.118  -1.962  1.00  0.00     0.016 C 
HETATM   48  C33 UNL     1     -17.865  -1.807  -0.806  1.00  0.00     0.016 C 
HETATM   49  C34 UNL     1     -18.680  -0.782  -2.831  1.00  0.00     0.016 C 
ENDBRANCH  45  46
ENDBRANCH   3  45
TORSDOF 16
ENDMDL
MODEL 2
REMARK VINA RESULT: -8.665537141      1.073      1.270
REMARK  16 active torsions:
REMARK  status: ('A' for Active; 'I' for Inactive)
REMARK    1  A    between atoms: C2_2  and  C4_4 
REMARK    2  A    between atoms: C4_4  and  N1_5 
REMARK       I    between atoms: N1_5  and  C5_7 
REMARK    3  A    between atoms: C5_7  and  C6_9 
REMARK    4  A    between atoms: C6_9  and  C7_10 
REMARK    5  A    between atoms: C7_10  and  C8_11 
REMARK    6  A    between atoms: C8_11  and  N2_12 
REMARK    7  A    between atoms: C8_11  and  C17_25 
REMARK       I    between atoms: N2_12  and  C9_14 
REMARK       I    between atoms: C9_14  and  N3_16 
REMARK    8  A    between atoms: N3_16  and  C10_18 
REMARK       I    between atoms: C17_25  and  N4_27 
REMARK    9  A    between atoms: N4_27  and  C18_28 
REMARK   10  A    between atoms: N4_27  and  C30_45 
REMARK   11  A    between atoms: C18_28  and  C19_29 
REMARK   12  A    between atoms: C19_29  and  C20_30 
REMARK       I    between atoms: C20_30  and  N5_32 
REMARK   13  A    between atoms: C24_36  and  C25_37 
REMARK       I    between atoms: C25_37  and  N6_39 
REMARK   14  A    between atoms: N6_39  and  C26_41 
REMARK   15  A    between atoms: C26_41  and  C27_42 
REMARK   16  A    between atoms: C30_45  and  C31_46 
ROOT
HETATM    1  C17 UNL     1     -17.900   2.762  -0.550  1.00  0.00     0.242 C 
HETATM    2  O3  UNL     1     -17.155   3.587   0.104  1.00  0.00    -0.271 OA
HETATM    3  N4  UNL     1     -18.030   1.453  -0.015  1.00  0.00    -0.349 N 
ENDROOT
BRANCH   1   4
HETATM    4  C8  UNL     1     -18.503   3.315  -1.759  1.00  0.00     0.179 C 
BRANCH   4   5
HETATM    5  C7  UNL     1     -18.783   4.831  -1.569  1.00  0.00     0.044 C 
BRANCH   5   6
HETATM    6  C6  UNL     1     -19.198   5.521  -2.797  1.00  0.00     0.105 C 
BRANCH   6   7
HETATM    7  C5  UNL     1     -18.571   6.850  -2.972  1.00  0.00     0.217 C 
HETATM    8  N1  UNL     1     -17.151   7.017  -2.760  1.00  0.00    -0.357 N 
ATOM      9  H1  UNL     1     -16.573   6.223  -2.487  1.00  0.00     0.162 HD
HETATM   10  O1  UNL     1     -19.246   7.839  -3.304  1.00  0.00    -0.274 OA
BRANCH   8  11
HETATM   11  C4  UNL     1     -16.568   8.302  -2.935  1.00  0.00     0.155 C 
BRANCH  11  12
HETATM   12  C2  UNL     1     -15.328   8.362  -3.703  1.00  0.00    -0.075 C 
HETATM   13  C1  UNL     1     -14.758   9.464  -4.085  1.00  0.00     0.015 C 
HETATM   14  C3  UNL     1     -14.680   7.051  -4.068  1.00  0.00     0.044 C 
ENDBRANCH  11  12
ENDBRANCH   8  11
ENDBRANCH   6   7
ENDBRANCH   5   6
ENDBRANCH   4   5
BRANCH   4  15
HETATM   15  N2  UNL     1     -17.625   3.205  -2.901  1.00  0.00    -0.330 N 
HETATM   16  C9  UNL     1     -17.708   2.365  -4.011  1.00  0.00     0.317 C 
HETATM   17  O2  UNL     1     -18.583   1.522  -4.289  1.00  0.00    -0.247 OA
HETATM   18  N3  UNL     1     -16.649   2.459  -4.999  1.00  0.00    -0.334 N 
ATOM     19  H3  UNL     1     -15.887   3.121  -4.851  1.00  0.00     0.165 HD
ATOM     20  H2  UNL     1     -16.823   3.836  -2.894  1.00  0.00     0.165 HD
BRANCH  18  21
HETATM   21  C10 UNL     1     -16.650   1.635  -6.188  1.00  0.00     0.031 C 
HETATM   22  C11 UNL     1     -15.826   0.404  -5.876  1.00  0.00     0.038 C 
HETATM   23  C12 UNL     1     -18.066   1.208  -6.425  1.00  0.00     0.031 C 
HETATM   24  C13 UNL     1     -18.541   1.500  -7.827  1.00  0.00     0.002 C 
HETATM   25  C14 UNL     1     -18.407   3.000  -7.994  1.00  0.00     0.000 C 
HETATM   26  C15 UNL     1     -16.957   3.314  -8.052  1.00  0.00     0.002 C 
HETATM   27  C16 UNL     1     -16.043   2.413  -7.309  1.00  0.00     0.031 C 
ENDBRANCH  18  21
ENDBRANCH   4  15
ENDBRANCH   1   4
BRANCH   3  28
HETATM   28  C18 UNL     1     -17.379   1.162   1.277  1.00  0.00     0.135 C 
BRANCH  28  29
HETATM   29  C19 UNL     1     -18.365   0.880   2.371  1.00  0.00     0.123 C 
BRANCH  29  30
HETATM   30  C20 UNL     1     -17.865  -0.299   3.139  1.00  0.00     0.222 C 
HETATM   31  O4  UNL     1     -17.386  -1.264   2.484  1.00  0.00    -0.273 OA
HETATM   32  N5  UNL     1     -17.902  -0.378   4.552  1.00  0.00    -0.339 N 
HETATM   33  C21 UNL     1     -18.456   0.667   5.403  1.00  0.00     0.127 C 
HETATM   34  C24 UNL     1     -17.401  -1.474   5.339  1.00  0.00     0.179 C 
HETATM   35  C22 UNL     1     -18.700  -0.056   6.719  1.00  0.00     0.022 C 
HETATM   36  C23 UNL     1     -17.641  -1.101   6.792  1.00  0.00     0.037 C 
BRANCH  34  37
HETATM   37  C25 UNL     1     -18.040  -2.768   5.022  1.00  0.00     0.240 C 
HETATM   38  O5  UNL     1     -19.190  -3.056   5.437  1.00  0.00    -0.271 OA
HETATM   39  N6  UNL     1     -17.329  -3.702   4.226  1.00  0.00    -0.359 N 
ATOM     40  H6  UNL     1     -16.394  -3.467   3.895  1.00  0.00     0.162 HD
BRANCH  39  41
HETATM   41  C26 UNL     1     -17.904  -4.979   3.875  1.00  0.00     0.126 C 
BRANCH  41  42
HETATM   42  C27 UNL     1     -18.371  -4.993   2.428  1.00  0.00    -0.005 C 
HETATM   43  C28 UNL     1     -19.239  -6.210   2.182  1.00  0.00     0.011 C 
HETATM   44  C29 UNL     1     -17.179  -5.110   1.492  1.00  0.00     0.011 C 
ENDBRANCH  41  42
ENDBRANCH  39  41
ENDBRANCH  34  37
ENDBRANCH  29  30
ENDBRANCH  28  29
ENDBRANCH   3  28
BRANCH   3  45
HETATM   45  C30 UNL     1     -18.725   0.375  -0.632  1.00  0.00     0.134 C 
BRANCH  45  46
HETATM   46  C31 UNL     1     -17.926  -0.657  -1.332  1.00  0.00    -0.035 C 
HETATM   47  C32 UNL     1     -16.561  -0.268  -1.785  1.00  0.00     0.016 C 
HETATM   48  C33 UNL     1     -17.852  -1.998  -0.634  1.00  0.00     0.016 C 
HETATM   49  C34 UNL     1     -18.711  -0.968  -2.637  1.00  0.00     0.016 C 
ENDBRANCH  45  46
ENDBRANCH   3  45
TORSDOF 16
ENDMDL
MODEL 3
REMARK VINA RESULT: -8.620034193      2.573     11.724
REMARK  16 active torsions:
REMARK  status: ('A' for Active; 'I' for Inactive)
REMARK    1  A    between atoms: C2_2  and  C4_4 
REMARK    2  A    between atoms: C4_4  and  N1_5 
REMARK       I    between atoms: N1_5  and  C5_7 
REMARK    3  A    between atoms: C5_7  and  C6_9 
REMARK    4  A    between atoms: C6_9  and  C7_10 
REMARK    5  A    between atoms: C7_10  and  C8_11 
REMARK    6  A    between atoms: C8_11  and  N2_12 
REMARK    7  A    between atoms: C8_11  and  C17_25 
REMARK       I    between atoms: N2_12  and  C9_14 
REMARK       I    between atoms: C9_14  and  N3_16 
REMARK    8  A    between atoms: N3_16  and  C10_18 
REMARK       I    between atoms: C17_25  and  N4_27 
REMARK    9  A    between atoms: N4_27  and  C18_28 
REMARK   10  A    between atoms: N4_27  and  C30_45 
REMARK   11  A    between atoms: C18_28  and  C19_29 
REMARK   12  A    between atoms: C19_29  and  C20_30 
REMARK       I    between atoms: C20_30  and  N5_32 
REMARK   13  A    between atoms: C24_36  and  C25_37 
REMARK       I    between atoms: C25_37  and  N6_39 
REMARK   14  A    between atoms: N6_39  and  C26_41 
REMARK   15  A    between atoms: C26_41  and  C27_42 
REMARK   16  A    between atoms: C30_45  and  C31_46 
ROOT
HETATM    1  C17 UNL     1     -16.936  -2.913   0.206  1.00  0.00     0.242 C 
HETATM    2  O3  UNL     1     -16.032  -3.317  -0.622  1.00  0.00    -0.271 OA
HETATM    3  N4  UNL     1     -17.461  -1.611  -0.004  1.00  0.00    -0.349 N 
ENDROOT
BRANCH   1   4
HETATM    4  C8  UNL     1     -17.281  -3.878   1.245  1.00  0.00     0.179 C 
BRANCH   4   5
HETATM    5  C7  UNL     1     -16.544  -5.221   0.992  1.00  0.00     0.044 C 
BRANCH   5   6
HETATM    6  C6  UNL     1     -17.041  -6.339   1.804  1.00  0.00     0.105 C 
BRANCH   6   7
HETATM    7  C5  UNL     1     -16.058  -6.840   2.791  1.00  0.00     0.217 C 
HETATM    8  N1  UNL     1     -14.829  -6.116   3.023  1.00  0.00    -0.357 N 
ATOM      9  H1  UNL     1     -14.630  -5.258   2.509  1.00  0.00     0.162 HD
HETATM   10  O1  UNL     1     -16.268  -7.882   3.433  1.00  0.00    -0.274 OA
BRANCH   8  11
HETATM   11  C4  UNL     1     -13.899  -6.614   3.976  1.00  0.00     0.155 C 
BRANCH  11  12
HETATM   12  C2  UNL     1     -12.566  -6.948   3.482  1.00  0.00    -0.075 C 
HETATM   13  C1  UNL     1     -11.830  -6.152   2.768  1.00  0.00     0.015 C 
HETATM   14  C3  UNL     1     -12.023  -8.309   3.834  1.00  0.00     0.044 C 
ENDBRANCH  11  12
ENDBRANCH   8  11
ENDBRANCH   6   7
ENDBRANCH   5   6
ENDBRANCH   4   5
BRANCH   4  15
HETATM   15  N2  UNL     1     -16.870  -3.431   2.556  1.00  0.00    -0.330 N 
HETATM   16  C9  UNL     1     -17.581  -3.419   3.757  1.00  0.00     0.317 C 
HETATM   17  O2  UNL     1     -18.740  -3.818   3.982  1.00  0.00    -0.247 OA
HETATM   18  N3  UNL     1     -16.910  -2.876   4.923  1.00  0.00    -0.334 N 
ATOM     19  H3  UNL     1     -15.958  -2.522   4.830  1.00  0.00     0.165 HD
ATOM     20  H2  UNL     1     -15.918  -3.070   2.613  1.00  0.00     0.165 HD
BRANCH  18  21
HETATM   21  C10 UNL     1     -17.560  -2.826   6.215  1.00  0.00     0.031 C 
HETATM   22  C11 UNL     1     -17.652  -4.250   6.720  1.00  0.00     0.038 C 
HETATM   23  C12 UNL     1     -16.657  -2.057   7.130  1.00  0.00     0.031 C 
HETATM   24  C13 UNL     1     -17.363  -0.925   7.837  1.00  0.00     0.002 C 
HETATM   25  C14 UNL     1     -17.886  -0.027   6.735  1.00  0.00     0.000 C 
HETATM   26  C15 UNL     1     -18.993  -0.750   6.058  1.00  0.00     0.002 C 
HETATM   27  C16 UNL     1     -18.919  -2.231   6.043  1.00  0.00     0.031 C 
ENDBRANCH  18  21
ENDBRANCH   4  15
ENDBRANCH   1   4
BRANCH   3  28
HETATM   28  C18 UNL     1     -17.000  -0.857  -1.186  1.00  0.00     0.135 C 
BRANCH  28  29
HETATM   29  C19 UNL     1     -18.072  -0.697  -2.223  1.00  0.00     0.123 C 
BRANCH  29  30
HETATM   30  C20 UNL     1     -17.656   0.407  -3.138  1.00  0.00     0.222 C 
HETATM   31  O4  UNL     1     -17.138   1.433  -2.618  1.00  0.00    -0.273 OA
HETATM   32  N5  UNL     1     -17.814   0.353  -4.544  1.00  0.00    -0.339 N 
HETATM   33  C21 UNL     1     -18.422  -0.772  -5.243  1.00  0.00     0.127 C 
HETATM   34  C24 UNL     1     -17.396   1.373  -5.469  1.00  0.00     0.179 C 
HETATM   35  C22 UNL     1     -18.786  -0.178  -6.595  1.00  0.00     0.022 C 
HETATM   36  C23 UNL     1     -17.753   0.863  -6.855  1.00  0.00     0.037 C 
BRANCH  34  37
HETATM   37  C25 UNL     1     -18.026   2.686  -5.221  1.00  0.00     0.240 C 
HETATM   38  O5  UNL     1     -19.182   2.954  -5.635  1.00  0.00    -0.271 OA
HETATM   39  N6  UNL     1     -17.299   3.664  -4.495  1.00  0.00    -0.359 N 
ATOM     40  H6  UNL     1     -16.360   3.445  -4.166  1.00  0.00     0.162 HD
BRANCH  39  41
HETATM   41  C26 UNL     1     -17.863   4.963  -4.213  1.00  0.00     0.126 C 
BRANCH  41  42
HETATM   42  C27 UNL     1     -18.569   4.975  -2.866  1.00  0.00    -0.005 C 
HETATM   43  C28 UNL     1     -19.296   6.291  -2.682  1.00  0.00     0.011 C 
HETATM   44  C29 UNL     1     -17.552   4.877  -1.740  1.00  0.00     0.011 C 
ENDBRANCH  41  42
ENDBRANCH  39  41
ENDBRANCH  34  37
ENDBRANCH  29  30
ENDBRANCH  28  29
ENDBRANCH   3  28
BRANCH   3  45
HETATM   45  C30 UNL     1     -18.389  -0.949   0.848  1.00  0.00     0.134 C 
BRANCH  45  46
HETATM   46  C31 UNL     1     -17.901   0.195   1.653  1.00  0.00    -0.035 C 
HETATM   47  C32 UNL     1     -16.646  -0.007   2.430  1.00  0.00     0.016 C 
HETATM   48  C33 UNL     1     -17.819   1.514   0.915  1.00  0.00     0.016 C 
HETATM   49  C34 UNL     1     -19.002   0.443   2.722  1.00  0.00     0.016 C 
ENDBRANCH  45  46
ENDBRANCH   3  45
TORSDOF 16
ENDMDL
MODEL 4
REMARK VINA RESULT: -8.564814940      1.150      1.692
REMARK  16 active torsions:
REMARK  status: ('A' for Active; 'I' for Inactive)
REMARK    1  A    between atoms: C2_2  and  C4_4 
REMARK    2  A    between atoms: C4_4  and  N1_5 
REMARK       I    between atoms: N1_5  and  C5_7 
REMARK    3  A    between atoms: C5_7  and  C6_9 
REMARK    4  A    between atoms: C6_9  and  C7_10 
REMARK    5  A    between atoms: C7_10  and  C8_11 
REMARK    6  A    between atoms: C8_11  and  N2_12 
REMARK    7  A    between atoms: C8_11  and  C17_25 
REMARK       I    between atoms: N2_12  and  C9_14 
REMARK       I    between atoms: C9_14  and  N3_16 
REMARK    8  A    between atoms: N3_16  and  C10_18 
REMARK       I    between atoms: C17_25  and  N4_27 
REMARK    9  A    between atoms: N4_27  and  C18_28 
REMARK   10  A    between atoms: N4_27  and  C30_45 
REMARK   11  A    between atoms: C18_28  and  C19_29 
REMARK   12  A    between atoms: C19_29  and  C20_30 
REMARK       I    between atoms: C20_30  and  N5_32 
REMARK   13  A    between atoms: C24_36  and  C25_37 
REMARK       I    between atoms: C25_37  and  N6_39 
REMARK   14  A    between atoms: N6_39  and  C26_41 
REMARK   15  A    between atoms: C26_41  and  C27_42 
REMARK   16  A    between atoms: C30_45  and  C31_46 
ROOT
HETATM    1  C17 UNL     1     -17.749   2.945  -0.518  1.00  0.00     0.242 C 
HETATM    2  O3  UNL     1     -16.909   3.656   0.155  1.00  0.00    -0.271 OA
HETATM    3  N4  UNL     1     -18.023   1.641  -0.027  1.00  0.00    -0.349 N 
ENDROOT
BRANCH   1   4
HETATM    4  C8  UNL     1     -18.293   3.607  -1.699  1.00  0.00     0.179 C 
BRANCH   4   5
HETATM    5  C7  UNL     1     -18.124   5.145  -1.574  1.00  0.00     0.044 C 
BRANCH   5   6
HETATM    6  C6  UNL     1     -19.361   5.904  -1.801  1.00  0.00     0.105 C 
BRANCH   6   7
HETATM    7  C5  UNL     1     -19.264   6.883  -2.906  1.00  0.00     0.217 C 
HETATM    8  N1  UNL     1     -18.140   6.845  -3.814  1.00  0.00    -0.357 N 
ATOM      9  H1  UNL     1     -17.407   6.145  -3.698  1.00  0.00     0.162 HD
HETATM   10  O1  UNL     1     -20.138   7.749  -3.074  1.00  0.00    -0.274 OA
BRANCH   8  11
HETATM   11  C4  UNL     1     -18.066   7.793  -4.870  1.00  0.00     0.155 C 
BRANCH  11  12
HETATM   12  C2  UNL     1     -17.100   8.877  -4.714  1.00  0.00    -0.075 C 
HETATM   13  C1  UNL     1     -16.869   9.784  -5.613  1.00  0.00     0.015 C 
HETATM   14  C3  UNL     1     -16.330   8.932  -3.420  1.00  0.00     0.044 C 
ENDBRANCH  11  12
ENDBRANCH   8  11
ENDBRANCH   6   7
ENDBRANCH   5   6
ENDBRANCH   4   5
BRANCH   4  15
HETATM   15  N2  UNL     1     -17.599   3.219  -2.905  1.00  0.00    -0.330 N 
HETATM   16  C9  UNL     1     -17.965   3.394  -4.240  1.00  0.00     0.317 C 
HETATM   17  O2  UNL     1     -18.977   3.954  -4.704  1.00  0.00    -0.247 OA
HETATM   18  N3  UNL     1     -17.068   2.867  -5.251  1.00  0.00    -0.334 N 
ATOM     19  H3  UNL     1     -16.215   2.389  -4.961  1.00  0.00     0.165 HD
ATOM     20  H2  UNL     1     -16.707   2.747  -2.759  1.00  0.00     0.165 HD
BRANCH  18  21
HETATM   21  C10 UNL     1     -17.357   3.005  -6.663  1.00  0.00     0.031 C 
HETATM   22  C11 UNL     1     -17.113   4.453  -7.027  1.00  0.00     0.038 C 
HETATM   23  C12 UNL     1     -16.362   2.159  -7.397  1.00  0.00     0.031 C 
HETATM   24  C13 UNL     1     -17.008   1.203  -8.370  1.00  0.00     0.002 C 
HETATM   25  C14 UNL     1     -17.924   0.333  -7.533  1.00  0.00     0.000 C 
HETATM   26  C15 UNL     1     -19.056   1.182  -7.083  1.00  0.00     0.002 C 
HETATM   27  C16 UNL     1     -18.783   2.627  -6.898  1.00  0.00     0.031 C 
ENDBRANCH  18  21
ENDBRANCH   4  15
ENDBRANCH   1   4
BRANCH   3  28
HETATM   28  C18 UNL     1     -17.399   1.231   1.246  1.00  0.00     0.135 C 
BRANCH  28  29
HETATM   29  C19 UNL     1     -18.409   0.879   2.298  1.00  0.00     0.123 C 
BRANCH  29  30
HETATM   30  C20 UNL     1     -17.927  -0.350   2.995  1.00  0.00     0.222 C 
HETATM   31  O4  UNL     1     -17.479  -1.289   2.281  1.00  0.00    -0.273 OA
HETATM   32  N5  UNL     1     -17.949  -0.505   4.401  1.00  0.00    -0.339 N 
HETATM   33  C21 UNL     1     -18.467   0.504   5.315  1.00  0.00     0.127 C 
HETATM   34  C24 UNL     1     -17.463  -1.654   5.121  1.00  0.00     0.179 C 
HETATM   35  C22 UNL     1     -18.712  -0.283   6.593  1.00  0.00     0.022 C 
HETATM   36  C23 UNL     1     -17.678  -1.355   6.595  1.00  0.00     0.037 C 
BRANCH  34  37
HETATM   37  C25 UNL     1     -18.136  -2.913   4.744  1.00  0.00     0.240 C 
HETATM   38  O5  UNL     1     -19.299  -3.186   5.136  1.00  0.00    -0.271 OA
HETATM   39  N6  UNL     1     -17.446  -3.833   3.914  1.00  0.00    -0.359 N 
ATOM     40  H6  UNL     1     -16.501  -3.612   3.601  1.00  0.00     0.162 HD
BRANCH  39  41
HETATM   41  C26 UNL     1     -18.053  -5.077   3.504  1.00  0.00     0.126 C 
BRANCH  41  42
HETATM   42  C27 UNL     1     -17.753  -5.381   2.045  1.00  0.00    -0.005 C 
HETATM   43  C28 UNL     1     -16.493  -4.656   1.620  1.00  0.00     0.011 C 
HETATM   44  C29 UNL     1     -18.875  -4.863   1.159  1.00  0.00     0.011 C 
ENDBRANCH  41  42
ENDBRANCH  39  41
ENDBRANCH  34  37
ENDBRANCH  29  30
ENDBRANCH  28  29
ENDBRANCH   3  28
BRANCH   3  45
HETATM   45  C30 UNL     1     -18.842   0.673  -0.673  1.00  0.00     0.134 C 
BRANCH  45  46
HETATM   46  C31 UNL     1     -18.177  -0.347  -1.517  1.00  0.00    -0.035 C 
HETATM   47  C32 UNL     1     -16.733  -0.143  -1.819  1.00  0.00     0.016 C 
HETATM   48  C33 UNL     1     -18.396  -1.782  -1.088  1.00  0.00     0.016 C 
HETATM   49  C34 UNL     1     -18.892  -0.266  -2.896  1.00  0.00     0.016 C 
ENDBRANCH  45  46
ENDBRANCH   3  45
TORSDOF 16
ENDMDL
MODEL 5
REMARK VINA RESULT: -8.537997345      1.939     11.330
REMARK  16 active torsions:
REMARK  status: ('A' for Active; 'I' for Inactive)
REMARK    1  A    between atoms: C2_2  and  C4_4 
REMARK    2  A    between atoms: C4_4  and  N1_5 
REMARK       I    between atoms: N1_5  and  C5_7 
REMARK    3  A    between atoms: C5_7  and  C6_9 
REMARK    4  A    between atoms: C6_9  and  C7_10 
REMARK    5  A    between atoms: C7_10  and  C8_11 
REMARK    6  A    between atoms: C8_11  and  N2_12 
REMARK    7  A    between atoms: C8_11  and  C17_25 
REMARK       I    between atoms: N2_12  and  C9_14 
REMARK       I    between atoms: C9_14  and  N3_16 
REMARK    8  A    between atoms: N3_16  and  C10_18 
REMARK       I    between atoms: C17_25  and  N4_27 
REMARK    9  A    between atoms: N4_27  and  C18_28 
REMARK   10  A    between atoms: N4_27  and  C30_45 
REMARK   11  A    between atoms: C18_28  and  C19_29 
REMARK   12  A    between atoms: C19_29  and  C20_30 
REMARK       I    between atoms: C20_30  and  N5_32 
REMARK   13  A    between atoms: C24_36  and  C25_37 
REMARK       I    between atoms: C25_37  and  N6_39 
REMARK   14  A    between atoms: N6_39  and  C26_41 
REMARK   15  A    between atoms: C26_41  and  C27_42 
REMARK   16  A    between atoms: C30_45  and  C31_46 
ROOT
HETATM    1  C17 UNL     1     -17.532  -1.081  -0.299  1.00  0.00     0.242 C 
HETATM    2  O3  UNL     1     -16.428  -1.735  -0.428  1.00  0.00    -0.271 OA
HETATM    3  N4  UNL     1     -17.690   0.077  -1.105  1.00  0.00    -0.349 N 
ENDROOT
BRANCH   1   4
HETATM    4  C8  UNL     1     -18.461  -1.645   0.675  1.00  0.00     0.179 C 
BRANCH   4   5
HETATM    5  C7  UNL     1     -19.070  -2.965   0.129  1.00  0.00     0.044 C 
BRANCH   5   6
HETATM    6  C6  UNL     1     -18.109  -4.070   0.023  1.00  0.00     0.105 C 
BRANCH   6   7
HETATM    7  C5  UNL     1     -18.283  -5.110   1.061  1.00  0.00     0.217 C 
HETATM    8  N1  UNL     1     -19.504  -5.171   1.831  1.00  0.00    -0.357 N 
ATOM      9  H1  UNL     1     -20.252  -4.498   1.666  1.00  0.00     0.162 HD
HETATM   10  O1  UNL     1     -17.391  -5.945   1.288  1.00  0.00    -0.274 OA
BRANCH   8  11
HETATM   11  C4  UNL     1     -19.651  -6.180   2.822  1.00  0.00     0.155 C 
BRANCH  11  12
HETATM   12  C2  UNL     1     -19.172  -5.859   4.163  1.00  0.00    -0.075 C 
HETATM   13  C1  UNL     1     -18.608  -6.713   4.961  1.00  0.00     0.015 C 
HETATM   14  C3  UNL     1     -19.349  -4.439   4.636  1.00  0.00     0.044 C 
ENDBRANCH  11  12
ENDBRANCH   8  11
ENDBRANCH   6   7
ENDBRANCH   5   6
ENDBRANCH   4   5
BRANCH   4  15
HETATM   15  N2  UNL     1     -17.804  -1.985   1.916  1.00  0.00    -0.330 N 
HETATM   16  C9  UNL     1     -17.587  -1.206   3.052  1.00  0.00     0.317 C 
HETATM   17  O2  UNL     1     -17.936  -0.029   3.270  1.00  0.00    -0.247 OA
HETATM   18  N3  UNL     1     -16.862  -1.816   4.150  1.00  0.00    -0.334 N 
ATOM     19  H3  UNL     1     -16.534  -2.777   4.059  1.00  0.00     0.165 HD
ATOM     20  H2  UNL     1     -17.446  -2.939   1.970  1.00  0.00     0.165 HD
BRANCH  18  21
HETATM   21  C10 UNL     1     -16.592  -1.091   5.374  1.00  0.00     0.031 C 
HETATM   22  C11 UNL     1     -15.483  -0.107   5.072  1.00  0.00     0.038 C 
HETATM   23  C12 UNL     1     -17.832  -0.318   5.707  1.00  0.00     0.031 C 
HETATM   24  C13 UNL     1     -18.310  -0.554   7.119  1.00  0.00     0.002 C 
HETATM   25  C14 UNL     1     -18.575  -2.043   7.212  1.00  0.00     0.000 C 
HETATM   26  C15 UNL     1     -17.261  -2.733   7.175  1.00  0.00     0.002 C 
HETATM   27  C16 UNL     1     -16.171  -2.066   6.424  1.00  0.00     0.031 C 
ENDBRANCH  18  21
ENDBRANCH   4  15
ENDBRANCH   1   4
BRANCH   3  28
HETATM   28  C18 UNL     1     -16.629   0.396  -2.080  1.00  0.00     0.135 C 
BRANCH  28  29
HETATM   29  C19 UNL     1     -17.019   0.063  -3.489  1.00  0.00     0.123 C 
BRANCH  29  30
HETATM   30  C20 UNL     1     -17.088   1.342  -4.255  1.00  0.00     0.222 C 
HETATM   31  O4  UNL     1     -16.801   2.406  -3.642  1.00  0.00    -0.273 OA
HETATM   32  N5  UNL     1     -17.454   1.412  -5.621  1.00  0.00    -0.339 N 
HETATM   33  C21 UNL     1     -17.828   0.249  -6.415  1.00  0.00     0.127 C 
HETATM   34  C24 UNL     1     -17.500   2.614  -6.411  1.00  0.00     0.179 C 
HETATM   35  C22 UNL     1     -18.563   0.862  -7.596  1.00  0.00     0.022 C 
HETATM   36  C23 UNL     1     -17.923   2.190  -7.807  1.00  0.00     0.037 C 
BRANCH  34  37
HETATM   37  C25 UNL     1     -18.423   3.636  -5.877  1.00  0.00     0.240 C 
HETATM   38  O5  UNL     1     -19.662   3.437  -5.809  1.00  0.00    -0.271 OA
HETATM   39  N6  UNL     1     -17.888   4.870  -5.428  1.00  0.00    -0.359 N 
ATOM     40  H6  UNL     1     -16.883   5.030  -5.489  1.00  0.00     0.162 HD
BRANCH  39  41
HETATM   41  C26 UNL     1     -18.737   5.905  -4.887  1.00  0.00     0.126 C 
BRANCH  41  42
HETATM   42  C27 UNL     1     -18.835   5.800  -3.373  1.00  0.00    -0.005 C 
HETATM   43  C28 UNL     1     -19.579   7.000  -2.825  1.00  0.00     0.011 C 
HETATM   44  C29 UNL     1     -17.447   5.826  -2.755  1.00  0.00     0.011 C 
ENDBRANCH  41  42
ENDBRANCH  39  41
ENDBRANCH  34  37
ENDBRANCH  29  30
ENDBRANCH  28  29
ENDBRANCH   3  28
BRANCH   3  45
HETATM   45  C30 UNL     1     -18.786   0.983  -1.042  1.00  0.00     0.134 C 
BRANCH  45  46
HETATM   46  C31 UNL     1     -18.608   2.237  -0.275  1.00  0.00    -0.035 C 
HETATM   47  C32 UNL     1     -17.230   2.797  -0.198  1.00  0.00     0.016 C 
HETATM   48  C33 UNL     1     -19.574   3.349  -0.623  1.00  0.00     0.016 C 
HETATM   49  C34 UNL     1     -18.979   1.877   1.192  1.00  0.00     0.016 C 
ENDBRANCH  45  46
ENDBRANCH   3  45
TORSDOF 16
ENDMDL
