MODEL 1
REMARK VINA RESULT: -8.216329664      0.000      0.000
REMARK  18 active torsions:
REMARK  status: ('A' for Active; 'I' for Inactive)
REMARK    1  A    between atoms: C2_2  and  C3_3 
REMARK    2  A    between atoms: C3_3  and  C4_4 
REMARK    3  A    between atoms: C4_4  and  C5_5 
REMARK    4  A    between atoms: C5_5  and  C6_6 
REMARK    5  A    between atoms: C5_5  and  N4_40 
REMARK    6  A    between atoms: C6_6  and  C7_7 
REMARK    7  A    between atoms: C7_7  and  N1_8 
REMARK    8  A    between atoms: N1_8  and  C8_10 
REMARK    9  A    between atoms: C8_10  and  N2_12 
REMARK   10  A    between atoms: C12_16  and  C13_17 
REMARK   11  A    between atoms: C13_17  and  C14_18 
REMARK   12  A    between atoms: C14_18  and  N3_19 
REMARK   13  A    between atoms: C14_18  and  C27_36 
REMARK       I    between atoms: N3_19  and  C15_21 
REMARK   14  A    between atoms: C15_21  and  C16_23 
REMARK   15  A    between atoms: C23_30  and  O2_31 
REMARK   16  A    between atoms: N4_40  and  C30_42 
REMARK   17  A    between atoms: C30_42  and  C31_43 
REMARK   18  A    between atoms: C31_43  and  N5_44 
ROOT
HETATM    1  N2  UNL     1     -17.896  -1.543  -0.689  1.00  0.00    -0.358 N 
HETATM    2  C9  UNL     1     -17.061  -0.604   0.036  1.00  0.00     0.125 C 
HETATM    3  C10 UNL     1     -16.675   0.549  -0.863  1.00  0.00     0.020 C 
HETATM    4  C11 UNL     1     -16.587   0.108  -2.309  1.00  0.00     0.008 C 
HETATM    5  C12 UNL     1     -17.936  -0.335  -2.844  1.00  0.00     0.006 C 
HETATM    6  C29 UNL     1     -18.729  -1.033  -1.709  1.00  0.00     0.130 C 
ENDROOT
BRANCH   5   7
HETATM    7  C13 UNL     1     -18.779   0.790  -3.297  1.00  0.00     0.039 C 
BRANCH   7   8
HETATM    8  C14 UNL     1     -18.234   1.721  -4.331  1.00  0.00     0.154 C 
BRANCH   8   9
HETATM    9  N3  UNL     1     -18.788   3.054  -3.931  1.00  0.00    -0.349 N 
HETATM   10  C15 UNL     1     -18.011   4.002  -3.230  1.00  0.00     0.227 C 
HETATM   11  O1  UNL     1     -16.840   3.683  -2.958  1.00  0.00    -0.273 OA
ATOM     12  H3  UNL     1     -19.753   3.283  -4.171  1.00  0.00     0.163 HD
BRANCH  10  13
HETATM   13  C16 UNL     1     -18.558   5.292  -2.847  1.00  0.00     0.042 C 
HETATM   14  C17 UNL     1     -18.871   5.265  -1.320  1.00  0.00     0.026 C 
HETATM   15  C18 UNL     1     -19.953   5.520  -3.464  1.00  0.00     0.019 C 
HETATM   16  C19 UNL     1     -19.855   6.034  -4.880  1.00  0.00     0.002 C 
HETATM   17  C20 UNL     1     -19.119   7.360  -4.935  1.00  0.00     0.012 C 
HETATM   18  C21 UNL     1     -17.724   7.105  -4.433  1.00  0.00    -0.013 C 
HETATM   19  C22 UNL     1     -16.838   6.461  -5.432  1.00  0.00     0.018 C 
HETATM   20  C23 UNL     1     -17.034   8.439  -4.063  1.00  0.00     0.126 C 
HETATM   21  C26 UNL     1     -17.789   6.507  -3.079  1.00  0.00     0.013 C 
HETATM   22  C24 UNL     1     -16.001   8.005  -3.042  1.00  0.00     0.033 C 
HETATM   23  C25 UNL     1     -16.372   6.579  -2.619  1.00  0.00     0.009 C 
BRANCH  20  24
HETATM   24  O2  UNL     1     -17.998   9.190  -3.402  1.00  0.00    -0.395 OA
ATOM     25  H2  UNL     1     -17.593   9.468  -2.589  1.00  0.00     0.210 HD
ENDBRANCH  20  24
ENDBRANCH  10  13
ENDBRANCH   8   9
BRANCH   8  26
HETATM   26  C27 UNL     1     -18.642   1.451  -5.708  1.00  0.00     0.145 C 
HETATM   27  C28 UNL     1     -18.474   0.162  -6.382  1.00  0.00     0.093 C 
HETATM   28  O3  UNL     1     -19.173   2.343  -6.408  1.00  0.00    -0.296 OA
ENDBRANCH   8  26
ENDBRANCH   7   8
ENDBRANCH   5   7
BRANCH   1  29
HETATM   29  C8  UNL     1     -17.832  -2.934  -0.298  1.00  0.00     0.173 C 
HETATM   30  S1  UNL     1     -19.313  -3.578   0.023  1.00  0.00    -0.041 SA
BRANCH  29  31
HETATM   31  N1  UNL     1     -16.666  -3.638  -0.247  1.00  0.00    -0.347 N 
ATOM     32  H1  UNL     1     -16.176  -3.566  -1.139  1.00  0.00     0.167 HD
BRANCH  31  33
HETATM   33  C7  UNL     1     -15.936  -4.420   0.630  1.00  0.00     0.065 C 
BRANCH  33  34
HETATM   34  C6  UNL     1     -16.503  -5.399   1.569  1.00  0.00     0.069 C 
BRANCH  34  35
HETATM   35  C5  UNL     1     -16.951  -5.006   2.908  1.00  0.00     0.081 C 
BRANCH  35  36
HETATM   36  C4  UNL     1     -18.152  -5.840   3.367  1.00  0.00     0.025 C 
BRANCH  36  37
HETATM   37  C3  UNL     1     -18.559  -6.930   2.463  1.00  0.00     0.002 C 
BRANCH  37  38
HETATM   38  C2  UNL     1     -20.091  -7.117   2.503  1.00  0.00    -0.004 C 
HETATM   39  C1  UNL     1     -20.678  -6.272   3.611  1.00  0.00     0.005 C 
ENDBRANCH  37  38
ENDBRANCH  36  37
ENDBRANCH  35  36
BRANCH  35  40
HETATM   40  N4  UNL     1     -17.093  -3.626   3.212  1.00  0.00    -0.412 N 
ATOM     41  H4  UNL     1     -16.336  -2.974   3.004  1.00  0.00     0.153 HD
BRANCH  40  42
HETATM   42  C30 UNL     1     -18.295  -3.155   3.808  1.00  0.00     0.159 C 
BRANCH  42  43
HETATM   43  C31 UNL     1     -18.548  -1.728   3.288  1.00  0.00     0.082 C 
BRANCH  43  44
HETATM   44  N5  UNL     1     -18.076  -0.690   4.084  1.00  0.00    -0.372 N 
HETATM   45  C32 UNL     1     -16.871  -0.021   3.852  1.00  0.00     0.063 C 
HETATM   46  C33 UNL     1     -15.968  -0.246   5.052  1.00  0.00     0.046 C 
HETATM   47  C34 UNL     1     -16.918  -0.600   6.146  1.00  0.00     0.025 C 
HETATM   48  C35 UNL     1     -18.237  -0.873   5.513  1.00  0.00     0.127 C 
ENDBRANCH  43  44
ENDBRANCH  42  43
ENDBRANCH  40  42
ENDBRANCH  35  40
ENDBRANCH  34  35
ENDBRANCH  33  34
ENDBRANCH  31  33
ENDBRANCH  29  31
ENDBRANCH   1  29
TORSDOF 18
ENDMDL
MODEL 2
REMARK VINA RESULT: -8.213015004      3.392     10.703
REMARK  18 active torsions:
REMARK  status: ('A' for Active; 'I' for Inactive)
REMARK    1  A    between atoms: C2_2  and  C3_3 
REMARK    2  A    between atoms: C3_3  and  C4_4 
REMARK    3  A    between atoms: C4_4  and  C5_5 
REMARK    4  A    between atoms: C5_5  and  C6_6 
REMARK    5  A    between atoms: C5_5  and  N4_40 
REMARK    6  A    between atoms: C6_6  and  C7_7 
REMARK    7  A    between atoms: C7_7  and  N1_8 
REMARK    8  A    between atoms: N1_8  and  C8_10 
REMARK    9  A    between atoms: C8_10  and  N2_12 
REMARK   10  A    between atoms: C12_16  and  C13_17 
REMARK   11  A    between atoms: C13_17  and  C14_18 
REMARK   12  A    between atoms: C14_18  and  N3_19 
REMARK   13  A    between atoms: C14_18  and  C27_36 
REMARK       I    between atoms: N3_19  and  C15_21 
REMARK   14  A    between atoms: C15_21  and  C16_23 
REMARK   15  A    between atoms: C23_30  and  O2_31 
REMARK   16  A    between atoms: N4_40  and  C30_42 
REMARK   17  A    between atoms: C30_42  and  C31_43 
REMARK   18  A    between atoms: C31_43  and  N5_44 
ROOT
HETATM    1  N2  UNL     1     -17.576   0.024  -1.128  1.00  0.00    -0.358 N 
HETATM    2  C9  UNL     1     -16.322   0.224  -0.427  1.00  0.00     0.125 C 
HETATM    3  C10 UNL     1     -16.579   0.421   1.050  1.00  0.00     0.020 C 
HETATM    4  C11 UNL     1     -17.923   1.074   1.289  1.00  0.00     0.008 C 
HETATM    5  C12 UNL     1     -19.067   0.186   0.836  1.00  0.00     0.006 C 
HETATM    6  C29 UNL     1     -18.631  -0.602  -0.426  1.00  0.00     0.130 C 
ENDROOT
BRANCH   5   7
HETATM    7  C13 UNL     1     -19.445  -0.830   1.839  1.00  0.00     0.039 C 
BRANCH   7   8
HETATM    8  C14 UNL     1     -18.364  -1.485   2.636  1.00  0.00     0.154 C 
BRANCH   8   9
HETATM    9  N3  UNL     1     -18.450  -2.924   2.229  1.00  0.00    -0.349 N 
HETATM   10  C15 UNL     1     -17.408  -3.560   1.520  1.00  0.00     0.227 C 
HETATM   11  O1  UNL     1     -16.409  -2.871   1.246  1.00  0.00    -0.273 OA
ATOM     12  H3  UNL     1     -19.285  -3.459   2.471  1.00  0.00     0.163 HD
BRANCH  10  13
HETATM   13  C16 UNL     1     -17.502  -4.955   1.130  1.00  0.00     0.042 C 
HETATM   14  C17 UNL     1     -16.980  -5.099  -0.332  1.00  0.00     0.026 C 
HETATM   15  C18 UNL     1     -18.970  -5.409   1.000  1.00  0.00     0.019 C 
HETATM   16  C19 UNL     1     -19.552  -5.792   2.340  1.00  0.00     0.002 C 
HETATM   17  C20 UNL     1     -18.783  -6.940   2.966  1.00  0.00     0.012 C 
HETATM   18  C21 UNL     1     -17.378  -6.452   3.189  1.00  0.00    -0.013 C 
HETATM   19  C22 UNL     1     -17.230  -5.578   4.377  1.00  0.00     0.018 C 
HETATM   20  C23 UNL     1     -16.426  -7.648   3.431  1.00  0.00     0.126 C 
HETATM   21  C26 UNL     1     -16.811  -5.977   1.905  1.00  0.00     0.013 C 
HETATM   22  C24 UNL     1     -15.082  -7.093   3.004  1.00  0.00     0.033 C 
HETATM   23  C25 UNL     1     -15.366  -5.802   2.229  1.00  0.00     0.009 C 
BRANCH  20  24
HETATM   24  O2  UNL     1     -16.801  -8.619   2.510  1.00  0.00    -0.395 OA
ATOM     25  H2  UNL     1     -16.069  -9.222   2.462  1.00  0.00     0.210 HD
ENDBRANCH  20  24
ENDBRANCH  10  13
ENDBRANCH   8   9
BRANCH   8  26
HETATM   26  C27 UNL     1     -18.510  -1.411   4.088  1.00  0.00     0.145 C 
HETATM   27  C28 UNL     1     -18.202  -0.225   4.890  1.00  0.00     0.093 C 
HETATM   28  O3  UNL     1     -18.918  -2.396   4.745  1.00  0.00    -0.296 OA
ENDBRANCH   8  26
ENDBRANCH   7   8
ENDBRANCH   5   7
BRANCH   1  29
HETATM   29  C8  UNL     1     -17.650   0.458  -2.505  1.00  0.00     0.173 C 
HETATM   30  S1  UNL     1     -19.190   0.766  -2.999  1.00  0.00    -0.041 SA
BRANCH  29  31
HETATM   31  N1  UNL     1     -16.548   0.632  -3.288  1.00  0.00    -0.347 N 
ATOM     32  H1  UNL     1     -15.882   1.248  -2.821  1.00  0.00     0.167 HD
BRANCH  31  33
HETATM   33  C7  UNL     1     -16.046   0.240  -4.516  1.00  0.00     0.065 C 
BRANCH  33  34
HETATM   34  C6  UNL     1     -15.800   1.131  -5.658  1.00  0.00     0.069 C 
BRANCH  34  35
HETATM   35  C5  UNL     1     -16.848   2.013  -6.182  1.00  0.00     0.081 C 
BRANCH  35  36
HETATM   36  C4  UNL     1     -17.042   1.824  -7.690  1.00  0.00     0.025 C 
BRANCH  36  37
HETATM   37  C3  UNL     1     -17.810   0.633  -8.093  1.00  0.00     0.002 C 
BRANCH  37  38
HETATM   38  C2  UNL     1     -19.032   0.444  -7.169  1.00  0.00    -0.004 C 
HETATM   39  C1  UNL     1     -18.934  -0.887  -6.461  1.00  0.00     0.005 C 
ENDBRANCH  37  38
ENDBRANCH  36  37
ENDBRANCH  35  36
BRANCH  35  40
HETATM   40  N4  UNL     1     -16.857   3.380  -5.794  1.00  0.00    -0.412 N 
ATOM     41  H4  UNL     1     -16.215   4.041  -6.232  1.00  0.00     0.153 HD
BRANCH  40  42
HETATM   42  C30 UNL     1     -17.765   3.823  -4.794  1.00  0.00     0.159 C 
BRANCH  42  43
HETATM   43  C31 UNL     1     -17.228   5.151  -4.229  1.00  0.00     0.082 C 
BRANCH  43  44
HETATM   44  N5  UNL     1     -17.239   5.281  -2.845  1.00  0.00    -0.372 N 
HETATM   45  C32 UNL     1     -16.142   4.989  -2.030  1.00  0.00     0.063 C 
HETATM   46  C33 UNL     1     -16.536   3.857  -1.097  1.00  0.00     0.046 C 
HETATM   47  C34 UNL     1     -18.026   3.921  -1.075  1.00  0.00     0.025 C 
HETATM   48  C35 UNL     1     -18.444   4.824  -2.182  1.00  0.00     0.127 C 
ENDBRANCH  43  44
ENDBRANCH  42  43
ENDBRANCH  40  42
ENDBRANCH  35  40
ENDBRANCH  34  35
ENDBRANCH  33  34
ENDBRANCH  31  33
ENDBRANCH  29  31
ENDBRANCH   1  29
TORSDOF 18
ENDMDL
MODEL 3
REMARK VINA RESULT: -8.207533775      3.243     10.881
REMARK  18 active torsions:
REMARK  status: ('A' for Active; 'I' for Inactive)
REMARK    1  A    between atoms: C2_2  and  C3_3 
REMARK    2  A    between atoms: C3_3  and  C4_4 
REMARK    3  A    between atoms: C4_4  and  C5_5 
REMARK    4  A    between atoms: C5_5  and  C6_6 
REMARK    5  A    between atoms: C5_5  and  N4_40 
REMARK    6  A    between atoms: C6_6  and  C7_7 
REMARK    7  A    between atoms: C7_7  and  N1_8 
REMARK    8  A    between atoms: N1_8  and  C8_10 
REMARK    9  A    between atoms: C8_10  and  N2_12 
REMARK   10  A    between atoms: C12_16  and  C13_17 
REMARK   11  A    between atoms: C13_17  and  C14_18 
REMARK   12  A    between atoms: C14_18  and  N3_19 
REMARK   13  A    between atoms: C14_18  and  C27_36 
REMARK       I    between atoms: N3_19  and  C15_21 
REMARK   14  A    between atoms: C15_21  and  C16_23 
REMARK   15  A    between atoms: C23_30  and  O2_31 
REMARK   16  A    between atoms: N4_40  and  C30_42 
REMARK   17  A    between atoms: C30_42  and  C31_43 
REMARK   18  A    between atoms: C31_43  and  N5_44 
ROOT
HETATM    1  N2  UNL     1     -18.171   0.141  -1.764  1.00  0.00    -0.358 N 
HETATM    2  C9  UNL     1     -16.856   0.632  -1.398  1.00  0.00     0.125 C 
HETATM    3  C10 UNL     1     -16.800   0.906   0.088  1.00  0.00     0.020 C 
HETATM    4  C11 UNL     1     -18.157   1.315   0.621  1.00  0.00     0.008 C 
HETATM    5  C12 UNL     1     -19.170   0.194   0.496  1.00  0.00     0.006 C 
HETATM    6  C29 UNL     1     -18.887  -0.607  -0.802  1.00  0.00     0.130 C 
ENDROOT
BRANCH   5   7
HETATM    7  C13 UNL     1     -19.094  -0.783   1.601  1.00  0.00     0.039 C 
BRANCH   7   8
HETATM    8  C14 UNL     1     -17.750  -1.279   2.026  1.00  0.00     0.154 C 
BRANCH   8   9
HETATM    9  N3  UNL     1     -17.837  -2.759   1.815  1.00  0.00    -0.349 N 
HETATM   10  C15 UNL     1     -17.063  -3.418   0.836  1.00  0.00     0.227 C 
HETATM   11  O1  UNL     1     -16.298  -2.714   0.152  1.00  0.00    -0.273 OA
ATOM     12  H3  UNL     1     -18.474  -3.306   2.394  1.00  0.00     0.163 HD
BRANCH  10  13
HETATM   13  C16 UNL     1     -17.155  -4.854   0.640  1.00  0.00     0.042 C 
HETATM   14  C17 UNL     1     -16.513  -5.210  -0.736  1.00  0.00     0.026 C 
HETATM   15  C18 UNL     1     -18.618  -5.304   0.445  1.00  0.00     0.019 C 
HETATM   16  C19 UNL     1     -19.322  -5.486   1.769  1.00  0.00     0.002 C 
HETATM   17  C20 UNL     1     -18.637  -6.542   2.616  1.00  0.00     0.012 C 
HETATM   18  C21 UNL     1     -17.245  -6.044   2.892  1.00  0.00    -0.013 C 
HETATM   19  C22 UNL     1     -17.180  -5.010   3.954  1.00  0.00     0.018 C 
HETATM   20  C23 UNL     1     -16.347  -7.203   3.384  1.00  0.00     0.126 C 
HETATM   21  C26 UNL     1     -16.559  -5.762   1.609  1.00  0.00     0.013 C 
HETATM   22  C24 UNL     1     -14.958  -6.730   3.003  1.00  0.00     0.033 C 
HETATM   23  C25 UNL     1     -15.143  -5.560   2.032  1.00  0.00     0.009 C 
BRANCH  20  24
HETATM   24  O2  UNL     1     -16.664  -8.291   2.579  1.00  0.00    -0.395 OA
ATOM     25  H2  UNL     1     -15.859  -8.519   2.128  1.00  0.00     0.210 HD
ENDBRANCH  20  24
ENDBRANCH  10  13
ENDBRANCH   8   9
BRANCH   8  26
HETATM   26  C27 UNL     1     -17.394  -1.036   3.422  1.00  0.00     0.145 C 
HETATM   27  C28 UNL     1     -16.241  -0.243   3.856  1.00  0.00     0.093 C 
HETATM   28  O3  UNL     1     -18.082  -1.514   4.353  1.00  0.00    -0.296 OA
ENDBRANCH   8  26
ENDBRANCH   7   8
ENDBRANCH   5   7
BRANCH   1  29
HETATM   29  C8  UNL     1     -18.646   0.433  -3.098  1.00  0.00     0.173 C 
HETATM   30  S1  UNL     1     -18.785  -0.913  -4.037  1.00  0.00    -0.041 SA
BRANCH  29  31
HETATM   31  N1  UNL     1     -18.982   1.688  -3.509  1.00  0.00    -0.347 N 
ATOM     32  H1  UNL     1     -19.929   1.914  -3.201  1.00  0.00     0.167 HD
BRANCH  31  33
HETATM   33  C7  UNL     1     -18.447   2.754  -4.211  1.00  0.00     0.065 C 
BRANCH  33  34
HETATM   34  C6  UNL     1     -19.057   3.387  -5.388  1.00  0.00     0.069 C 
BRANCH  34  35
HETATM   35  C5  UNL     1     -18.239   4.007  -6.435  1.00  0.00     0.081 C 
BRANCH  35  36
HETATM   36  C4  UNL     1     -16.948   3.220  -6.681  1.00  0.00     0.025 C 
BRANCH  36  37
HETATM   37  C3  UNL     1     -17.032   2.147  -7.687  1.00  0.00     0.002 C 
BRANCH  37  38
HETATM   38  C2  UNL     1     -16.925   0.765  -7.009  1.00  0.00    -0.004 C 
HETATM   39  C1  UNL     1     -15.838   0.796  -5.959  1.00  0.00     0.005 C 
ENDBRANCH  37  38
ENDBRANCH  36  37
ENDBRANCH  35  36
BRANCH  35  40
HETATM   40  N4  UNL     1     -18.029   5.412  -6.407  1.00  0.00    -0.412 N 
ATOM     41  H4  UNL     1     -17.569   5.877  -7.190  1.00  0.00     0.153 HD
BRANCH  40  42
HETATM   42  C30 UNL     1     -18.462   6.167  -5.283  1.00  0.00     0.159 C 
BRANCH  42  43
HETATM   43  C31 UNL     1     -17.262   6.320  -4.331  1.00  0.00     0.082 C 
BRANCH  43  44
HETATM   44  N5  UNL     1     -17.560   6.428  -2.977  1.00  0.00    -0.372 N 
HETATM   45  C32 UNL     1     -16.727   5.955  -1.959  1.00  0.00     0.063 C 
HETATM   46  C33 UNL     1     -17.484   4.884  -1.192  1.00  0.00     0.046 C 
HETATM   47  C34 UNL     1     -18.915   5.182  -1.490  1.00  0.00     0.025 C 
HETATM   48  C35 UNL     1     -18.937   6.157  -2.614  1.00  0.00     0.127 C 
ENDBRANCH  43  44
ENDBRANCH  42  43
ENDBRANCH  40  42
ENDBRANCH  35  40
ENDBRANCH  34  35
ENDBRANCH  33  34
ENDBRANCH  31  33
ENDBRANCH  29  31
ENDBRANCH   1  29
TORSDOF 18
ENDMDL
MODEL 4
REMARK VINA RESULT: -8.100360771      1.231      3.463
REMARK  18 active torsions:
REMARK  status: ('A' for Active; 'I' for Inactive)
REMARK    1  A    between atoms: C2_2  and  C3_3 
REMARK    2  A    between atoms: C3_3  and  C4_4 
REMARK    3  A    between atoms: C4_4  and  C5_5 
REMARK    4  A    between atoms: C5_5  and  C6_6 
REMARK    5  A    between atoms: C5_5  and  N4_40 
REMARK    6  A    between atoms: C6_6  and  C7_7 
REMARK    7  A    between atoms: C7_7  and  N1_8 
REMARK    8  A    between atoms: N1_8  and  C8_10 
REMARK    9  A    between atoms: C8_10  and  N2_12 
REMARK   10  A    between atoms: C12_16  and  C13_17 
REMARK   11  A    between atoms: C13_17  and  C14_18 
REMARK   12  A    between atoms: C14_18  and  N3_19 
REMARK   13  A    between atoms: C14_18  and  C27_36 
REMARK       I    between atoms: N3_19  and  C15_21 
REMARK   14  A    between atoms: C15_21  and  C16_23 
REMARK   15  A    between atoms: C23_30  and  O2_31 
REMARK   16  A    between atoms: N4_40  and  C30_42 
REMARK   17  A    between atoms: C30_42  and  C31_43 
REMARK   18  A    between atoms: C31_43  and  N5_44 
ROOT
HETATM    1  N2  UNL     1     -17.976  -1.084   0.033  1.00  0.00    -0.358 N 
HETATM    2  C9  UNL     1     -17.029  -0.070   0.455  1.00  0.00     0.125 C 
HETATM    3  C10 UNL     1     -16.659   0.814  -0.715  1.00  0.00     0.020 C 
HETATM    4  C11 UNL     1     -16.724   0.049  -2.020  1.00  0.00     0.008 C 
HETATM    5  C12 UNL     1     -18.138  -0.402  -2.337  1.00  0.00     0.006 C 
HETATM    6  C29 UNL     1     -18.866  -0.760  -1.015  1.00  0.00     0.130 C 
ENDROOT
BRANCH   5   7
HETATM    7  C13 UNL     1     -18.952   0.650  -2.978  1.00  0.00     0.039 C 
BRANCH   7   8
HETATM    8  C14 UNL     1     -18.308   1.534  -3.995  1.00  0.00     0.154 C 
BRANCH   8   9
HETATM    9  N3  UNL     1     -18.849   2.893  -3.675  1.00  0.00    -0.349 N 
HETATM   10  C15 UNL     1     -18.038   3.905  -3.118  1.00  0.00     0.227 C 
HETATM   11  O1  UNL     1     -16.846   3.619  -2.903  1.00  0.00    -0.273 OA
ATOM     12  H3  UNL     1     -19.831   3.093  -3.865  1.00  0.00     0.163 HD
BRANCH  10  13
HETATM   13  C16 UNL     1     -18.573   5.219  -2.811  1.00  0.00     0.042 C 
HETATM   14  C17 UNL     1     -18.932   5.268  -1.294  1.00  0.00     0.026 C 
HETATM   15  C18 UNL     1     -19.945   5.441  -3.480  1.00  0.00     0.019 C 
HETATM   16  C19 UNL     1     -19.796   5.887  -4.915  1.00  0.00     0.002 C 
HETATM   17  C20 UNL     1     -19.036   7.197  -5.008  1.00  0.00     0.012 C 
HETATM   18  C21 UNL     1     -17.661   6.943  -4.452  1.00  0.00    -0.013 C 
HETATM   19  C22 UNL     1     -16.757   6.239  -5.394  1.00  0.00     0.018 C 
HETATM   20  C23 UNL     1     -16.959   8.281  -4.123  1.00  0.00     0.126 C 
HETATM   21  C26 UNL     1     -17.777   6.410  -3.074  1.00  0.00     0.013 C 
HETATM   22  C24 UNL     1     -15.965   7.879  -3.052  1.00  0.00     0.033 C 
HETATM   23  C25 UNL     1     -16.373   6.481  -2.576  1.00  0.00     0.009 C 
BRANCH  20  24
HETATM   24  O2  UNL     1     -17.930   9.078  -3.526  1.00  0.00    -0.395 OA
ATOM     25  H2  UNL     1     -18.582   9.233  -4.199  1.00  0.00     0.210 HD
ENDBRANCH  20  24
ENDBRANCH  10  13
ENDBRANCH   8   9
BRANCH   8  26
HETATM   26  C27 UNL     1     -18.622   1.233  -5.390  1.00  0.00     0.145 C 
HETATM   27  C28 UNL     1     -18.458  -0.084  -6.009  1.00  0.00     0.093 C 
HETATM   28  O3  UNL     1     -19.061   2.121  -6.156  1.00  0.00    -0.296 OA
ENDBRANCH   8  26
ENDBRANCH   7   8
ENDBRANCH   5   7
BRANCH   1  29
HETATM   29  C8  UNL     1     -17.957  -2.349   0.733  1.00  0.00     0.173 C 
HETATM   30  S1  UNL     1     -17.222  -3.546  -0.126  1.00  0.00    -0.041 SA
BRANCH  29  31
HETATM   31  N1  UNL     1     -18.459  -2.510   1.990  1.00  0.00    -0.347 N 
ATOM     32  H1  UNL     1     -19.456  -2.720   1.942  1.00  0.00     0.167 HD
BRANCH  31  33
HETATM   33  C7  UNL     1     -18.045  -2.478   3.310  1.00  0.00     0.065 C 
BRANCH  33  34
HETATM   34  C6  UNL     1     -18.865  -2.862   4.467  1.00  0.00     0.069 C 
BRANCH  34  35
HETATM   35  C5  UNL     1     -18.261  -3.380   5.698  1.00  0.00     0.081 C 
BRANCH  35  36
HETATM   36  C4  UNL     1     -18.448  -2.410   6.869  1.00  0.00     0.025 C 
BRANCH  36  37
HETATM   37  C3  UNL     1     -17.632  -1.184   6.824  1.00  0.00     0.002 C 
BRANCH  37  38
HETATM   38  C2  UNL     1     -18.539   0.064   6.792  1.00  0.00    -0.004 C 
HETATM   39  C1  UNL     1     -18.492   0.693   5.419  1.00  0.00     0.005 C 
ENDBRANCH  37  38
ENDBRANCH  36  37
ENDBRANCH  35  36
BRANCH  35  40
HETATM   40  N4  UNL     1     -16.953  -3.932   5.646  1.00  0.00    -0.412 N 
ATOM     41  H4  UNL     1     -16.140  -3.319   5.581  1.00  0.00     0.153 HD
BRANCH  40  42
HETATM   42  C30 UNL     1     -16.781  -5.343   5.684  1.00  0.00     0.159 C 
BRANCH  42  43
HETATM   43  C31 UNL     1     -16.562  -5.827   4.239  1.00  0.00     0.082 C 
BRANCH  43  44
HETATM   44  N5  UNL     1     -17.596  -6.564   3.673  1.00  0.00    -0.372 N 
HETATM   45  C32 UNL     1     -18.129  -6.306   2.406  1.00  0.00     0.063 C 
HETATM   46  C33 UNL     1     -19.593  -5.940   2.578  1.00  0.00     0.046 C 
HETATM   47  C34 UNL     1     -19.951  -6.528   3.900  1.00  0.00     0.025 C 
HETATM   48  C35 UNL     1     -18.679  -6.915   4.569  1.00  0.00     0.127 C 
ENDBRANCH  43  44
ENDBRANCH  42  43
ENDBRANCH  40  42
ENDBRANCH  35  40
ENDBRANCH  34  35
ENDBRANCH  33  34
ENDBRANCH  31  33
ENDBRANCH  29  31
ENDBRANCH   1  29
TORSDOF 18
ENDMDL
MODEL 5
REMARK VINA RESULT: -8.085155277      1.711      3.632
REMARK  18 active torsions:
REMARK  status: ('A' for Active; 'I' for Inactive)
REMARK    1  A    between atoms: C2_2  and  C3_3 
REMARK    2  A    between atoms: C3_3  and  C4_4 
REMARK    3  A    between atoms: C4_4  and  C5_5 
REMARK    4  A    between atoms: C5_5  and  C6_6 
REMARK    5  A    between atoms: C5_5  and  N4_40 
REMARK    6  A    between atoms: C6_6  and  C7_7 
REMARK    7  A    between atoms: C7_7  and  N1_8 
REMARK    8  A    between atoms: N1_8  and  C8_10 
REMARK    9  A    between atoms: C8_10  and  N2_12 
REMARK   10  A    between atoms: C12_16  and  C13_17 
REMARK   11  A    between atoms: C13_17  and  C14_18 
REMARK   12  A    between atoms: C14_18  and  N3_19 
REMARK   13  A    between atoms: C14_18  and  C27_36 
REMARK       I    between atoms: N3_19  and  C15_21 
REMARK   14  A    between atoms: C15_21  and  C16_23 
REMARK   15  A    between atoms: C23_30  and  O2_31 
REMARK   16  A    between atoms: N4_40  and  C30_42 
REMARK   17  A    between atoms: C30_42  and  C31_43 
REMARK   18  A    between atoms: C31_43  and  N5_44 
ROOT
HETATM    1  N2  UNL     1     -17.636   0.037   0.800  1.00  0.00    -0.358 N 
HETATM    2  C9  UNL     1     -16.412  -0.261   0.081  1.00  0.00     0.125 C 
HETATM    3  C10 UNL     1     -16.715  -0.504  -1.381  1.00  0.00     0.020 C 
HETATM    4  C11 UNL     1     -18.099  -1.090  -1.562  1.00  0.00     0.008 C 
HETATM    5  C12 UNL     1     -19.181  -0.122  -1.122  1.00  0.00     0.006 C 
HETATM    6  C29 UNL     1     -18.672   0.692   0.096  1.00  0.00     0.130 C 
ENDROOT
BRANCH   5   7
HETATM    7  C13 UNL     1     -19.527   0.872  -2.159  1.00  0.00     0.039 C 
BRANCH   7   8
HETATM    8  C14 UNL     1     -18.426   1.465  -2.977  1.00  0.00     0.154 C 
BRANCH   8   9
HETATM    9  N3  UNL     1     -18.499   2.927  -2.660  1.00  0.00    -0.349 N 
HETATM   10  C15 UNL     1     -17.478   3.583  -1.940  1.00  0.00     0.227 C 
HETATM   11  O1  UNL     1     -16.509   2.892  -1.577  1.00  0.00    -0.273 OA
ATOM     12  H3  UNL     1     -19.309   3.462  -2.973  1.00  0.00     0.163 HD
BRANCH  10  13
HETATM   13  C16 UNL     1     -17.559   5.001  -1.637  1.00  0.00     0.042 C 
HETATM   14  C17 UNL     1     -17.031   5.231  -0.188  1.00  0.00     0.026 C 
HETATM   15  C18 UNL     1     -19.023   5.474  -1.532  1.00  0.00     0.019 C 
HETATM   16  C19 UNL     1     -19.606   5.778  -2.892  1.00  0.00     0.002 C 
HETATM   17  C20 UNL     1     -18.829   6.878  -3.590  1.00  0.00     0.012 C 
HETATM   18  C21 UNL     1     -17.428   6.365  -3.786  1.00  0.00    -0.013 C 
HETATM   19  C22 UNL     1     -17.292   5.417  -4.918  1.00  0.00     0.018 C 
HETATM   20  C23 UNL     1     -16.467   7.535  -4.105  1.00  0.00     0.126 C 
HETATM   21  C26 UNL     1     -16.862   5.966  -2.476  1.00  0.00     0.013 C 
HETATM   22  C24 UNL     1     -15.127   6.997  -3.647  1.00  0.00     0.033 C 
HETATM   23  C25 UNL     1     -15.419   5.759  -2.792  1.00  0.00     0.009 C 
BRANCH  20  24
HETATM   24  O2  UNL     1     -16.831   8.564  -3.245  1.00  0.00    -0.395 OA
ATOM     25  H2  UNL     1     -16.373   9.335  -3.560  1.00  0.00     0.210 HD
ENDBRANCH  20  24
ENDBRANCH  10  13
ENDBRANCH   8   9
BRANCH   8  26
HETATM   26  C27 UNL     1     -18.553   1.304  -4.424  1.00  0.00     0.145 C 
HETATM   27  C28 UNL     1     -18.265   0.062  -5.146  1.00  0.00     0.093 C 
HETATM   28  O3  UNL     1     -18.924   2.256  -5.147  1.00  0.00    -0.296 OA
ENDBRANCH   8  26
ENDBRANCH   7   8
ENDBRANCH   5   7
BRANCH   1  29
HETATM   29  C8  UNL     1     -17.700  -0.337   2.195  1.00  0.00     0.173 C 
HETATM   30  S1  UNL     1     -18.491   0.772   3.121  1.00  0.00    -0.041 SA
BRANCH  29  31
HETATM   31  N1  UNL     1     -17.192  -1.507   2.675  1.00  0.00    -0.347 N 
ATOM     32  H1  UNL     1     -16.379  -1.785   2.124  1.00  0.00     0.167 HD
BRANCH  31  33
HETATM   33  C7  UNL     1     -17.429  -2.438   3.670  1.00  0.00     0.065 C 
BRANCH  33  34
HETATM   34  C6  UNL     1     -18.754  -2.894   4.109  1.00  0.00     0.069 C 
BRANCH  34  35
HETATM   35  C5  UNL     1     -18.914  -3.814   5.239  1.00  0.00     0.081 C 
BRANCH  35  36
HETATM   36  C4  UNL     1     -17.986  -3.445   6.401  1.00  0.00     0.025 C 
BRANCH  36  37
HETATM   37  C3  UNL     1     -18.494  -2.418   7.327  1.00  0.00     0.002 C 
BRANCH  37  38
HETATM   38  C2  UNL     1     -17.617  -1.149   7.254  1.00  0.00    -0.004 C 
HETATM   39  C1  UNL     1     -18.462   0.030   6.831  1.00  0.00     0.005 C 
ENDBRANCH  37  38
ENDBRANCH  36  37
ENDBRANCH  35  36
BRANCH  35  40
HETATM   40  N4  UNL     1     -18.954  -5.213   4.991  1.00  0.00    -0.412 N 
ATOM     41  H4  UNL     1     -18.736  -5.872   5.738  1.00  0.00     0.153 HD
BRANCH  40  42
HETATM   42  C30 UNL     1     -19.301  -5.689   3.697  1.00  0.00     0.159 C 
BRANCH  42  43
HETATM   43  C31 UNL     1     -18.021  -6.241   3.043  1.00  0.00     0.082 C 
BRANCH  43  44
HETATM   44  N5  UNL     1     -17.873  -6.005   1.682  1.00  0.00    -0.372 N 
HETATM   45  C32 UNL     1     -16.648  -5.722   1.072  1.00  0.00     0.063 C 
HETATM   46  C33 UNL     1     -16.736  -4.334   0.460  1.00  0.00     0.046 C 
HETATM   47  C34 UNL     1     -18.202  -4.112   0.300  1.00  0.00     0.025 C 
HETATM   48  C35 UNL     1     -18.896  -5.177   1.075  1.00  0.00     0.127 C 
ENDBRANCH  43  44
ENDBRANCH  42  43
ENDBRANCH  40  42
ENDBRANCH  35  40
ENDBRANCH  34  35
ENDBRANCH  33  34
ENDBRANCH  31  33
ENDBRANCH  29  31
ENDBRANCH   1  29
TORSDOF 18
ENDMDL
