MODEL 1
REMARK VINA RESULT: -7.349294773      0.000      0.000
REMARK  15 active torsions:
REMARK  status: ('A' for Active; 'I' for Inactive)
REMARK    1  A    between atoms: C2_2  and  C3_3 
REMARK    2  A    between atoms: C3_3  and  C4_4 
REMARK    3  A    between atoms: C4_4  and  C5_5 
REMARK    4  A    between atoms: C5_5  and  C6_6 
REMARK    5  A    between atoms: C6_6  and  C7_7 
REMARK    6  A    between atoms: C7_7  and  N1_8 
REMARK    7  A    between atoms: C9_11  and  C10_12 
REMARK    8  A    between atoms: C10_12  and  C11_13 
REMARK    9  A    between atoms: C11_13  and  C12_14 
REMARK   10  A    between atoms: C12_14  and  C13_15 
REMARK   11  A    between atoms: C17_21  and  C18_22 
REMARK   12  A    between atoms: C18_22  and  C19_23 
REMARK   13  A    between atoms: C23_30  and  C24_31 
REMARK   14  A    between atoms: C31_44  and  C32_45 
REMARK   15  A    between atoms: C32_45  and  C33_46 
ROOT
HETATM    1  N1  UNL     1     -18.393  -1.763   1.540  1.00  0.00    -0.337 N 
HETATM    2  C8  UNL     1     -18.036  -3.018   0.993  1.00  0.00     0.243 C 
HETATM    3  O1  UNL     1     -18.301  -3.226  -0.249  1.00  0.00    -0.271 OA
HETATM    4  C9  UNL     1     -17.375  -4.158   1.705  1.00  0.00     0.179 C 
HETATM    5  N2  UNL     1     -18.354  -5.075   2.270  1.00  0.00    -0.341 N 
HETATM    6  C15 UNL     1     -19.260  -5.653   1.250  1.00  0.00     0.153 C 
HETATM    7  C16 UNL     1     -18.496  -5.416   3.629  1.00  0.00     0.243 C 
HETATM    8  O2  UNL     1     -19.698  -5.247   4.072  1.00  0.00    -0.271 OA
HETATM    9  C17 UNL     1     -17.520  -5.923   4.598  1.00  0.00     0.177 C 
HETATM   10  N3  UNL     1     -16.563  -4.982   5.097  1.00  0.00    -0.346 N 
ATOM     11  H3  UNL     1     -15.784  -4.764   4.475  1.00  0.00     0.163 HD
HETATM   12  C22 UNL     1     -16.565  -4.317   6.344  1.00  0.00     0.241 C 
HETATM   13  O3  UNL     1     -15.455  -3.731   6.620  1.00  0.00    -0.271 OA
HETATM   14  C23 UNL     1     -17.694  -4.253   7.305  1.00  0.00     0.180 C 
HETATM   15  N4  UNL     1     -18.658  -3.227   7.028  1.00  0.00    -0.346 N 
ATOM     16  H4  UNL     1     -19.630  -3.536   7.069  1.00  0.00     0.163 HD
HETATM   17  C27 UNL     1     -18.492  -1.886   6.712  1.00  0.00     0.240 C 
HETATM   18  O4  UNL     1     -19.132  -1.020   7.414  1.00  0.00    -0.271 OA
HETATM   19  C28 UNL     1     -17.671  -1.240   5.664  1.00  0.00     0.172 C 
HETATM   20  C29 UNL     1     -16.740  -0.190   6.297  1.00  0.00     0.042 C 
HETATM   21  N5  UNL     1     -18.516  -0.525   4.701  1.00  0.00    -0.346 N 
ATOM     22  H5  UNL     1     -19.452  -0.252   5.002  1.00  0.00     0.163 HD
HETATM   23  C30 UNL     1     -18.124  -0.186   3.383  1.00  0.00     0.241 C 
HETATM   24  O5  UNL     1     -18.419   1.017   3.053  1.00  0.00    -0.271 OA
HETATM   25  C31 UNL     1     -17.443  -1.063   2.421  1.00  0.00     0.179 C 
ENDROOT
BRANCH   1  26
HETATM   26  C7  UNL     1     -19.676  -1.196   1.216  1.00  0.00     0.127 C 
BRANCH  26  27
HETATM   27  C6  UNL     1     -19.975  -1.126  -0.266  1.00  0.00     0.020 C 
BRANCH  27  28
HETATM   28  C5  UNL     1     -20.083   0.385  -0.548  1.00  0.00     0.002 C 
BRANCH  28  29
HETATM   29  C4  UNL     1     -19.648   0.692  -1.954  1.00  0.00     0.000 C 
BRANCH  29  30
HETATM   30  C3  UNL     1     -18.999  -0.545  -2.517  1.00  0.00    -0.000 C 
BRANCH  30  31
HETATM   31  C2  UNL     1     -18.107  -0.258  -3.684  1.00  0.00    -0.005 C 
HETATM   32  C1  UNL     1     -18.480  -1.008  -4.932  1.00  0.00     0.005 C 
ENDBRANCH  30  31
ENDBRANCH  29  30
ENDBRANCH  28  29
ENDBRANCH  27  28
ENDBRANCH  26  27
ENDBRANCH   1  26
BRANCH  25  33
HETATM   33  C32 UNL     1     -16.390  -0.365   1.616  1.00  0.00     0.039 C 
BRANCH  33  34
HETATM   34  C33 UNL     1     -16.814   0.159   0.303  1.00  0.00    -0.020 C 
HETATM   35  C34 UNL     1     -15.756  -0.254  -0.733  1.00  0.00     0.009 C 
HETATM   36  C35 UNL     1     -16.754   1.695   0.283  1.00  0.00     0.009 C 
ENDBRANCH  33  34
ENDBRANCH  25  33
BRANCH   4  37
HETATM   37  C10 UNL     1     -16.547  -4.915   0.688  1.00  0.00     0.035 C 
BRANCH  37  38
HETATM   38  C11 UNL     1     -15.687  -5.977   1.332  1.00  0.00     0.002 C 
BRANCH  38  39
HETATM   39  C12 UNL     1     -14.490  -5.428   2.060  1.00  0.00    -0.000 C 
BRANCH  39  40
HETATM   40  C13 UNL     1     -13.917  -6.453   3.004  1.00  0.00    -0.005 C 
HETATM   41  C14 UNL     1     -12.404  -6.296   2.975  1.00  0.00     0.005 C 
ENDBRANCH  39  40
ENDBRANCH  38  39
ENDBRANCH  37  38
ENDBRANCH   4  37
BRANCH   9  42
HETATM   42  C18 UNL     1     -16.804  -7.189   4.097  1.00  0.00     0.038 C 
BRANCH  42  43
HETATM   43  C19 UNL     1     -17.726  -8.334   3.893  1.00  0.00    -0.020 C 
HETATM   44  C20 UNL     1     -17.455  -8.946   2.532  1.00  0.00     0.009 C 
HETATM   45  C21 UNL     1     -17.326  -9.391   4.923  1.00  0.00     0.009 C 
ENDBRANCH  42  43
ENDBRANCH   9  42
BRANCH  14  46
HETATM   46  C24 UNL     1     -17.210  -4.265   8.739  1.00  0.00     0.009 C 
HETATM   47  C25 UNL     1     -16.901  -5.602   9.308  1.00  0.00     0.012 C 
HETATM   48  C26 UNL     1     -16.018  -3.369   8.942  1.00  0.00     0.012 C 
ENDBRANCH  14  46
TORSDOF 15
ENDMDL
MODEL 2
REMARK VINA RESULT: -7.065818097      2.056      8.541
REMARK  15 active torsions:
REMARK  status: ('A' for Active; 'I' for Inactive)
REMARK    1  A    between atoms: C2_2  and  C3_3 
REMARK    2  A    between atoms: C3_3  and  C4_4 
REMARK    3  A    between atoms: C4_4  and  C5_5 
REMARK    4  A    between atoms: C5_5  and  C6_6 
REMARK    5  A    between atoms: C6_6  and  C7_7 
REMARK    6  A    between atoms: C7_7  and  N1_8 
REMARK    7  A    between atoms: C9_11  and  C10_12 
REMARK    8  A    between atoms: C10_12  and  C11_13 
REMARK    9  A    between atoms: C11_13  and  C12_14 
REMARK   10  A    between atoms: C12_14  and  C13_15 
REMARK   11  A    between atoms: C17_21  and  C18_22 
REMARK   12  A    between atoms: C18_22  and  C19_23 
REMARK   13  A    between atoms: C23_30  and  C24_31 
REMARK   14  A    between atoms: C31_44  and  C32_45 
REMARK   15  A    between atoms: C32_45  and  C33_46 
ROOT
HETATM    1  N1  UNL     1     -17.238  -6.673   5.336  1.00  0.00    -0.337 N 
HETATM    2  C8  UNL     1     -16.894  -5.704   6.308  1.00  0.00     0.243 C 
HETATM    3  O1  UNL     1     -16.856  -6.079   7.539  1.00  0.00    -0.271 OA
HETATM    4  C9  UNL     1     -16.565  -4.262   6.069  1.00  0.00     0.179 C 
HETATM    5  N2  UNL     1     -17.750  -3.421   6.157  1.00  0.00    -0.341 N 
HETATM    6  C15 UNL     1     -18.425  -3.511   7.473  1.00  0.00     0.153 C 
HETATM    7  C16 UNL     1     -18.269  -2.595   5.141  1.00  0.00     0.243 C 
HETATM    8  O2  UNL     1     -19.517  -2.816   4.896  1.00  0.00    -0.271 OA
HETATM    9  C17 UNL     1     -17.632  -1.547   4.338  1.00  0.00     0.177 C 
HETATM   10  N3  UNL     1     -16.736  -1.982   3.310  1.00  0.00    -0.346 N 
ATOM     11  H3  UNL     1     -15.806  -2.265   3.618  1.00  0.00     0.163 HD
HETATM   12  C22 UNL     1     -16.981  -2.066   1.921  1.00  0.00     0.241 C 
HETATM   13  O3  UNL     1     -15.920  -2.244   1.218  1.00  0.00    -0.271 OA
HETATM   14  C23 UNL     1     -18.304  -1.969   1.253  1.00  0.00     0.180 C 
HETATM   15  N4  UNL     1     -19.047  -3.195   1.217  1.00  0.00    -0.346 N 
ATOM     16  H4  UNL     1     -20.025  -3.107   1.494  1.00  0.00     0.163 HD
HETATM   17  C27 UNL     1     -18.660  -4.482   0.869  1.00  0.00     0.240 C 
HETATM   18  O4  UNL     1     -19.359  -5.101  -0.015  1.00  0.00    -0.271 OA
HETATM   19  C28 UNL     1     -17.535  -5.311   1.354  1.00  0.00     0.172 C 
HETATM   20  C29 UNL     1     -16.686  -5.793   0.164  1.00  0.00     0.042 C 
HETATM   21  N5  UNL     1     -18.024  -6.515   2.034  1.00  0.00    -0.346 N 
ATOM     22  H5  UNL     1     -18.970  -6.831   1.819  1.00  0.00     0.163 HD
HETATM   23  C30 UNL     1     -17.275  -7.270   2.970  1.00  0.00     0.241 C 
HETATM   24  O5  UNL     1     -17.343  -8.535   2.780  1.00  0.00    -0.271 OA
HETATM   25  C31 UNL     1     -16.473  -6.738   4.080  1.00  0.00     0.179 C 
ENDROOT
BRANCH   1  26
HETATM   26  C7  UNL     1     -18.328  -7.576   5.602  1.00  0.00     0.127 C 
BRANCH  26  27
HETATM   27  C6  UNL     1     -17.902  -8.972   6.001  1.00  0.00     0.020 C 
BRANCH  27  28
HETATM   28  C5  UNL     1     -18.315  -9.073   7.483  1.00  0.00     0.002 C 
BRANCH  28  29
HETATM   29  C4  UNL     1     -17.144  -9.484   8.331  1.00  0.00     0.000 C 
BRANCH  29  30
HETATM   30  C3  UNL     1     -15.933  -9.567   7.437  1.00  0.00    -0.000 C 
BRANCH  30  31
HETATM   31  C2  UNL     1     -14.759  -8.809   7.971  1.00  0.00    -0.005 C 
HETATM   32  C1  UNL     1     -14.896  -8.417   9.416  1.00  0.00     0.005 C 
ENDBRANCH  30  31
ENDBRANCH  29  30
ENDBRANCH  28  29
ENDBRANCH  27  28
ENDBRANCH  26  27
ENDBRANCH   1  26
BRANCH  25  33
HETATM   33  C32 UNL     1     -15.180  -7.467   4.286  1.00  0.00     0.039 C 
BRANCH  33  34
HETATM   34  C33 UNL     1     -13.975  -6.628   4.430  1.00  0.00    -0.020 C 
HETATM   35  C34 UNL     1     -13.401  -6.384   3.026  1.00  0.00     0.009 C 
HETATM   36  C35 UNL     1     -12.854  -7.400   5.146  1.00  0.00     0.009 C 
ENDBRANCH  33  34
ENDBRANCH  25  33
BRANCH   4  37
HETATM   37  C10 UNL     1     -15.593  -3.830   7.147  1.00  0.00     0.035 C 
BRANCH  37  38
HETATM   38  C11 UNL     1     -14.521  -4.864   7.395  1.00  0.00     0.002 C 
BRANCH  38  39
HETATM   39  C12 UNL     1     -13.907  -4.784   8.766  1.00  0.00    -0.000 C 
BRANCH  39  40
HETATM   40  C13 UNL     1     -14.778  -3.987   9.701  1.00  0.00    -0.005 C 
HETATM   41  C14 UNL     1     -15.416  -4.971  10.671  1.00  0.00     0.005 C 
ENDBRANCH  39  40
ENDBRANCH  38  39
ENDBRANCH  37  38
ENDBRANCH   4  37
BRANCH   9  42
HETATM   42  C18 UNL     1     -16.955  -0.475   5.210  1.00  0.00     0.038 C 
BRANCH  42  43
HETATM   43  C19 UNL     1     -17.752   0.773   5.318  1.00  0.00    -0.020 C 
HETATM   44  C20 UNL     1     -18.481   1.005   4.010  1.00  0.00     0.009 C 
HETATM   45  C21 UNL     1     -18.831   0.499   6.366  1.00  0.00     0.009 C 
ENDBRANCH  42  43
ENDBRANCH   9  42
BRANCH  14  46
HETATM   46  C24 UNL     1     -18.203  -1.274  -0.087  1.00  0.00     0.009 C 
HETATM   47  C25 UNL     1     -19.173  -1.718  -1.122  1.00  0.00     0.012 C 
HETATM   48  C26 UNL     1     -18.288   0.223   0.042  1.00  0.00     0.012 C 
ENDBRANCH  14  46
TORSDOF 15
ENDMDL
MODEL 3
REMARK VINA RESULT: -6.939517198      2.352      8.603
REMARK  15 active torsions:
REMARK  status: ('A' for Active; 'I' for Inactive)
REMARK    1  A    between atoms: C2_2  and  C3_3 
REMARK    2  A    between atoms: C3_3  and  C4_4 
REMARK    3  A    between atoms: C4_4  and  C5_5 
REMARK    4  A    between atoms: C5_5  and  C6_6 
REMARK    5  A    between atoms: C6_6  and  C7_7 
REMARK    6  A    between atoms: C7_7  and  N1_8 
REMARK    7  A    between atoms: C9_11  and  C10_12 
REMARK    8  A    between atoms: C10_12  and  C11_13 
REMARK    9  A    between atoms: C11_13  and  C12_14 
REMARK   10  A    between atoms: C12_14  and  C13_15 
REMARK   11  A    between atoms: C17_21  and  C18_22 
REMARK   12  A    between atoms: C18_22  and  C19_23 
REMARK   13  A    between atoms: C23_30  and  C24_31 
REMARK   14  A    between atoms: C31_44  and  C32_45 
REMARK   15  A    between atoms: C32_45  and  C33_46 
ROOT
HETATM    1  N1  UNL     1     -17.224  -6.700   5.360  1.00  0.00    -0.337 N 
HETATM    2  C8  UNL     1     -16.886  -5.731   6.333  1.00  0.00     0.243 C 
HETATM    3  O1  UNL     1     -16.845  -6.109   7.564  1.00  0.00    -0.271 OA
HETATM    4  C9  UNL     1     -16.565  -4.287   6.097  1.00  0.00     0.179 C 
HETATM    5  N2  UNL     1     -17.755  -3.453   6.187  1.00  0.00    -0.341 N 
HETATM    6  C15 UNL     1     -18.429  -3.550   7.503  1.00  0.00     0.153 C 
HETATM    7  C16 UNL     1     -18.279  -2.628   5.173  1.00  0.00     0.243 C 
HETATM    8  O2  UNL     1     -19.526  -2.857   4.928  1.00  0.00    -0.271 OA
HETATM    9  C17 UNL     1     -17.649  -1.575   4.372  1.00  0.00     0.177 C 
HETATM   10  N3  UNL     1     -16.751  -2.003   3.342  1.00  0.00    -0.346 N 
ATOM     11  H3  UNL     1     -15.819  -2.282   3.649  1.00  0.00     0.163 HD
HETATM   12  C22 UNL     1     -16.996  -2.087   1.953  1.00  0.00     0.241 C 
HETATM   13  O3  UNL     1     -15.934  -2.256   1.249  1.00  0.00    -0.271 OA
HETATM   14  C23 UNL     1     -18.319  -1.996   1.286  1.00  0.00     0.180 C 
HETATM   15  N4  UNL     1     -19.055  -3.226   1.248  1.00  0.00    -0.346 N 
ATOM     16  H4  UNL     1     -20.034  -3.144   1.525  1.00  0.00     0.163 HD
HETATM   17  C27 UNL     1     -18.661  -4.510   0.897  1.00  0.00     0.240 C 
HETATM   18  O4  UNL     1     -19.356  -5.132   0.012  1.00  0.00    -0.271 OA
HETATM   19  C28 UNL     1     -17.530  -5.333   1.380  1.00  0.00     0.172 C 
HETATM   20  C29 UNL     1     -16.679  -5.809   0.189  1.00  0.00     0.042 C 
HETATM   21  N5  UNL     1     -18.012  -6.541   2.059  1.00  0.00    -0.346 N 
ATOM     22  H5  UNL     1     -18.956  -6.862   1.843  1.00  0.00     0.163 HD
HETATM   23  C30 UNL     1     -17.259  -7.294   2.993  1.00  0.00     0.241 C 
HETATM   24  O5  UNL     1     -17.319  -8.559   2.800  1.00  0.00    -0.271 OA
HETATM   25  C31 UNL     1     -16.459  -6.759   4.104  1.00  0.00     0.179 C 
ENDROOT
BRANCH   1  26
HETATM   26  C7  UNL     1     -18.308  -7.611   5.625  1.00  0.00     0.127 C 
BRANCH  26  27
HETATM   27  C6  UNL     1     -17.886  -8.929   6.234  1.00  0.00     0.020 C 
BRANCH  27  28
HETATM   28  C5  UNL     1     -18.830  -9.097   7.441  1.00  0.00     0.002 C 
BRANCH  28  29
HETATM   29  C4  UNL     1     -19.240 -10.535   7.596  1.00  0.00     0.000 C 
BRANCH  29  30
HETATM   30  C3  UNL     1     -20.518 -10.567   8.394  1.00  0.00    -0.000 C 
BRANCH  30  31
HETATM   31  C2  UNL     1     -20.867  -9.240   8.992  1.00  0.00    -0.005 C 
HETATM   32  C1  UNL     1     -22.298  -8.834   8.776  1.00  0.00     0.005 C 
ENDBRANCH  30  31
ENDBRANCH  29  30
ENDBRANCH  28  29
ENDBRANCH  27  28
ENDBRANCH  26  27
ENDBRANCH   1  26
BRANCH  25  33
HETATM   33  C32 UNL     1     -15.161  -7.481   4.308  1.00  0.00     0.039 C 
BRANCH  33  34
HETATM   34  C33 UNL     1     -13.954  -6.637   4.394  1.00  0.00    -0.020 C 
HETATM   35  C34 UNL     1     -13.507  -6.307   2.962  1.00  0.00     0.009 C 
HETATM   36  C35 UNL     1     -12.770  -7.436   4.963  1.00  0.00     0.009 C 
ENDBRANCH  33  34
ENDBRANCH  25  33
BRANCH   4  37
HETATM   37  C10 UNL     1     -15.596  -3.851   7.175  1.00  0.00     0.035 C 
BRANCH  37  38
HETATM   38  C11 UNL     1     -14.455  -4.827   7.344  1.00  0.00     0.002 C 
BRANCH  38  39
HETATM   39  C12 UNL     1     -13.832  -4.800   8.713  1.00  0.00    -0.000 C 
BRANCH  39  40
HETATM   40  C13 UNL     1     -14.716  -4.073   9.693  1.00  0.00    -0.005 C 
HETATM   41  C14 UNL     1     -15.243  -5.107  10.677  1.00  0.00     0.005 C 
ENDBRANCH  39  40
ENDBRANCH  38  39
ENDBRANCH  37  38
ENDBRANCH   4  37
BRANCH   9  42
HETATM   42  C18 UNL     1     -16.978  -0.501   5.245  1.00  0.00     0.038 C 
BRANCH  42  43
HETATM   43  C19 UNL     1     -17.736   0.775   5.279  1.00  0.00    -0.020 C 
HETATM   44  C20 UNL     1     -18.429   0.971   3.945  1.00  0.00     0.009 C 
HETATM   45  C21 UNL     1     -18.846   0.583   6.313  1.00  0.00     0.009 C 
ENDBRANCH  42  43
ENDBRANCH   9  42
BRANCH  14  46
HETATM   46  C24 UNL     1     -18.223  -1.298  -0.053  1.00  0.00     0.009 C 
HETATM   47  C25 UNL     1     -19.213  -1.722  -1.078  1.00  0.00     0.012 C 
HETATM   48  C26 UNL     1     -18.282   0.199   0.082  1.00  0.00     0.012 C 
ENDBRANCH  14  46
TORSDOF 15
ENDMDL
MODEL 4
REMARK VINA RESULT: -6.900078160      2.858      8.850
REMARK  15 active torsions:
REMARK  status: ('A' for Active; 'I' for Inactive)
REMARK    1  A    between atoms: C2_2  and  C3_3 
REMARK    2  A    between atoms: C3_3  and  C4_4 
REMARK    3  A    between atoms: C4_4  and  C5_5 
REMARK    4  A    between atoms: C5_5  and  C6_6 
REMARK    5  A    between atoms: C6_6  and  C7_7 
REMARK    6  A    between atoms: C7_7  and  N1_8 
REMARK    7  A    between atoms: C9_11  and  C10_12 
REMARK    8  A    between atoms: C10_12  and  C11_13 
REMARK    9  A    between atoms: C11_13  and  C12_14 
REMARK   10  A    between atoms: C12_14  and  C13_15 
REMARK   11  A    between atoms: C17_21  and  C18_22 
REMARK   12  A    between atoms: C18_22  and  C19_23 
REMARK   13  A    between atoms: C23_30  and  C24_31 
REMARK   14  A    between atoms: C31_44  and  C32_45 
REMARK   15  A    between atoms: C32_45  and  C33_46 
ROOT
HETATM    1  N1  UNL     1     -17.154  -7.263   6.982  1.00  0.00    -0.337 N 
HETATM    2  C8  UNL     1     -16.709  -6.087   7.628  1.00  0.00     0.243 C 
HETATM    3  O1  UNL     1     -16.559  -6.127   8.906  1.00  0.00    -0.271 OA
HETATM    4  C9  UNL     1     -16.387  -4.771   6.988  1.00  0.00     0.179 C 
HETATM    5  N2  UNL     1     -17.548  -3.894   6.954  1.00  0.00    -0.341 N 
HETATM    6  C15 UNL     1     -18.097  -3.610   8.301  1.00  0.00     0.153 C 
HETATM    7  C16 UNL     1     -18.151  -3.345   5.805  1.00  0.00     0.243 C 
HETATM    8  O2  UNL     1     -19.419  -3.578   5.738  1.00  0.00    -0.271 OA
HETATM    9  C17 UNL     1     -17.580  -2.569   4.701  1.00  0.00     0.177 C 
HETATM   10  N3  UNL     1     -16.790  -3.290   3.750  1.00  0.00    -0.346 N 
ATOM     11  H3  UNL     1     -15.839  -3.517   4.039  1.00  0.00     0.163 HD
HETATM   12  C22 UNL     1     -17.167  -3.728   2.460  1.00  0.00     0.241 C 
HETATM   13  O3  UNL     1     -16.179  -4.122   1.738  1.00  0.00    -0.271 OA
HETATM   14  C23 UNL     1     -18.545  -3.761   1.909  1.00  0.00     0.180 C 
HETATM   15  N4  UNL     1     -19.303  -4.926   2.264  1.00  0.00    -0.346 N 
ATOM     16  H4  UNL     1     -20.249  -4.733   2.592  1.00  0.00     0.163 HD
HETATM   17  C27 UNL     1     -18.966  -6.272   2.236  1.00  0.00     0.240 C 
HETATM   18  O4  UNL     1     -19.752  -7.076   1.612  1.00  0.00    -0.271 OA
HETATM   19  C28 UNL     1     -17.809  -6.985   2.823  1.00  0.00     0.172 C 
HETATM   20  C29 UNL     1     -17.082  -7.793   1.733  1.00  0.00     0.042 C 
HETATM   21  N5  UNL     1     -18.246  -7.949   3.838  1.00  0.00    -0.346 N 
ATOM     22  H5  UNL     1     -19.211  -8.276   3.798  1.00  0.00     0.163 HD
HETATM   23  C30 UNL     1     -17.421  -8.459   4.871  1.00  0.00     0.241 C 
HETATM   24  O5  UNL     1     -17.522  -9.727   5.029  1.00  0.00    -0.271 OA
HETATM   25  C31 UNL     1     -16.511  -7.684   5.726  1.00  0.00     0.179 C 
ENDROOT
BRANCH   1  26
HETATM   26  C7  UNL     1     -18.224  -8.025   7.572  1.00  0.00     0.127 C 
BRANCH  26  27
HETATM   27  C6  UNL     1     -17.771  -9.123   8.508  1.00  0.00     0.020 C 
BRANCH  27  28
HETATM   28  C5  UNL     1     -18.887 -10.181   8.404  1.00  0.00     0.002 C 
BRANCH  28  29
HETATM   29  C4  UNL     1     -20.133  -9.579   7.816  1.00  0.00     0.000 C 
BRANCH  29  30
HETATM   30  C3  UNL     1     -21.273  -9.869   8.757  1.00  0.00    -0.000 C 
BRANCH  30  31
HETATM   31  C2  UNL     1     -22.280  -8.763   8.814  1.00  0.00    -0.005 C 
HETATM   32  C1  UNL     1     -22.240  -7.970  10.090  1.00  0.00     0.005 C 
ENDBRANCH  30  31
ENDBRANCH  29  30
ENDBRANCH  28  29
ENDBRANCH  27  28
ENDBRANCH  26  27
ENDBRANCH   1  26
BRANCH  25  33
HETATM   33  C32 UNL     1     -15.213  -8.379   6.003  1.00  0.00     0.039 C 
BRANCH  33  34
HETATM   34  C33 UNL     1     -14.113  -8.105   5.059  1.00  0.00    -0.020 C 
HETATM   35  C34 UNL     1     -12.796  -8.128   5.851  1.00  0.00     0.009 C 
HETATM   36  C35 UNL     1     -14.191  -6.662   4.535  1.00  0.00     0.009 C 
ENDBRANCH  33  34
ENDBRANCH  25  33
BRANCH   4  37
HETATM   37  C10 UNL     1     -15.313  -4.106   7.823  1.00  0.00     0.035 C 
BRANCH  37  38
HETATM   38  C11 UNL     1     -14.001  -4.851   7.760  1.00  0.00     0.002 C 
BRANCH  38  39
HETATM   39  C12 UNL     1     -13.354  -5.053   9.104  1.00  0.00    -0.000 C 
BRANCH  39  40
HETATM   40  C13 UNL     1     -12.538  -6.319   9.125  1.00  0.00    -0.005 C 
HETATM   41  C14 UNL     1     -13.488  -7.462   9.451  1.00  0.00     0.005 C 
ENDBRANCH  39  40
ENDBRANCH  38  39
ENDBRANCH  37  38
ENDBRANCH   4  37
BRANCH   9  42
HETATM   42  C18 UNL     1     -16.812  -1.331   5.194  1.00  0.00     0.038 C 
BRANCH  42  43
HETATM   43  C19 UNL     1     -17.540  -0.060   4.951  1.00  0.00    -0.020 C 
HETATM   44  C20 UNL     1     -18.427  -0.228   3.733  1.00  0.00     0.009 C 
HETATM   45  C21 UNL     1     -18.481   0.126   6.142  1.00  0.00     0.009 C 
ENDBRANCH  42  43
ENDBRANCH   9  42
BRANCH  14  46
HETATM   46  C24 UNL     1     -18.563  -3.447   0.429  1.00  0.00     0.009 C 
HETATM   47  C25 UNL     1     -19.844  -3.716  -0.276  1.00  0.00     0.012 C 
HETATM   48  C26 UNL     1     -18.146  -2.029   0.145  1.00  0.00     0.012 C 
ENDBRANCH  14  46
TORSDOF 15
ENDMDL
MODEL 5
REMARK VINA RESULT: -6.897891107      3.027      7.473
REMARK  15 active torsions:
REMARK  status: ('A' for Active; 'I' for Inactive)
REMARK    1  A    between atoms: C2_2  and  C3_3 
REMARK    2  A    between atoms: C3_3  and  C4_4 
REMARK    3  A    between atoms: C4_4  and  C5_5 
REMARK    4  A    between atoms: C5_5  and  C6_6 
REMARK    5  A    between atoms: C6_6  and  C7_7 
REMARK    6  A    between atoms: C7_7  and  N1_8 
REMARK    7  A    between atoms: C9_11  and  C10_12 
REMARK    8  A    between atoms: C10_12  and  C11_13 
REMARK    9  A    between atoms: C11_13  and  C12_14 
REMARK   10  A    between atoms: C12_14  and  C13_15 
REMARK   11  A    between atoms: C17_21  and  C18_22 
REMARK   12  A    between atoms: C18_22  and  C19_23 
REMARK   13  A    between atoms: C23_30  and  C24_31 
REMARK   14  A    between atoms: C31_44  and  C32_45 
REMARK   15  A    between atoms: C32_45  and  C33_46 
ROOT
HETATM    1  N1  UNL     1     -17.627  -3.867   5.863  1.00  0.00    -0.337 N 
HETATM    2  C8  UNL     1     -17.678  -4.095   7.258  1.00  0.00     0.243 C 
HETATM    3  O1  UNL     1     -18.345  -3.261   7.976  1.00  0.00    -0.271 OA
HETATM    4  C9  UNL     1     -17.033  -5.216   8.014  1.00  0.00     0.179 C 
HETATM    5  N2  UNL     1     -15.701  -4.852   8.475  1.00  0.00    -0.341 N 
HETATM    6  C15 UNL     1     -15.701  -3.662   9.358  1.00  0.00     0.153 C 
HETATM    7  C16 UNL     1     -14.495  -5.503   8.151  1.00  0.00     0.243 C 
HETATM    8  O2  UNL     1     -13.597  -4.702   7.683  1.00  0.00    -0.271 OA
HETATM    9  C17 UNL     1     -14.105  -6.912   8.260  1.00  0.00     0.177 C 
HETATM   10  N3  UNL     1     -14.666  -7.809   7.295  1.00  0.00    -0.346 N 
ATOM     11  H3  UNL     1     -15.630  -8.096   7.459  1.00  0.00     0.163 HD
HETATM   12  C22 UNL     1     -14.047  -8.344   6.143  1.00  0.00     0.241 C 
HETATM   13  O3  UNL     1     -14.700  -9.314   5.609  1.00  0.00    -0.271 OA
HETATM   14  C23 UNL     1     -12.768  -7.893   5.541  1.00  0.00     0.180 C 
HETATM   15  N4  UNL     1     -12.886  -6.766   4.661  1.00  0.00    -0.346 N 
ATOM     16  H4  UNL     1     -12.198  -6.030   4.820  1.00  0.00     0.163 HD
HETATM   17  C27 UNL     1     -13.779  -6.509   3.630  1.00  0.00     0.240 C 
HETATM   18  O4  UNL     1     -13.295  -6.191   2.481  1.00  0.00    -0.271 OA
HETATM   19  C28 UNL     1     -15.258  -6.534   3.611  1.00  0.00     0.172 C 
HETATM   20  C29 UNL     1     -15.754  -7.462   2.486  1.00  0.00     0.042 C 
HETATM   21  N5  UNL     1     -15.803  -5.203   3.327  1.00  0.00    -0.346 N 
ATOM     22  H5  UNL     1     -15.196  -4.532   2.856  1.00  0.00     0.163 HD
HETATM   23  C30 UNL     1     -17.114  -4.782   3.660  1.00  0.00     0.241 C 
HETATM   24  O5  UNL     1     -17.709  -4.156   2.712  1.00  0.00    -0.271 OA
HETATM   25  C31 UNL     1     -17.804  -4.999   4.939  1.00  0.00     0.179 C 
ENDROOT
BRANCH   1  26
HETATM   26  C7  UNL     1     -17.409  -2.528   5.379  1.00  0.00     0.127 C 
BRANCH  26  27
HETATM   27  C6  UNL     1     -16.341  -1.758   6.125  1.00  0.00     0.020 C 
BRANCH  27  28
HETATM   28  C5  UNL     1     -16.682  -0.282   5.836  1.00  0.00     0.002 C 
BRANCH  28  29
HETATM   29  C4  UNL     1     -18.167  -0.060   5.900  1.00  0.00     0.000 C 
BRANCH  29  30
HETATM   30  C3  UNL     1     -18.510   1.046   4.937  1.00  0.00    -0.000 C 
BRANCH  30  31
HETATM   31  C2  UNL     1     -18.004   0.793   3.552  1.00  0.00    -0.005 C 
HETATM   32  C1  UNL     1     -18.853  -0.163   2.761  1.00  0.00     0.005 C 
ENDBRANCH  30  31
ENDBRANCH  29  30
ENDBRANCH  28  29
ENDBRANCH  27  28
ENDBRANCH  26  27
ENDBRANCH   1  26
BRANCH  25  33
HETATM   33  C32 UNL     1     -19.256  -5.337   4.787  1.00  0.00     0.039 C 
BRANCH  33  34
HETATM   34  C33 UNL     1     -19.577  -6.767   4.613  1.00  0.00    -0.020 C 
HETATM   35  C34 UNL     1     -18.434  -7.585   5.235  1.00  0.00     0.009 C 
HETATM   36  C35 UNL     1     -19.531  -7.159   3.127  1.00  0.00     0.009 C 
ENDBRANCH  33  34
ENDBRANCH  25  33
BRANCH   4  37
HETATM   37  C10 UNL     1     -17.893  -5.506   9.225  1.00  0.00     0.035 C 
BRANCH  37  38
HETATM   38  C11 UNL     1     -17.786  -6.947   9.667  1.00  0.00     0.002 C 
BRANCH  38  39
HETATM   39  C12 UNL     1     -17.798  -7.125  11.160  1.00  0.00    -0.000 C 
BRANCH  39  40
HETATM   40  C13 UNL     1     -16.989  -6.050  11.839  1.00  0.00    -0.005 C 
HETATM   41  C14 UNL     1     -16.213  -6.713  12.966  1.00  0.00     0.005 C 
ENDBRANCH  39  40
ENDBRANCH  38  39
ENDBRANCH  37  38
ENDBRANCH   4  37
BRANCH   9  42
HETATM   42  C18 UNL     1     -14.313  -7.466   9.680  1.00  0.00     0.038 C 
BRANCH  42  43
HETATM   43  C19 UNL     1     -13.047  -7.598  10.443  1.00  0.00    -0.020 C 
HETATM   44  C20 UNL     1     -11.888  -7.641   9.467  1.00  0.00     0.009 C 
HETATM   45  C21 UNL     1     -12.891  -6.300  11.235  1.00  0.00     0.009 C 
ENDBRANCH  42  43
ENDBRANCH   9  42
BRANCH  14  46
HETATM   46  C24 UNL     1     -11.988  -9.049   4.953  1.00  0.00     0.009 C 
HETATM   47  C25 UNL     1     -11.038  -8.703   3.864  1.00  0.00     0.012 C 
HETATM   48  C26 UNL     1     -11.249  -9.829   6.007  1.00  0.00     0.012 C 
ENDBRANCH  14  46
TORSDOF 15
ENDMDL
