MODEL 1
REMARK VINA RESULT: -9.167694597      0.000      0.000
REMARK  19 active torsions:
REMARK  status: ('A' for Active; 'I' for Inactive)
REMARK    1  A    between atoms: C2_2  and  C3_3 
REMARK    2  A    between atoms: C3_3  and  C4_4 
REMARK    3  A    between atoms: C4_4  and  C5_5 
REMARK    4  A    between atoms: C5_5  and  C6_6 
REMARK    5  A    between atoms: C6_6  and  C7_7 
REMARK    6  A    between atoms: C7_7  and  O2_9 
REMARK    7  A    between atoms: O2_9  and  C8_10 
REMARK    8  A    between atoms: C8_10  and  C9_11 
REMARK    9  A    between atoms: C9_11  and  C10_12 
REMARK   10  A    between atoms: C10_12  and  C11_13 
REMARK   11  A    between atoms: N1_15  and  C13_16 
REMARK   12  A    between atoms: C13_16  and  C14_17 
REMARK   13  A    between atoms: N2_20  and  C17_21 
REMARK   14  A    between atoms: C20_29  and  N5_30 
REMARK       I    between atoms: N5_30  and  C21_32 
REMARK   15  A    between atoms: C21_32  and  C22_34 
REMARK   16  A    between atoms: C22_34  and  C23_35 
REMARK   17  A    between atoms: C22_34  and  N6_41 
REMARK   18  A    between atoms: C23_35  and  C24_36 
REMARK       I    between atoms: N6_41  and  C29_43 
REMARK       I    between atoms: C29_43  and  N7_45 
REMARK   19  A    between atoms: N7_45  and  C30_47 
ROOT
HETATM    1  C11 UNL     1     -11.000  14.294   0.063  1.00  0.00     0.004 A 
HETATM    2  C12 UNL     1     -11.679  13.165  -0.318  1.00  0.00     0.121 A 
HETATM    3  N1  UNL     1     -11.869  12.399   0.767  1.00  0.00    -0.301 N 
HETATM    4  N4  UNL     1     -11.341  13.000   1.799  1.00  0.00    -0.283 N 
ATOM      5  H4  UNL     1     -11.346  12.632   2.750  1.00  0.00     0.189 HD
HETATM    6  C20 UNL     1     -10.795  14.160   1.438  1.00  0.00     0.130 A 
ENDROOT
BRANCH   6   7
HETATM    7  N5  UNL     1     -10.176  15.035   2.148  1.00  0.00    -0.310 N 
HETATM    8  C21 UNL     1      -8.938  14.892   2.783  1.00  0.00     0.246 C 
HETATM    9  O3  UNL     1      -8.558  13.754   3.212  1.00  0.00    -0.271 OA
ATOM     10  H5  UNL     1     -10.641  15.936   2.260  1.00  0.00     0.170 HD
BRANCH   8  11
HETATM   11  C22 UNL     1      -8.013  16.045   2.989  1.00  0.00     0.179 C 
BRANCH  11  12
HETATM   12  C23 UNL     1      -8.377  16.848   4.203  1.00  0.00     0.039 C 
BRANCH  12  13
HETATM   13  C24 UNL     1      -8.403  16.091   5.478  1.00  0.00    -0.012 C 
HETATM   14  C25 UNL     1      -7.691  16.879   6.593  1.00  0.00     0.005 C 
HETATM   15  C26 UNL     1      -8.027  16.008   7.786  1.00  0.00     0.000 C 
HETATM   16  C27 UNL     1      -9.493  15.697   7.566  1.00  0.00     0.000 C 
HETATM   17  C28 UNL     1      -9.717  15.780   6.072  1.00  0.00     0.005 C 
ENDBRANCH  12  13
ENDBRANCH  11  12
BRANCH  11  18
HETATM   18  N6  UNL     1      -7.759  16.790   1.802  1.00  0.00    -0.330 N 
HETATM   19  C29 UNL     1      -7.125  16.234   0.643  1.00  0.00     0.322 C 
HETATM   20  O4  UNL     1      -6.783  15.026   0.713  1.00  0.00    -0.247 OA
HETATM   21  N7  UNL     1      -6.866  16.942  -0.545  1.00  0.00    -0.295 N 
ATOM     22  H7  UNL     1      -7.625  17.106  -1.207  1.00  0.00     0.172 HD
ATOM     23  H6  UNL     1      -8.043  17.769   1.775  1.00  0.00     0.165 HD
BRANCH  21  24
HETATM   24  C30 UNL     1      -5.679  17.388  -0.811  1.00  0.00     0.108 A 
HETATM   25  C31 UNL     1      -5.372  18.738  -0.605  1.00  0.00     0.049 A 
HETATM   26  C32 UNL     1      -4.084  19.178  -0.903  1.00  0.00     0.005 A 
HETATM   27  C33 UNL     1      -3.138  18.302  -1.389  1.00  0.00     0.017 A 
HETATM   28  C34 UNL     1      -3.463  16.968  -1.586  1.00  0.00     0.089 A 
HETATM   29  N8  UNL     1      -4.707  16.604  -1.284  1.00  0.00    -0.352 N 
ATOM     30  H8  UNL     1      -4.943  15.622  -1.430  1.00  0.00     0.166 HD
ENDBRANCH  21  24
ENDBRANCH  11  18
ENDBRANCH   8  11
ENDBRANCH   6   7
BRANCH   1  31
HETATM   31  C10 UNL     1     -10.560  15.406  -0.805  1.00  0.00     0.046 C 
BRANCH  31  32
HETATM   32  C9  UNL     1      -9.785  14.943  -1.999  1.00  0.00     0.031 C 
BRANCH  32  33
HETATM   33  C8  UNL     1      -9.811  15.946  -3.110  1.00  0.00     0.179 C 
BRANCH  33  34
HETATM   34  O2  UNL     1      -8.675  16.805  -3.039  1.00  0.00    -0.321 OA
BRANCH  34  35
HETATM   35  C7  UNL     1      -7.572  16.510  -3.793  1.00  0.00     0.258 C 
HETATM   36  O1  UNL     1      -6.761  15.624  -3.463  1.00  0.00    -0.265 OA
BRANCH  35  37
HETATM   37  C6  UNL     1      -7.328  17.283  -5.066  1.00  0.00     0.111 C 
BRANCH  37  38
HETATM   38  C5  UNL     1      -7.027  16.294  -6.162  1.00  0.00     0.010 C 
BRANCH  38  39
HETATM   39  C4  UNL     1      -7.933  16.497  -7.323  1.00  0.00     0.000 C 
BRANCH  39  40
HETATM   40  C3  UNL     1      -9.369  16.460  -6.904  1.00  0.00    -0.000 C 
BRANCH  40  41
HETATM   41  C2  UNL     1      -9.882  15.023  -6.822  1.00  0.00    -0.005 C 
HETATM   42  C1  UNL     1      -9.919  14.441  -8.215  1.00  0.00     0.005 C 
ENDBRANCH  40  41
ENDBRANCH  39  40
ENDBRANCH  38  39
ENDBRANCH  37  38
ENDBRANCH  35  37
ENDBRANCH  34  35
ENDBRANCH  33  34
ENDBRANCH  32  33
ENDBRANCH  31  32
ENDBRANCH   1  31
BRANCH   3  43
HETATM   43  C13 UNL     1     -12.548  11.117   0.690  1.00  0.00     0.154 C 
BRANCH  43  44
HETATM   44  C14 UNL     1     -13.778  11.073   1.550  1.00  0.00     0.025 C 
HETATM   45  C15 UNL     1     -13.388  11.121   3.028  1.00  0.00     0.028 C 
HETATM   46  C16 UNL     1     -14.607  11.715   3.667  1.00  0.00     0.124 C 
HETATM   47  N2  UNL     1     -15.086  12.648   2.689  1.00  0.00    -0.371 N 
HETATM   48  C19 UNL     1     -14.640  12.297   1.359  1.00  0.00     0.130 C 
BRANCH  47  49
HETATM   49  C17 UNL     1     -15.898  13.780   2.983  1.00  0.00     0.068 C 
HETATM   50  C18 UNL     1     -17.292  13.895   2.450  1.00  0.00     0.088 C 
HETATM   51  N3  UNL     1     -15.444  14.728   3.715  1.00  0.00    -0.389 N 
ATOM     52  H32 UNL     1     -14.494  14.650   4.078  1.00  0.00     0.157 HD
ATOM     53  H31 UNL     1     -16.026  15.539   3.926  1.00  0.00     0.157 HD
ENDBRANCH  47  49
ENDBRANCH  43  44
ENDBRANCH   3  43
TORSDOF 19
ENDMDL
MODEL 2
REMARK VINA RESULT: -9.145101379      1.039      1.543
REMARK  19 active torsions:
REMARK  status: ('A' for Active; 'I' for Inactive)
REMARK    1  A    between atoms: C2_2  and  C3_3 
REMARK    2  A    between atoms: C3_3  and  C4_4 
REMARK    3  A    between atoms: C4_4  and  C5_5 
REMARK    4  A    between atoms: C5_5  and  C6_6 
REMARK    5  A    between atoms: C6_6  and  C7_7 
REMARK    6  A    between atoms: C7_7  and  O2_9 
REMARK    7  A    between atoms: O2_9  and  C8_10 
REMARK    8  A    between atoms: C8_10  and  C9_11 
REMARK    9  A    between atoms: C9_11  and  C10_12 
REMARK   10  A    between atoms: C10_12  and  C11_13 
REMARK   11  A    between atoms: N1_15  and  C13_16 
REMARK   12  A    between atoms: C13_16  and  C14_17 
REMARK   13  A    between atoms: N2_20  and  C17_21 
REMARK   14  A    between atoms: C20_29  and  N5_30 
REMARK       I    between atoms: N5_30  and  C21_32 
REMARK   15  A    between atoms: C21_32  and  C22_34 
REMARK   16  A    between atoms: C22_34  and  C23_35 
REMARK   17  A    between atoms: C22_34  and  N6_41 
REMARK   18  A    between atoms: C23_35  and  C24_36 
REMARK       I    between atoms: N6_41  and  C29_43 
REMARK       I    between atoms: C29_43  and  N7_45 
REMARK   19  A    between atoms: N7_45  and  C30_47 
ROOT
HETATM    1  C11 UNL     1     -11.332  14.252   0.232  1.00  0.00     0.004 A 
HETATM    2  C12 UNL     1     -12.467  13.577  -0.135  1.00  0.00     0.121 A 
HETATM    3  N1  UNL     1     -13.374  13.710   0.844  1.00  0.00    -0.301 N 
HETATM    4  N4  UNL     1     -12.855  14.435   1.797  1.00  0.00    -0.283 N 
ATOM      5  H4  UNL     1     -13.335  14.688   2.661  1.00  0.00     0.189 HD
HETATM    6  C20 UNL     1     -11.612  14.797   1.487  1.00  0.00     0.130 A 
ENDROOT
BRANCH   6   7
HETATM    7  N5  UNL     1     -10.767  15.499   2.156  1.00  0.00    -0.310 N 
HETATM    8  C21 UNL     1      -9.563  15.067   2.722  1.00  0.00     0.246 C 
HETATM    9  O3  UNL     1      -9.436  13.868   3.135  1.00  0.00    -0.271 OA
ATOM     10  H5  UNL     1     -11.002  16.483   2.289  1.00  0.00     0.170 HD
BRANCH   8  11
HETATM   11  C22 UNL     1      -8.385  15.970   2.869  1.00  0.00     0.179 C 
BRANCH  11  12
HETATM   12  C23 UNL     1      -8.479  16.821   4.101  1.00  0.00     0.039 C 
BRANCH  12  13
HETATM   13  C24 UNL     1      -8.442  16.081   5.386  1.00  0.00    -0.012 C 
HETATM   14  C25 UNL     1      -7.667  16.879   6.451  1.00  0.00     0.005 C 
HETATM   15  C26 UNL     1      -7.944  16.026   7.672  1.00  0.00     0.000 C 
HETATM   16  C27 UNL     1      -9.422  15.723   7.534  1.00  0.00     0.000 C 
HETATM   17  C28 UNL     1      -9.724  15.787   6.053  1.00  0.00     0.005 C 
ENDBRANCH  12  13
ENDBRANCH  11  12
BRANCH  11  18
HETATM   18  N6  UNL     1      -8.035  16.650   1.667  1.00  0.00    -0.330 N 
HETATM   19  C29 UNL     1      -7.242  16.059   0.629  1.00  0.00     0.322 C 
HETATM   20  O4  UNL     1      -6.847  14.881   0.824  1.00  0.00    -0.247 OA
HETATM   21  N7  UNL     1      -6.886  16.702  -0.570  1.00  0.00    -0.295 N 
ATOM     22  H7  UNL     1      -7.570  16.776  -1.323  1.00  0.00     0.172 HD
ATOM     23  H6  UNL     1      -8.366  17.606   1.538  1.00  0.00     0.165 HD
BRANCH  21  24
HETATM   24  C30 UNL     1      -5.701  17.201  -0.733  1.00  0.00     0.108 A 
HETATM   25  C31 UNL     1      -5.473  18.562  -0.501  1.00  0.00     0.049 A 
HETATM   26  C32 UNL     1      -4.186  19.060  -0.687  1.00  0.00     0.005 A 
HETATM   27  C33 UNL     1      -3.163  18.229  -1.091  1.00  0.00     0.017 A 
HETATM   28  C34 UNL     1      -3.410  16.882  -1.316  1.00  0.00     0.089 A 
HETATM   29  N8  UNL     1      -4.659  16.463  -1.121  1.00  0.00    -0.352 N 
ATOM     30  H8  UNL     1      -4.838  15.472  -1.287  1.00  0.00     0.166 HD
ENDBRANCH  21  24
ENDBRANCH  11  18
ENDBRANCH   8  11
ENDBRANCH   6   7
BRANCH   1  31
HETATM   31  C10 UNL     1     -10.071  14.360  -0.531  1.00  0.00     0.046 C 
BRANCH  31  32
HETATM   32  C9  UNL     1     -10.218  15.153  -1.792  1.00  0.00     0.031 C 
BRANCH  32  33
HETATM   33  C8  UNL     1      -9.010  15.042  -2.670  1.00  0.00     0.179 C 
BRANCH  33  34
HETATM   34  O2  UNL     1      -8.660  16.317  -3.206  1.00  0.00    -0.321 OA
BRANCH  34  35
HETATM   35  C7  UNL     1      -7.508  16.438  -3.934  1.00  0.00     0.258 C 
HETATM   36  O1  UNL     1      -6.458  15.849  -3.615  1.00  0.00    -0.265 OA
BRANCH  35  37
HETATM   37  C6  UNL     1      -7.509  17.311  -5.165  1.00  0.00     0.111 C 
BRANCH  37  38
HETATM   38  C5  UNL     1      -7.487  16.413  -6.375  1.00  0.00     0.010 C 
BRANCH  38  39
HETATM   39  C4  UNL     1      -8.670  16.658  -7.240  1.00  0.00     0.000 C 
BRANCH  39  40
HETATM   40  C3  UNL     1      -9.364  15.379  -7.587  1.00  0.00    -0.000 C 
BRANCH  40  41
HETATM   41  C2  UNL     1      -9.840  14.653  -6.330  1.00  0.00    -0.005 C 
HETATM   42  C1  UNL     1     -10.994  15.422  -5.733  1.00  0.00     0.005 C 
ENDBRANCH  40  41
ENDBRANCH  39  40
ENDBRANCH  38  39
ENDBRANCH  37  38
ENDBRANCH  35  37
ENDBRANCH  34  35
ENDBRANCH  33  34
ENDBRANCH  32  33
ENDBRANCH  31  32
ENDBRANCH   1  31
BRANCH   3  43
HETATM   43  C13 UNL     1     -14.686  13.090   0.762  1.00  0.00     0.154 C 
BRANCH  43  44
HETATM   44  C14 UNL     1     -14.870  12.014   1.794  1.00  0.00     0.025 C 
HETATM   45  C15 UNL     1     -13.632  11.118   1.846  1.00  0.00     0.028 C 
HETATM   46  C16 UNL     1     -13.672  10.588   3.247  1.00  0.00     0.124 C 
HETATM   47  N2  UNL     1     -14.193  11.683   4.013  1.00  0.00    -0.371 N 
HETATM   48  C19 UNL     1     -14.967  12.585   3.188  1.00  0.00     0.130 C 
BRANCH  47  49
HETATM   49  C17 UNL     1     -13.979  11.868   5.408  1.00  0.00     0.068 C 
HETATM   50  C18 UNL     1     -13.939  10.704   6.348  1.00  0.00     0.088 C 
HETATM   51  N3  UNL     1     -13.815  13.045   5.887  1.00  0.00    -0.389 N 
ATOM     52  H32 UNL     1     -13.842  13.838   5.246  1.00  0.00     0.157 HD
ATOM     53  H31 UNL     1     -13.661  13.177   6.886  1.00  0.00     0.157 HD
ENDBRANCH  47  49
ENDBRANCH  43  44
ENDBRANCH   3  43
TORSDOF 19
ENDMDL
MODEL 3
REMARK VINA RESULT: -9.092501493      1.909     10.883
REMARK  19 active torsions:
REMARK  status: ('A' for Active; 'I' for Inactive)
REMARK    1  A    between atoms: C2_2  and  C3_3 
REMARK    2  A    between atoms: C3_3  and  C4_4 
REMARK    3  A    between atoms: C4_4  and  C5_5 
REMARK    4  A    between atoms: C5_5  and  C6_6 
REMARK    5  A    between atoms: C6_6  and  C7_7 
REMARK    6  A    between atoms: C7_7  and  O2_9 
REMARK    7  A    between atoms: O2_9  and  C8_10 
REMARK    8  A    between atoms: C8_10  and  C9_11 
REMARK    9  A    between atoms: C9_11  and  C10_12 
REMARK   10  A    between atoms: C10_12  and  C11_13 
REMARK   11  A    between atoms: N1_15  and  C13_16 
REMARK   12  A    between atoms: C13_16  and  C14_17 
REMARK   13  A    between atoms: N2_20  and  C17_21 
REMARK   14  A    between atoms: C20_29  and  N5_30 
REMARK       I    between atoms: N5_30  and  C21_32 
REMARK   15  A    between atoms: C21_32  and  C22_34 
REMARK   16  A    between atoms: C22_34  and  C23_35 
REMARK   17  A    between atoms: C22_34  and  N6_41 
REMARK   18  A    between atoms: C23_35  and  C24_36 
REMARK       I    between atoms: N6_41  and  C29_43 
REMARK       I    between atoms: C29_43  and  N7_45 
REMARK   19  A    between atoms: N7_45  and  C30_47 
ROOT
HETATM    1  C11 UNL     1      -6.969  17.709  -0.474  1.00  0.00     0.004 A 
HETATM    2  C12 UNL     1      -5.803  18.352  -0.142  1.00  0.00     0.121 A 
HETATM    3  N1  UNL     1      -5.190  18.727  -1.275  1.00  0.00    -0.301 N 
HETATM    4  N4  UNL     1      -5.919  18.347  -2.288  1.00  0.00    -0.283 N 
ATOM      5  H4  UNL     1      -5.681  18.508  -3.267  1.00  0.00     0.189 HD
HETATM    6  C20 UNL     1      -7.017  17.721  -1.869  1.00  0.00     0.130 A 
ENDROOT
BRANCH   6   7
HETATM    7  N5  UNL     1      -7.975  17.194  -2.547  1.00  0.00    -0.310 N 
HETATM    8  C21 UNL     1      -8.156  15.841  -2.849  1.00  0.00     0.246 C 
HETATM    9  O3  UNL     1      -7.152  15.069  -2.993  1.00  0.00    -0.271 OA
ATOM     10  H5  UNL     1      -8.682  17.837  -2.904  1.00  0.00     0.170 HD
BRANCH   8  11
HETATM   11  C22 UNL     1      -9.512  15.239  -3.015  1.00  0.00     0.179 C 
BRANCH  11  12
HETATM   12  C23 UNL     1     -10.181  15.702  -4.276  1.00  0.00     0.039 C 
BRANCH  12  13
HETATM   13  C24 UNL     1      -9.464  15.371  -5.532  1.00  0.00    -0.012 C 
HETATM   14  C25 UNL     1     -10.462  15.030  -6.654  1.00  0.00     0.005 C 
HETATM   15  C26 UNL     1      -9.513  14.933  -7.830  1.00  0.00     0.000 C 
HETATM   16  C27 UNL     1      -8.613  16.136  -7.627  1.00  0.00     0.000 C 
HETATM   17  C28 UNL     1      -8.617  16.413  -6.141  1.00  0.00     0.005 C 
ENDBRANCH  12  13
ENDBRANCH  11  12
BRANCH  11  18
HETATM   18  N6  UNL     1     -10.305  15.289  -1.834  1.00  0.00    -0.330 N 
HETATM   19  C29 UNL     1     -10.129  14.395  -0.728  1.00  0.00     0.322 C 
HETATM   20  O4  UNL     1      -9.221  13.531  -0.841  1.00  0.00    -0.247 OA
HETATM   21  N7  UNL     1     -10.892  14.422   0.454  1.00  0.00    -0.295 N 
ATOM     22  H7  UNL     1     -10.691  15.125   1.166  1.00  0.00     0.172 HD
ATOM     23  H6  UNL     1     -11.037  15.996  -1.772  1.00  0.00     0.165 HD
BRANCH  21  24
HETATM   24  C30 UNL     1     -11.846  13.568   0.652  1.00  0.00     0.108 A 
HETATM   25  C31 UNL     1     -13.182  13.982   0.602  1.00  0.00     0.049 A 
HETATM   26  C32 UNL     1     -14.179  13.034   0.820  1.00  0.00     0.005 A 
HETATM   27  C33 UNL     1     -13.853  11.720   1.078  1.00  0.00     0.017 A 
HETATM   28  C34 UNL     1     -12.523  11.330   1.123  1.00  0.00     0.089 A 
HETATM   29  N8  UNL     1     -11.614  12.278   0.906  1.00  0.00    -0.352 N 
ATOM     30  H8  UNL     1     -10.636  11.989   0.939  1.00  0.00     0.166 HD
ENDBRANCH  21  24
ENDBRANCH  11  18
ENDBRANCH   8  11
ENDBRANCH   6   7
BRANCH   1  31
HETATM   31  C10 UNL     1      -7.952  17.111   0.452  1.00  0.00     0.046 C 
BRANCH  31  32
HETATM   32  C9  UNL     1      -7.396  15.961   1.233  1.00  0.00     0.031 C 
BRANCH  32  33
HETATM   33  C8  UNL     1      -7.951  15.902   2.622  1.00  0.00     0.179 C 
BRANCH  33  34
HETATM   34  O2  UNL     1      -9.138  15.111   2.656  1.00  0.00    -0.321 OA
BRANCH  34  35
HETATM   35  C7  UNL     1      -9.285  14.177   3.644  1.00  0.00     0.258 C 
HETATM   36  O1  UNL     1      -8.318  13.539   4.102  1.00  0.00    -0.265 OA
BRANCH  35  37
HETATM   37  C6  UNL     1     -10.663  13.909   4.197  1.00  0.00     0.111 C 
BRANCH  37  38
HETATM   38  C5  UNL     1     -11.051  15.076   5.067  1.00  0.00     0.010 C 
BRANCH  38  39
HETATM   39  C4  UNL     1     -10.527  14.907   6.448  1.00  0.00     0.000 C 
BRANCH  39  40
HETATM   40  C3  UNL     1      -9.825  16.141   6.918  1.00  0.00    -0.000 C 
BRANCH  40  41
HETATM   41  C2  UNL     1      -8.318  16.040   6.683  1.00  0.00    -0.005 C 
HETATM   42  C1  UNL     1      -7.619  16.020   8.020  1.00  0.00     0.005 C 
ENDBRANCH  40  41
ENDBRANCH  39  40
ENDBRANCH  38  39
ENDBRANCH  37  38
ENDBRANCH  35  37
ENDBRANCH  34  35
ENDBRANCH  33  34
ENDBRANCH  32  33
ENDBRANCH  31  32
ENDBRANCH   1  31
BRANCH   3  43
HETATM   43  C13 UNL     1      -3.913  19.421  -1.260  1.00  0.00     0.154 C 
BRANCH  43  44
HETATM   44  C14 UNL     1      -2.825  18.622  -1.918  1.00  0.00     0.025 C 
HETATM   45  C15 UNL     1      -3.040  17.130  -1.659  1.00  0.00     0.028 C 
HETATM   46  C16 UNL     1      -2.356  16.495  -2.832  1.00  0.00     0.124 C 
HETATM   47  N2  UNL     1      -2.606  17.407  -3.910  1.00  0.00    -0.371 N 
HETATM   48  C19 UNL     1      -2.871  18.743  -3.422  1.00  0.00     0.130 C 
BRANCH  47  49
HETATM   49  C17 UNL     1      -2.596  17.052  -5.288  1.00  0.00     0.068 C 
HETATM   50  C18 UNL     1      -3.101  17.993  -6.337  1.00  0.00     0.088 C 
HETATM   51  N3  UNL     1      -2.150  15.909  -5.658  1.00  0.00    -0.389 N 
ATOM     52  H32 UNL     1      -1.806  15.267  -4.944  1.00  0.00     0.157 HD
ATOM     53  H31 UNL     1      -2.143  15.654  -6.646  1.00  0.00     0.157 HD
ENDBRANCH  47  49
ENDBRANCH  43  44
ENDBRANCH   3  43
TORSDOF 19
ENDMDL
MODEL 4
REMARK VINA RESULT: -9.079040586      2.456      7.155
REMARK  19 active torsions:
REMARK  status: ('A' for Active; 'I' for Inactive)
REMARK    1  A    between atoms: C2_2  and  C3_3 
REMARK    2  A    between atoms: C3_3  and  C4_4 
REMARK    3  A    between atoms: C4_4  and  C5_5 
REMARK    4  A    between atoms: C5_5  and  C6_6 
REMARK    5  A    between atoms: C6_6  and  C7_7 
REMARK    6  A    between atoms: C7_7  and  O2_9 
REMARK    7  A    between atoms: O2_9  and  C8_10 
REMARK    8  A    between atoms: C8_10  and  C9_11 
REMARK    9  A    between atoms: C9_11  and  C10_12 
REMARK   10  A    between atoms: C10_12  and  C11_13 
REMARK   11  A    between atoms: N1_15  and  C13_16 
REMARK   12  A    between atoms: C13_16  and  C14_17 
REMARK   13  A    between atoms: N2_20  and  C17_21 
REMARK   14  A    between atoms: C20_29  and  N5_30 
REMARK       I    between atoms: N5_30  and  C21_32 
REMARK   15  A    between atoms: C21_32  and  C22_34 
REMARK   16  A    between atoms: C22_34  and  C23_35 
REMARK   17  A    between atoms: C22_34  and  N6_41 
REMARK   18  A    between atoms: C23_35  and  C24_36 
REMARK       I    between atoms: N6_41  and  C29_43 
REMARK       I    between atoms: C29_43  and  N7_45 
REMARK   19  A    between atoms: N7_45  and  C30_47 
ROOT
HETATM    1  C11 UNL     1     -10.091  16.262   2.246  1.00  0.00     0.004 A 
HETATM    2  C12 UNL     1     -10.493  15.770   3.462  1.00  0.00     0.121 A 
HETATM    3  N1  UNL     1      -9.483  15.917   4.332  1.00  0.00    -0.301 N 
HETATM    4  N4  UNL     1      -8.478  16.475   3.714  1.00  0.00    -0.283 N 
ATOM      5  H4  UNL     1      -7.582  16.699   4.148  1.00  0.00     0.189 HD
HETATM    6  C20 UNL     1      -8.783  16.711   2.440  1.00  0.00     0.130 A 
ENDROOT
BRANCH   6   7
HETATM    7  N5  UNL     1      -8.071  17.234   1.505  1.00  0.00    -0.310 N 
HETATM    8  C21 UNL     1      -7.241  16.570   0.597  1.00  0.00     0.246 C 
HETATM    9  O3  UNL     1      -6.653  15.488   0.928  1.00  0.00    -0.271 OA
ATOM     10  H5  UNL     1      -8.117  18.249   1.417  1.00  0.00     0.170 HD
BRANCH   8  11
HETATM   11  C22 UNL     1      -7.003  17.082  -0.784  1.00  0.00     0.179 C 
BRANCH  11  12
HETATM   12  C23 UNL     1      -6.277  18.395  -0.779  1.00  0.00     0.039 C 
BRANCH  12  13
HETATM   13  C24 UNL     1      -4.894  18.355  -1.315  1.00  0.00    -0.012 C 
HETATM   14  C25 UNL     1      -3.877  18.138  -0.179  1.00  0.00     0.005 C 
HETATM   15  C26 UNL     1      -2.614  17.940  -0.991  1.00  0.00     0.000 C 
HETATM   16  C27 UNL     1      -3.077  17.022  -2.104  1.00  0.00     0.000 C 
HETATM   17  C28 UNL     1      -4.556  17.291  -2.277  1.00  0.00     0.005 C 
ENDBRANCH  12  13
ENDBRANCH  11  12
BRANCH  11  18
HETATM   18  N6  UNL     1      -8.151  17.009  -1.624  1.00  0.00    -0.330 N 
HETATM   19  C29 UNL     1      -8.548  15.817  -2.314  1.00  0.00     0.322 C 
HETATM   20  O4  UNL     1      -7.820  14.804  -2.153  1.00  0.00    -0.247 OA
HETATM   21  N7  UNL     1      -9.678  15.711  -3.145  1.00  0.00    -0.295 N 
ATOM     22  H7  UNL     1     -10.603  15.612  -2.725  1.00  0.00     0.172 HD
ATOM     23  H6  UNL     1      -8.720  17.847  -1.740  1.00  0.00     0.165 HD
BRANCH  21  24
HETATM   24  C30 UNL     1      -9.563  15.738  -4.435  1.00  0.00     0.108 A 
HETATM   25  C31 UNL     1     -10.626  15.326  -5.246  1.00  0.00     0.049 A 
HETATM   26  C32 UNL     1     -10.463  15.369  -6.628  1.00  0.00     0.005 A 
HETATM   27  C33 UNL     1      -9.279  15.808  -7.181  1.00  0.00     0.017 A 
HETATM   28  C34 UNL     1      -8.237  16.212  -6.361  1.00  0.00     0.089 A 
HETATM   29  N8  UNL     1      -8.450  16.150  -5.048  1.00  0.00    -0.352 N 
ATOM     30  H8  UNL     1      -7.682  16.448  -4.446  1.00  0.00     0.166 HD
ENDBRANCH  21  24
ENDBRANCH  11  18
ENDBRANCH   8  11
ENDBRANCH   6   7
BRANCH   1  31
HETATM   31  C10 UNL     1     -10.872  16.288   0.992  1.00  0.00     0.046 C 
BRANCH  31  32
HETATM   32  C9  UNL     1     -11.361  14.935   0.580  1.00  0.00     0.031 C 
BRANCH  32  33
HETATM   33  C8  UNL     1     -10.246  13.941   0.473  1.00  0.00     0.179 C 
BRANCH  33  34
HETATM   34  O2  UNL     1     -10.705  12.734  -0.133  1.00  0.00    -0.321 OA
BRANCH  34  35
HETATM   35  C7  UNL     1     -11.714  12.032   0.466  1.00  0.00     0.258 C 
HETATM   36  O1  UNL     1     -11.650  11.666   1.655  1.00  0.00    -0.265 OA
BRANCH  35  37
HETATM   37  C6  UNL     1     -12.944  11.689  -0.337  1.00  0.00     0.111 C 
BRANCH  37  38
HETATM   38  C5  UNL     1     -14.137  11.768   0.580  1.00  0.00     0.010 C 
BRANCH  38  39
HETATM   39  C4  UNL     1     -14.597  13.173   0.734  1.00  0.00     0.000 C 
BRANCH  39  40
HETATM   40  C3  UNL     1     -15.140  13.421   2.106  1.00  0.00    -0.000 C 
BRANCH  40  41
HETATM   41  C2  UNL     1     -14.030  13.834   3.071  1.00  0.00    -0.005 C 
HETATM   42  C1  UNL     1     -14.652  14.194   4.399  1.00  0.00     0.005 C 
ENDBRANCH  40  41
ENDBRANCH  39  40
ENDBRANCH  38  39
ENDBRANCH  37  38
ENDBRANCH  35  37
ENDBRANCH  34  35
ENDBRANCH  33  34
ENDBRANCH  32  33
ENDBRANCH  31  32
ENDBRANCH   1  31
BRANCH   3  43
HETATM   43  C13 UNL     1      -9.591  15.473   5.712  1.00  0.00     0.154 C 
BRANCH  43  44
HETATM   44  C14 UNL     1     -10.902  14.794   5.989  1.00  0.00     0.025 C 
HETATM   45  C15 UNL     1     -10.871  13.359   5.463  1.00  0.00     0.028 C 
HETATM   46  C16 UNL     1     -11.872  12.668   6.339  1.00  0.00     0.124 C 
HETATM   47  N2  UNL     1     -11.713  13.311   7.612  1.00  0.00    -0.371 N 
HETATM   48  C19 UNL     1     -11.150  14.636   7.469  1.00  0.00     0.130 C 
BRANCH  47  49
HETATM   49  C17 UNL     1     -12.062  12.725   8.861  1.00  0.00     0.068 C 
HETATM   50  C18 UNL     1     -11.240  11.628   9.462  1.00  0.00     0.088 C 
HETATM   51  N3  UNL     1     -13.096  13.132   9.499  1.00  0.00    -0.389 N 
ATOM     52  H32 UNL     1     -13.657  13.880   9.090  1.00  0.00     0.157 HD
ATOM     53  H31 UNL     1     -13.346  12.713  10.395  1.00  0.00     0.157 HD
ENDBRANCH  47  49
ENDBRANCH  43  44
ENDBRANCH   3  43
TORSDOF 19
ENDMDL
MODEL 5
REMARK VINA RESULT: -8.976582942      1.552      2.173
REMARK  19 active torsions:
REMARK  status: ('A' for Active; 'I' for Inactive)
REMARK    1  A    between atoms: C2_2  and  C3_3 
REMARK    2  A    between atoms: C3_3  and  C4_4 
REMARK    3  A    between atoms: C4_4  and  C5_5 
REMARK    4  A    between atoms: C5_5  and  C6_6 
REMARK    5  A    between atoms: C6_6  and  C7_7 
REMARK    6  A    between atoms: C7_7  and  O2_9 
REMARK    7  A    between atoms: O2_9  and  C8_10 
REMARK    8  A    between atoms: C8_10  and  C9_11 
REMARK    9  A    between atoms: C9_11  and  C10_12 
REMARK   10  A    between atoms: C10_12  and  C11_13 
REMARK   11  A    between atoms: N1_15  and  C13_16 
REMARK   12  A    between atoms: C13_16  and  C14_17 
REMARK   13  A    between atoms: N2_20  and  C17_21 
REMARK   14  A    between atoms: C20_29  and  N5_30 
REMARK       I    between atoms: N5_30  and  C21_32 
REMARK   15  A    between atoms: C21_32  and  C22_34 
REMARK   16  A    between atoms: C22_34  and  C23_35 
REMARK   17  A    between atoms: C22_34  and  N6_41 
REMARK   18  A    between atoms: C23_35  and  C24_36 
REMARK       I    between atoms: N6_41  and  C29_43 
REMARK       I    between atoms: C29_43  and  N7_45 
REMARK   19  A    between atoms: N7_45  and  C30_47 
ROOT
HETATM    1  C11 UNL     1     -11.347  13.809   0.131  1.00  0.00     0.004 A 
HETATM    2  C12 UNL     1     -12.329  12.891  -0.145  1.00  0.00     0.121 A 
HETATM    3  N1  UNL     1     -13.126  12.790   0.930  1.00  0.00    -0.301 N 
HETATM    4  N4  UNL     1     -12.685  13.600   1.854  1.00  0.00    -0.283 N 
ATOM      5  H4  UNL     1     -13.110  13.717   2.773  1.00  0.00     0.189 HD
HETATM    6  C20 UNL     1     -11.603  14.250   1.431  1.00  0.00     0.130 A 
ENDROOT
BRANCH   6   7
HETATM    7  N5  UNL     1     -10.874  15.118   2.038  1.00  0.00    -0.310 N 
HETATM    8  C21 UNL     1      -9.844  14.873   2.951  1.00  0.00     0.246 C 
HETATM    9  O3  UNL     1      -9.881  13.848   3.709  1.00  0.00    -0.271 OA
ATOM     10  H5  UNL     1     -11.069  16.097   1.828  1.00  0.00     0.170 HD
BRANCH   8  11
HETATM   11  C22 UNL     1      -8.668  15.781   3.086  1.00  0.00     0.179 C 
BRANCH  11  12
HETATM   12  C23 UNL     1      -8.766  16.651   4.305  1.00  0.00     0.039 C 
BRANCH  12  13
HETATM   13  C24 UNL     1      -8.506  15.965   5.594  1.00  0.00    -0.012 C 
HETATM   14  C25 UNL     1      -7.590  16.819   6.489  1.00  0.00     0.005 C 
HETATM   15  C26 UNL     1      -7.648  16.013   7.770  1.00  0.00     0.000 C 
HETATM   16  C27 UNL     1      -9.122  15.680   7.883  1.00  0.00     0.000 C 
HETATM   17  C28 UNL     1      -9.658  15.678   6.469  1.00  0.00     0.005 C 
ENDBRANCH  12  13
ENDBRANCH  11  12
BRANCH  11  18
HETATM   18  N6  UNL     1      -8.319  16.443   1.874  1.00  0.00    -0.330 N 
HETATM   19  C29 UNL     1      -7.529  15.836   0.843  1.00  0.00     0.322 C 
HETATM   20  O4  UNL     1      -7.137  14.659   1.054  1.00  0.00    -0.247 OA
HETATM   21  N7  UNL     1      -7.173  16.461  -0.366  1.00  0.00    -0.295 N 
ATOM     22  H7  UNL     1      -7.859  16.527  -1.118  1.00  0.00     0.172 HD
ATOM     23  H6  UNL     1      -8.647  17.399   1.733  1.00  0.00     0.165 HD
BRANCH  21  24
HETATM   24  C30 UNL     1      -5.988  16.954  -0.538  1.00  0.00     0.108 A 
HETATM   25  C31 UNL     1      -5.787  18.339  -0.487  1.00  0.00     0.049 A 
HETATM   26  C32 UNL     1      -4.498  18.830  -0.677  1.00  0.00     0.005 A 
HETATM   27  C33 UNL     1      -3.446  17.969  -0.909  1.00  0.00     0.017 A 
HETATM   28  C34 UNL     1      -3.666  16.600  -0.955  1.00  0.00     0.089 A 
HETATM   29  N8  UNL     1      -4.918  16.189  -0.766  1.00  0.00    -0.352 N 
ATOM     30  H8  UNL     1      -5.077  15.181  -0.800  1.00  0.00     0.166 HD
ENDBRANCH  21  24
ENDBRANCH  11  18
ENDBRANCH   8  11
ENDBRANCH   6   7
BRANCH   1  31
HETATM   31  C10 UNL     1     -10.240  14.223  -0.755  1.00  0.00     0.046 C 
BRANCH  31  32
HETATM   32  C9  UNL     1     -10.584  15.406  -1.605  1.00  0.00     0.031 C 
BRANCH  32  33
HETATM   33  C8  UNL     1      -9.794  15.434  -2.877  1.00  0.00     0.179 C 
BRANCH  33  34
HETATM   34  O2  UNL     1      -8.409  15.221  -2.614  1.00  0.00    -0.321 OA
BRANCH  34  35
HETATM   35  C7  UNL     1      -7.562  14.982  -3.661  1.00  0.00     0.258 C 
HETATM   36  O1  UNL     1      -7.522  13.880  -4.243  1.00  0.00    -0.265 OA
BRANCH  35  37
HETATM   37  C6  UNL     1      -6.648  16.087  -4.130  1.00  0.00     0.111 C 
BRANCH  37  38
HETATM   38  C5  UNL     1      -6.720  16.145  -5.634  1.00  0.00     0.010 C 
BRANCH  38  39
HETATM   39  C4  UNL     1      -7.868  16.977  -6.079  1.00  0.00     0.000 C 
BRANCH  39  40
HETATM   40  C3  UNL     1      -8.526  16.393  -7.290  1.00  0.00    -0.000 C 
BRANCH  40  41
HETATM   41  C2  UNL     1      -9.561  15.340  -6.899  1.00  0.00    -0.005 C 
HETATM   42  C1  UNL     1      -9.973  14.581  -8.137  1.00  0.00     0.005 C 
ENDBRANCH  40  41
ENDBRANCH  39  40
ENDBRANCH  38  39
ENDBRANCH  37  38
ENDBRANCH  35  37
ENDBRANCH  34  35
ENDBRANCH  33  34
ENDBRANCH  32  33
ENDBRANCH  31  32
ENDBRANCH   1  31
BRANCH   3  43
HETATM   43  C13 UNL     1     -14.259  11.881   0.959  1.00  0.00     0.154 C 
BRANCH  43  44
HETATM   44  C14 UNL     1     -14.550  11.381   2.345  1.00  0.00     0.025 C 
HETATM   45  C15 UNL     1     -15.786  10.480   2.330  1.00  0.00     0.028 C 
HETATM   46  C16 UNL     1     -15.559   9.596   3.519  1.00  0.00     0.124 C 
HETATM   47  N2  UNL     1     -14.137   9.408   3.540  1.00  0.00    -0.371 N 
HETATM   48  C19 UNL     1     -13.451  10.486   2.862  1.00  0.00     0.130 C 
BRANCH  47  49
HETATM   49  C17 UNL     1     -13.478   8.303   4.147  1.00  0.00     0.068 C 
HETATM   50  C18 UNL     1     -13.966   6.902   3.949  1.00  0.00     0.088 C 
HETATM   51  N3  UNL     1     -12.444   8.490   4.880  1.00  0.00    -0.389 N 
ATOM     52  H32 UNL     1     -12.110   9.444   5.015  1.00  0.00     0.157 HD
ATOM     53  H31 UNL     1     -11.971   7.698   5.315  1.00  0.00     0.157 HD
ENDBRANCH  47  49
ENDBRANCH  43  44
ENDBRANCH   3  43
TORSDOF 19
ENDMDL
