MODEL 1
REMARK VINA RESULT: -8.785007292      0.000      0.000
REMARK  17 active torsions:
REMARK  status: ('A' for Active; 'I' for Inactive)
REMARK    1  A    between atoms: C2_2  and  C3_3 
REMARK    2  A    between atoms: C3_3  and  C4_4 
REMARK    3  A    between atoms: C4_4  and  C5_5 
REMARK    4  A    between atoms: C5_5  and  C6_6 
REMARK    5  A    between atoms: C5_5  and  C13_15 
REMARK    6  A    between atoms: C6_6  and  C7_7 
REMARK       I    between atoms: C7_7  and  N1_9 
REMARK       I    between atoms: C13_15  and  N2_17 
REMARK    7  A    between atoms: N2_17  and  C14_19 
REMARK    8  A    between atoms: C14_19  and  O3_20 
REMARK    9  A    between atoms: C14_19  and  C15_22 
REMARK   10  A    between atoms: C15_22  and  N3_23 
REMARK       I    between atoms: N3_23  and  C16_25 
REMARK   11  A    between atoms: C16_25  and  C17_27 
REMARK   12  A    between atoms: C17_27  and  C18_28 
REMARK   13  A    between atoms: C17_27  and  N4_33 
REMARK   14  A    between atoms: C18_28  and  C19_29 
REMARK   15  A    between atoms: C19_29  and  C21_31 
REMARK       I    between atoms: N4_33  and  C23_35 
REMARK   16  A    between atoms: C23_35  and  C24_37 
REMARK   17  A    between atoms: C31_44  and  O6_45 
ROOT
HETATM    1  C15 UNL     1     -13.480  12.766   3.200  1.00  0.00     0.098 C 
HETATM    2  C28 UNL     1     -14.909  13.005   3.424  1.00  0.00     0.040 C 
HETATM    3  C29 UNL     1     -15.868  11.878   3.434  1.00  0.00     0.010 C 
HETATM    4  C30 UNL     1     -15.442  10.568   2.916  1.00  0.00     0.018 C 
HETATM    5  C31 UNL     1     -16.121   9.415   3.619  1.00  0.00     0.122 C 
HETATM    6  C32 UNL     1     -15.187   8.961   4.718  1.00  0.00     0.032 C 
HETATM    7  C33 UNL     1     -13.988   9.916   4.634  1.00  0.00     0.007 C 
HETATM    8  C34 UNL     1     -13.984  10.282   3.165  1.00  0.00    -0.005 C 
HETATM    9  C35 UNL     1     -13.078  11.372   2.775  1.00  0.00     0.044 C 
ENDROOT
BRANCH   1  10
HETATM   10  C14 UNL     1     -12.899  13.757   2.262  1.00  0.00     0.147 C 
BRANCH  10  11
HETATM   11  N2  UNL     1     -11.675  13.879   1.656  1.00  0.00    -0.309 N 
HETATM   12  C13 UNL     1     -10.350  13.821   2.071  1.00  0.00     0.228 C 
HETATM   13  O2  UNL     1     -10.018  13.603   3.246  1.00  0.00    -0.273 OA
ATOM     14  H2  UNL     1     -11.758  14.056   0.655  1.00  0.00     0.170 HD
BRANCH  12  15
HETATM   15  C5  UNL     1      -9.166  14.022   1.120  1.00  0.00     0.087 C 
BRANCH  15  16
HETATM   16  C4  UNL     1      -8.674  15.410   1.237  1.00  0.00     0.014 C 
BRANCH  16  17
HETATM   17  C3  UNL     1      -7.234  15.692   1.375  1.00  0.00     0.000 C 
BRANCH  17  18
HETATM   18  C2  UNL     1      -6.863  16.684   0.237  1.00  0.00    -0.005 C 
HETATM   19  C1  UNL     1      -5.509  16.366  -0.316  1.00  0.00     0.005 C 
ENDBRANCH  17  18
ENDBRANCH  16  17
ENDBRANCH  15  16
BRANCH  15  20
HETATM   20  C6  UNL     1      -9.701  13.692  -0.230  1.00  0.00     0.117 C 
BRANCH  20  21
HETATM   21  C7  UNL     1     -10.024  14.741  -1.161  1.00  0.00     0.220 C 
HETATM   22  O1  UNL     1     -11.129  15.385  -1.053  1.00  0.00    -0.273 OA
HETATM   23  N1  UNL     1      -9.201  15.153  -2.237  1.00  0.00    -0.352 N 
HETATM   24  C8  UNL     1      -9.553  16.234  -3.144  1.00  0.00     0.125 C 
HETATM   25  C12 UNL     1      -7.943  14.497  -2.493  1.00  0.00     0.125 C 
HETATM   26  C9  UNL     1      -9.813  15.634  -4.510  1.00  0.00     0.020 C 
HETATM   27  C10 UNL     1      -8.769  14.612  -4.840  1.00  0.00     0.003 C 
HETATM   28  C11 UNL     1      -7.553  14.802  -3.932  1.00  0.00     0.020 C 
ENDBRANCH  20  21
ENDBRANCH  15  20
ENDBRANCH  12  15
ENDBRANCH  10  11
BRANCH  10  29
HETATM   29  O3  UNL     1     -13.749  14.728   1.957  1.00  0.00    -0.347 OA
ATOM     30  H3  UNL     1     -14.001  15.267   2.698  1.00  0.00     0.219 HD
ENDBRANCH  10  29
ENDBRANCH   1  10
BRANCH   1  31
HETATM   31  N3  UNL     1     -12.830  12.922   4.523  1.00  0.00    -0.342 N 
HETATM   32  C16 UNL     1     -12.772  14.059   5.318  1.00  0.00     0.241 C 
HETATM   33  O4  UNL     1     -13.288  15.137   5.012  1.00  0.00    -0.271 OA
ATOM     34  H3  UNL     1     -12.369  12.093   4.896  1.00  0.00     0.163 HD
BRANCH  32  35
HETATM   35  C17 UNL     1     -12.037  14.010   6.654  1.00  0.00     0.177 C 
BRANCH  35  36
HETATM   36  C18 UNL     1     -12.442  12.710   7.241  1.00  0.00     0.039 C 
BRANCH  36  37
HETATM   37  C19 UNL     1     -11.425  11.769   7.720  1.00  0.00    -0.017 C 
HETATM   38  C20 UNL     1     -10.874  12.046   9.092  1.00  0.00     0.010 C 
BRANCH  37  39
HETATM   39  C21 UNL     1     -11.751  10.311   7.505  1.00  0.00    -0.000 C 
HETATM   40  C22 UNL     1     -12.997   9.891   8.253  1.00  0.00     0.005 C 
ENDBRANCH  37  39
ENDBRANCH  36  37
ENDBRANCH  35  36
BRANCH  35  41
HETATM   41  N4  UNL     1     -10.650  14.176   6.371  1.00  0.00    -0.347 N 
HETATM   42  C23 UNL     1      -9.919  15.353   6.737  1.00  0.00     0.222 C 
HETATM   43  O5  UNL     1     -10.580  16.250   7.338  1.00  0.00    -0.273 OA
ATOM     44  H4  UNL     1     -10.157  13.426   5.887  1.00  0.00     0.163 HD
BRANCH  42  45
HETATM   45  C24 UNL     1      -8.504  15.599   6.478  1.00  0.00     0.078 C 
HETATM   46  C25 UNL     1      -8.094  17.022   6.165  1.00  0.00     0.014 C 
HETATM   47  C26 UNL     1      -8.274  16.709   4.696  1.00  0.00     0.002 C 
HETATM   48  C27 UNL     1      -8.117  15.237   5.044  1.00  0.00     0.014 C 
ENDBRANCH  42  45
ENDBRANCH  35  41
ENDBRANCH  32  35
ENDBRANCH   1  31
BRANCH   5  49
HETATM   49  O6  UNL     1     -17.301   9.864   4.258  1.00  0.00    -0.395 OA
ATOM     50  H6  UNL     1     -17.638   9.186   4.831  1.00  0.00     0.210 HD
ENDBRANCH   5  49
TORSDOF 17
ENDMDL
MODEL 2
REMARK VINA RESULT: -8.593207693      3.195     10.643
REMARK  17 active torsions:
REMARK  status: ('A' for Active; 'I' for Inactive)
REMARK    1  A    between atoms: C2_2  and  C3_3 
REMARK    2  A    between atoms: C3_3  and  C4_4 
REMARK    3  A    between atoms: C4_4  and  C5_5 
REMARK    4  A    between atoms: C5_5  and  C6_6 
REMARK    5  A    between atoms: C5_5  and  C13_15 
REMARK    6  A    between atoms: C6_6  and  C7_7 
REMARK       I    between atoms: C7_7  and  N1_9 
REMARK       I    between atoms: C13_15  and  N2_17 
REMARK    7  A    between atoms: N2_17  and  C14_19 
REMARK    8  A    between atoms: C14_19  and  O3_20 
REMARK    9  A    between atoms: C14_19  and  C15_22 
REMARK   10  A    between atoms: C15_22  and  N3_23 
REMARK       I    between atoms: N3_23  and  C16_25 
REMARK   11  A    between atoms: C16_25  and  C17_27 
REMARK   12  A    between atoms: C17_27  and  C18_28 
REMARK   13  A    between atoms: C17_27  and  N4_33 
REMARK   14  A    between atoms: C18_28  and  C19_29 
REMARK   15  A    between atoms: C19_29  and  C21_31 
REMARK       I    between atoms: N4_33  and  C23_35 
REMARK   16  A    between atoms: C23_35  and  C24_37 
REMARK   17  A    between atoms: C31_44  and  O6_45 
ROOT
HETATM    1  C15 UNL     1      -7.624  17.102  -1.388  1.00  0.00     0.098 C 
HETATM    2  C28 UNL     1      -7.115  18.284  -0.685  1.00  0.00     0.040 C 
HETATM    3  C29 UNL     1      -5.847  18.220   0.075  1.00  0.00     0.010 C 
HETATM    4  C30 UNL     1      -5.259  16.906   0.381  1.00  0.00     0.018 C 
HETATM    5  C31 UNL     1      -3.749  16.943   0.439  1.00  0.00     0.122 C 
HETATM    6  C32 UNL     1      -3.248  16.527  -0.925  1.00  0.00     0.032 C 
HETATM    7  C33 UNL     1      -4.517  16.295  -1.756  1.00  0.00     0.007 C 
HETATM    8  C34 UNL     1      -5.514  15.882  -0.694  1.00  0.00    -0.005 C 
HETATM    9  C35 UNL     1      -6.916  15.793  -1.125  1.00  0.00     0.044 C 
ENDROOT
BRANCH   1  10
HETATM   10  C14 UNL     1      -9.083  16.928  -1.183  1.00  0.00     0.147 C 
BRANCH  10  11
HETATM   11  N2  UNL     1      -9.881  15.836  -0.960  1.00  0.00    -0.309 N 
HETATM   12  C13 UNL     1     -10.980  15.555  -0.158  1.00  0.00     0.228 C 
HETATM   13  O2  UNL     1     -11.500  16.393   0.596  1.00  0.00    -0.273 OA
ATOM     14  H2  UNL     1      -9.598  15.032  -1.521  1.00  0.00     0.170 HD
BRANCH  12  15
HETATM   15  C5  UNL     1     -11.661  14.184  -0.121  1.00  0.00     0.087 C 
BRANCH  15  16
HETATM   16  C4  UNL     1     -12.999  14.317   0.488  1.00  0.00     0.014 C 
BRANCH  16  17
HETATM   17  C3  UNL     1     -14.081  13.376   0.149  1.00  0.00     0.000 C 
BRANCH  17  18
HETATM   18  C2  UNL     1     -14.664  12.862   1.494  1.00  0.00    -0.005 C 
HETATM   19  C1  UNL     1     -14.472  11.382   1.618  1.00  0.00     0.005 C 
ENDBRANCH  17  18
ENDBRANCH  16  17
ENDBRANCH  15  16
BRANCH  15  20
HETATM   20  C6  UNL     1     -10.733  13.320   0.662  1.00  0.00     0.117 C 
BRANCH  20  21
HETATM   21  C7  UNL     1     -10.598  13.501   2.084  1.00  0.00     0.220 C 
HETATM   22  O1  UNL     1     -11.495  13.051   2.883  1.00  0.00    -0.273 OA
HETATM   23  N1  UNL     1      -9.517  14.161   2.718  1.00  0.00    -0.352 N 
HETATM   24  C8  UNL     1      -9.404  14.306   4.161  1.00  0.00     0.125 C 
HETATM   25  C12 UNL     1      -8.451  14.741   1.940  1.00  0.00     0.125 C 
HETATM   26  C9  UNL     1      -9.566  15.773   4.499  1.00  0.00     0.020 C 
HETATM   27  C10 UNL     1      -8.786  16.619   3.541  1.00  0.00     0.003 C 
HETATM   28  C11 UNL     1      -7.745  15.761   2.821  1.00  0.00     0.020 C 
ENDBRANCH  20  21
ENDBRANCH  15  20
ENDBRANCH  12  15
ENDBRANCH  10  11
BRANCH  10  29
HETATM   29  O3  UNL     1      -9.744  18.077  -1.234  1.00  0.00    -0.347 OA
ATOM     30  H3  UNL     1      -9.720  18.498  -2.085  1.00  0.00     0.219 HD
ENDBRANCH  10  29
ENDBRANCH   1  10
BRANCH   1  31
HETATM   31  N3  UNL     1      -7.370  17.347  -2.828  1.00  0.00    -0.342 N 
HETATM   32  C16 UNL     1      -7.603  16.490  -3.895  1.00  0.00     0.241 C 
HETATM   33  O4  UNL     1      -8.084  15.361  -3.775  1.00  0.00    -0.271 OA
ATOM     34  H3  UNL     1      -6.975  18.257  -3.064  1.00  0.00     0.163 HD
BRANCH  32  35
HETATM   35  C17 UNL     1      -7.256  16.937  -5.312  1.00  0.00     0.177 C 
BRANCH  35  36
HETATM   36  C18 UNL     1      -8.568  17.002  -6.000  1.00  0.00     0.039 C 
BRANCH  36  37
HETATM   37  C19 UNL     1      -8.783  16.262  -7.248  1.00  0.00    -0.017 C 
HETATM   38  C20 UNL     1      -7.540  15.891  -8.009  1.00  0.00     0.010 C 
BRANCH  37  39
HETATM   39  C21 UNL     1      -9.772  15.125  -7.156  1.00  0.00    -0.000 C 
HETATM   40  C22 UNL     1     -10.747  15.312  -6.015  1.00  0.00     0.005 C 
ENDBRANCH  37  39
ENDBRANCH  36  37
ENDBRANCH  35  36
BRANCH  35  41
HETATM   41  N4  UNL     1      -6.536  18.161  -5.198  1.00  0.00    -0.347 N 
HETATM   42  C23 UNL     1      -5.105  18.218  -5.150  1.00  0.00     0.222 C 
HETATM   43  O5  UNL     1      -4.505  17.105  -5.219  1.00  0.00    -0.273 OA
ATOM     44  H4  UNL     1      -7.061  19.034  -5.148  1.00  0.00     0.163 HD
BRANCH  42  45
HETATM   45  C24 UNL     1      -4.298  19.428  -5.028  1.00  0.00     0.078 C 
HETATM   46  C25 UNL     1      -3.126  19.386  -4.070  1.00  0.00     0.014 C 
HETATM   47  C26 UNL     1      -4.040  19.926  -2.992  1.00  0.00     0.002 C 
HETATM   48  C27 UNL     1      -4.945  20.452  -4.094  1.00  0.00     0.014 C 
ENDBRANCH  42  45
ENDBRANCH  35  41
ENDBRANCH  32  35
ENDBRANCH   1  31
BRANCH   5  49
HETATM   49  O6  UNL     1      -3.304  18.271   0.640  1.00  0.00    -0.395 OA
ATOM     50  H6  UNL     1      -2.364  18.282   0.777  1.00  0.00     0.210 HD
ENDBRANCH   5  49
TORSDOF 17
ENDMDL
MODEL 3
REMARK VINA RESULT: -8.525632088      4.552     12.668
REMARK  17 active torsions:
REMARK  status: ('A' for Active; 'I' for Inactive)
REMARK    1  A    between atoms: C2_2  and  C3_3 
REMARK    2  A    between atoms: C3_3  and  C4_4 
REMARK    3  A    between atoms: C4_4  and  C5_5 
REMARK    4  A    between atoms: C5_5  and  C6_6 
REMARK    5  A    between atoms: C5_5  and  C13_15 
REMARK    6  A    between atoms: C6_6  and  C7_7 
REMARK       I    between atoms: C7_7  and  N1_9 
REMARK       I    between atoms: C13_15  and  N2_17 
REMARK    7  A    between atoms: N2_17  and  C14_19 
REMARK    8  A    between atoms: C14_19  and  O3_20 
REMARK    9  A    between atoms: C14_19  and  C15_22 
REMARK   10  A    between atoms: C15_22  and  N3_23 
REMARK       I    between atoms: N3_23  and  C16_25 
REMARK   11  A    between atoms: C16_25  and  C17_27 
REMARK   12  A    between atoms: C17_27  and  C18_28 
REMARK   13  A    between atoms: C17_27  and  N4_33 
REMARK   14  A    between atoms: C18_28  and  C19_29 
REMARK   15  A    between atoms: C19_29  and  C21_31 
REMARK       I    between atoms: N4_33  and  C23_35 
REMARK   16  A    between atoms: C23_35  and  C24_37 
REMARK   17  A    between atoms: C31_44  and  O6_45 
ROOT
HETATM    1  C15 UNL     1      -4.333  17.997  -3.173  1.00  0.00     0.098 C 
HETATM    2  C28 UNL     1      -3.776  19.336  -3.391  1.00  0.00     0.040 C 
HETATM    3  C29 UNL     1      -2.312  19.552  -3.382  1.00  0.00     0.010 C 
HETATM    4  C30 UNL     1      -1.433  18.497  -2.853  1.00  0.00     0.018 C 
HETATM    5  C31 UNL     1      -0.087  18.462  -3.540  1.00  0.00     0.122 C 
HETATM    6  C32 UNL     1      -0.183  17.430  -4.640  1.00  0.00     0.032 C 
HETATM    7  C33 UNL     1      -1.629  16.918  -4.574  1.00  0.00     0.007 C 
HETATM    8  C34 UNL     1      -1.960  17.109  -3.109  1.00  0.00    -0.005 C 
HETATM    9  C35 UNL     1      -3.369  16.918  -2.736  1.00  0.00     0.044 C 
ENDROOT
BRANCH   1  10
HETATM   10  C14 UNL     1      -5.493  18.029  -2.250  1.00  0.00     0.147 C 
BRANCH  10  11
HETATM   11  N2  UNL     1      -6.273  17.057  -1.680  1.00  0.00    -0.309 N 
HETATM   12  C13 UNL     1      -6.873  15.881  -2.115  1.00  0.00     0.228 C 
HETATM   13  O2  UNL     1      -6.768  15.457  -3.276  1.00  0.00    -0.273 OA
ATOM     14  H2  UNL     1      -6.459  17.241  -0.694  1.00  0.00     0.170 HD
BRANCH  12  15
HETATM   15  C5  UNL     1      -7.727  14.991  -1.207  1.00  0.00     0.087 C 
BRANCH  15  16
HETATM   16  C4  UNL     1      -9.142  15.402  -1.307  1.00  0.00     0.014 C 
BRANCH  16  17
HETATM   17  C3  UNL     1     -10.228  14.423  -1.130  1.00  0.00     0.000 C 
BRANCH  17  18
HETATM   18  C2  UNL     1     -11.369  15.153  -0.368  1.00  0.00    -0.005 C 
HETATM   19  C1  UNL     1     -12.060  14.213   0.570  1.00  0.00     0.005 C 
ENDBRANCH  17  18
ENDBRANCH  16  17
ENDBRANCH  15  16
BRANCH  15  20
HETATM   20  C6  UNL     1      -7.150  15.172   0.155  1.00  0.00     0.117 C 
BRANCH  20  21
HETATM   21  C7  UNL     1      -7.800  16.028   1.112  1.00  0.00     0.220 C 
HETATM   22  O1  UNL     1      -7.683  17.303   1.026  1.00  0.00    -0.273 OA
HETATM   23  N1  UNL     1      -8.596  15.578   2.194  1.00  0.00    -0.352 N 
HETATM   24  C8  UNL     1      -9.255  16.476   3.129  1.00  0.00     0.125 C 
HETATM   25  C12 UNL     1      -8.789  14.169   2.428  1.00  0.00     0.125 C 
HETATM   26  C9  UNL     1      -8.592  16.314   4.481  1.00  0.00     0.020 C 
HETATM   27  C10 UNL     1      -8.363  14.865   4.781  1.00  0.00     0.003 C 
HETATM   28  C11 UNL     1      -9.240  14.003   3.872  1.00  0.00     0.020 C 
ENDBRANCH  20  21
ENDBRANCH  15  20
ENDBRANCH  12  15
ENDBRANCH  10  11
BRANCH  10  29
HETATM   29  O3  UNL     1      -5.844  19.264  -1.917  1.00  0.00    -0.347 OA
ATOM     30  H3  UNL     1      -5.111  19.827  -1.697  1.00  0.00     0.219 HD
ENDBRANCH  10  29
ENDBRANCH   1  10
BRANCH   1  31
HETATM   31  N3  UNL     1      -4.793  17.529  -4.503  1.00  0.00    -0.342 N 
HETATM   32  C16 UNL     1      -5.792  18.070  -5.300  1.00  0.00     0.241 C 
HETATM   33  O4  UNL     1      -6.453  19.065  -4.992  1.00  0.00    -0.271 OA
ATOM     34  H3  UNL     1      -4.317  16.709  -4.877  1.00  0.00     0.163 HD
BRANCH  32  35
HETATM   35  C17 UNL     1      -6.121  17.422  -6.642  1.00  0.00     0.177 C 
BRANCH  35  36
HETATM   36  C18 UNL     1      -4.794  17.104  -7.223  1.00  0.00     0.039 C 
BRANCH  36  37
HETATM   37  C19 UNL     1      -4.514  15.754  -7.723  1.00  0.00    -0.017 C 
HETATM   38  C20 UNL     1      -5.052  15.440  -9.091  1.00  0.00     0.010 C 
BRANCH  37  39
HETATM   39  C21 UNL     1      -3.091  15.284  -7.532  1.00  0.00    -0.000 C 
HETATM   40  C22 UNL     1      -2.554  14.586  -8.761  1.00  0.00     0.005 C 
ENDBRANCH  37  39
ENDBRANCH  36  37
ENDBRANCH  35  36
BRANCH  35  41
HETATM   41  N4  UNL     1      -6.980  16.318  -6.372  1.00  0.00    -0.347 N 
HETATM   42  C23 UNL     1      -8.358  16.294  -6.761  1.00  0.00     0.222 C 
HETATM   43  O5  UNL     1      -8.779  17.320  -7.370  1.00  0.00    -0.273 OA
ATOM     44  H4  UNL     1      -6.596  15.510  -5.880  1.00  0.00     0.163 HD
BRANCH  42  45
HETATM   45  C24 UNL     1      -9.299  15.206  -6.515  1.00  0.00     0.078 C 
HETATM   46  C25 UNL     1     -10.716  15.586  -6.139  1.00  0.00     0.014 C 
HETATM   47  C26 UNL     1     -10.306  15.515  -4.684  1.00  0.00     0.002 C 
HETATM   48  C27 UNL     1      -9.147  14.627  -5.108  1.00  0.00     0.014 C 
ENDBRANCH  42  45
ENDBRANCH  35  41
ENDBRANCH  32  35
ENDBRANCH   1  31
BRANCH   5  49
HETATM   49  O6  UNL     1       0.165  19.700  -4.176  1.00  0.00    -0.395 OA
ATOM     50  H6  UNL     1       0.909  20.128  -3.770  1.00  0.00     0.210 HD
ENDBRANCH   5  49
TORSDOF 17
ENDMDL
MODEL 4
REMARK VINA RESULT: -8.477315499      1.793      3.798
REMARK  17 active torsions:
REMARK  status: ('A' for Active; 'I' for Inactive)
REMARK    1  A    between atoms: C2_2  and  C3_3 
REMARK    2  A    between atoms: C3_3  and  C4_4 
REMARK    3  A    between atoms: C4_4  and  C5_5 
REMARK    4  A    between atoms: C5_5  and  C6_6 
REMARK    5  A    between atoms: C5_5  and  C13_15 
REMARK    6  A    between atoms: C6_6  and  C7_7 
REMARK       I    between atoms: C7_7  and  N1_9 
REMARK       I    between atoms: C13_15  and  N2_17 
REMARK    7  A    between atoms: N2_17  and  C14_19 
REMARK    8  A    between atoms: C14_19  and  O3_20 
REMARK    9  A    between atoms: C14_19  and  C15_22 
REMARK   10  A    between atoms: C15_22  and  N3_23 
REMARK       I    between atoms: N3_23  and  C16_25 
REMARK   11  A    between atoms: C16_25  and  C17_27 
REMARK   12  A    between atoms: C17_27  and  C18_28 
REMARK   13  A    between atoms: C17_27  and  N4_33 
REMARK   14  A    between atoms: C18_28  and  C19_29 
REMARK   15  A    between atoms: C19_29  and  C21_31 
REMARK       I    between atoms: N4_33  and  C23_35 
REMARK   16  A    between atoms: C23_35  and  C24_37 
REMARK   17  A    between atoms: C31_44  and  O6_45 
ROOT
HETATM    1  C15 UNL     1     -11.940  12.898   1.550  1.00  0.00     0.098 C 
HETATM    2  C28 UNL     1     -12.946  13.963   1.605  1.00  0.00     0.040 C 
HETATM    3  C29 UNL     1     -14.366  13.645   1.877  1.00  0.00     0.010 C 
HETATM    4  C30 UNL     1     -14.819  12.247   1.784  1.00  0.00     0.018 C 
HETATM    5  C31 UNL     1     -15.944  11.936   2.744  1.00  0.00     0.122 C 
HETATM    6  C32 UNL     1     -15.311  11.345   3.984  1.00  0.00     0.032 C 
HETATM    7  C33 UNL     1     -13.801  11.373   3.706  1.00  0.00     0.007 C 
HETATM    8  C34 UNL     1     -13.761  11.257   2.197  1.00  0.00    -0.005 C 
HETATM    9  C35 UNL     1     -12.450  11.475   1.569  1.00  0.00     0.044 C 
ENDROOT
BRANCH   1  10
HETATM   10  C14 UNL     1     -11.013  13.078   0.406  1.00  0.00     0.147 C 
BRANCH  10  11
HETATM   11  N2  UNL     1     -10.084  14.034   0.087  1.00  0.00    -0.309 N 
HETATM   12  C13 UNL     1     -10.007  15.081  -0.824  1.00  0.00     0.228 C 
HETATM   13  O2  UNL     1     -10.926  15.364  -1.609  1.00  0.00    -0.273 OA
ATOM     14  H2  UNL     1      -9.242  13.958   0.657  1.00  0.00     0.170 HD
BRANCH  12  15
HETATM   15  C5  UNL     1      -8.782  15.991  -0.953  1.00  0.00     0.087 C 
BRANCH  15  16
HETATM   16  C4  UNL     1      -8.683  16.853   0.242  1.00  0.00     0.014 C 
BRANCH  16  17
HETATM   17  C3  UNL     1      -7.594  16.672   1.218  1.00  0.00     0.000 C 
BRANCH  17  18
HETATM   18  C2  UNL     1      -6.553  15.727   0.554  1.00  0.00    -0.005 C 
HETATM   19  C1  UNL     1      -5.318  16.487   0.180  1.00  0.00     0.005 C 
ENDBRANCH  17  18
ENDBRANCH  16  17
ENDBRANCH  15  16
BRANCH  15  20
HETATM   20  C6  UNL     1      -9.000  16.748  -2.217  1.00  0.00     0.117 C 
BRANCH  20  21
HETATM   21  C7  UNL     1      -8.025  16.693  -3.274  1.00  0.00     0.220 C 
HETATM   22  O1  UNL     1      -6.880  17.254  -3.129  1.00  0.00    -0.273 OA
HETATM   23  N1  UNL     1      -8.215  16.049  -4.521  1.00  0.00    -0.352 N 
HETATM   24  C8  UNL     1      -7.196  15.997  -5.558  1.00  0.00     0.125 C 
HETATM   25  C12 UNL     1      -9.465  15.402  -4.831  1.00  0.00     0.125 C 
HETATM   26  C9  UNL     1      -7.673  16.835  -6.726  1.00  0.00     0.020 C 
HETATM   27  C10 UNL     1      -9.120  16.568  -7.004  1.00  0.00     0.003 C 
HETATM   28  C11 UNL     1      -9.542  15.255  -6.344  1.00  0.00     0.020 C 
ENDBRANCH  20  21
ENDBRANCH  15  20
ENDBRANCH  12  15
ENDBRANCH  10  11
BRANCH  10  29
HETATM   29  O3  UNL     1     -11.117  12.108  -0.491  1.00  0.00    -0.347 OA
ATOM     30  H3  UNL     1     -11.738  11.429  -0.254  1.00  0.00     0.219 HD
ENDBRANCH  10  29
ENDBRANCH   1  10
BRANCH   1  31
HETATM   31  N3  UNL     1     -11.169  13.003   2.812  1.00  0.00    -0.342 N 
HETATM   32  C16 UNL     1     -10.563  14.130   3.351  1.00  0.00     0.241 C 
HETATM   33  O4  UNL     1     -10.599  15.246   2.827  1.00  0.00    -0.271 OA
ATOM     34  H3  UNL     1     -11.071  12.142   3.349  1.00  0.00     0.163 HD
BRANCH  32  35
HETATM   35  C17 UNL     1      -9.800  14.019   4.668  1.00  0.00     0.177 C 
BRANCH  35  36
HETATM   36  C18 UNL     1      -9.698  15.420   5.143  1.00  0.00     0.039 C 
BRANCH  36  37
HETATM   37  C19 UNL     1      -8.557  15.837   5.966  1.00  0.00    -0.017 C 
HETATM   38  C20 UNL     1      -7.845  17.081   5.511  1.00  0.00     0.010 C 
BRANCH  37  39
HETATM   39  C21 UNL     1      -8.802  15.817   7.456  1.00  0.00    -0.000 C 
HETATM   40  C22 UNL     1      -7.535  16.065   8.243  1.00  0.00     0.005 C 
ENDBRANCH  37  39
ENDBRANCH  36  37
ENDBRANCH  35  36
BRANCH  35  41
HETATM   41  N4  UNL     1     -10.528  13.117   5.496  1.00  0.00    -0.347 N 
HETATM   42  C23 UNL     1     -11.646  13.526   6.293  1.00  0.00     0.222 C 
HETATM   43  O5  UNL     1     -11.960  14.750   6.219  1.00  0.00    -0.273 OA
ATOM     44  H4  UNL     1     -10.241  12.138   5.523  1.00  0.00     0.163 HD
BRANCH  42  45
HETATM   45  C24 UNL     1     -12.437  12.665   7.167  1.00  0.00     0.078 C 
HETATM   46  C25 UNL     1     -12.310  12.888   8.659  1.00  0.00     0.014 C 
HETATM   47  C26 UNL     1     -11.212  11.847   8.681  1.00  0.00     0.002 C 
HETATM   48  C27 UNL     1     -11.773  11.303   7.377  1.00  0.00     0.014 C 
ENDBRANCH  42  45
ENDBRANCH  35  41
ENDBRANCH  32  35
ENDBRANCH   1  31
BRANCH   5  49
HETATM   49  O6  UNL     1     -16.579  13.132   3.151  1.00  0.00    -0.395 OA
ATOM     50  H6  UNL     1     -17.165  13.438   2.469  1.00  0.00     0.210 HD
ENDBRANCH   5  49
TORSDOF 17
ENDMDL
MODEL 5
REMARK VINA RESULT: -8.470441650      2.498      5.395
REMARK  17 active torsions:
REMARK  status: ('A' for Active; 'I' for Inactive)
REMARK    1  A    between atoms: C2_2  and  C3_3 
REMARK    2  A    between atoms: C3_3  and  C4_4 
REMARK    3  A    between atoms: C4_4  and  C5_5 
REMARK    4  A    between atoms: C5_5  and  C6_6 
REMARK    5  A    between atoms: C5_5  and  C13_15 
REMARK    6  A    between atoms: C6_6  and  C7_7 
REMARK       I    between atoms: C7_7  and  N1_9 
REMARK       I    between atoms: C13_15  and  N2_17 
REMARK    7  A    between atoms: N2_17  and  C14_19 
REMARK    8  A    between atoms: C14_19  and  O3_20 
REMARK    9  A    between atoms: C14_19  and  C15_22 
REMARK   10  A    between atoms: C15_22  and  N3_23 
REMARK       I    between atoms: N3_23  and  C16_25 
REMARK   11  A    between atoms: C16_25  and  C17_27 
REMARK   12  A    between atoms: C17_27  and  C18_28 
REMARK   13  A    between atoms: C17_27  and  N4_33 
REMARK   14  A    between atoms: C18_28  and  C19_29 
REMARK   15  A    between atoms: C19_29  and  C21_31 
REMARK       I    between atoms: N4_33  and  C23_35 
REMARK   16  A    between atoms: C23_35  and  C24_37 
REMARK   17  A    between atoms: C31_44  and  O6_45 
ROOT
HETATM    1  C15 UNL     1     -11.130  15.191   1.069  1.00  0.00     0.098 C 
HETATM    2  C28 UNL     1     -12.465  15.255   0.465  1.00  0.00     0.040 C 
HETATM    3  C29 UNL     1     -13.059  14.061  -0.176  1.00  0.00     0.010 C 
HETATM    4  C30 UNL     1     -12.199  12.906  -0.480  1.00  0.00     0.018 C 
HETATM    5  C31 UNL     1     -12.939  11.591  -0.396  1.00  0.00     0.122 C 
HETATM    6  C32 UNL     1     -12.697  11.040   0.990  1.00  0.00     0.032 C 
HETATM    7  C33 UNL     1     -11.835  12.100   1.690  1.00  0.00     0.007 C 
HETATM    8  C34 UNL     1     -11.092  12.716   0.524  1.00  0.00    -0.005 C 
HETATM    9  C35 UNL     1     -10.326  13.936   0.819  1.00  0.00     0.044 C 
ENDROOT
BRANCH   1  10
HETATM   10  C14 UNL     1     -10.314  16.381   0.723  1.00  0.00     0.147 C 
BRANCH  10  11
HETATM   11  N2  UNL     1      -9.347  16.620  -0.218  1.00  0.00    -0.309 N 
HETATM   12  C13 UNL     1      -9.221  16.419  -1.588  1.00  0.00     0.228 C 
HETATM   13  O2  UNL     1     -10.118  15.917  -2.283  1.00  0.00    -0.273 OA
ATOM     14  H2  UNL     1      -8.517  17.053   0.185  1.00  0.00     0.170 HD
BRANCH  12  15
HETATM   15  C5  UNL     1      -7.962  16.792  -2.376  1.00  0.00     0.087 C 
BRANCH  15  16
HETATM   16  C4  UNL     1      -8.304  16.937  -3.805  1.00  0.00     0.014 C 
BRANCH  16  17
HETATM   17  C3  UNL     1      -7.796  15.981  -4.805  1.00  0.00     0.000 C 
BRANCH  17  18
HETATM   18  C2  UNL     1      -8.763  16.049  -6.019  1.00  0.00    -0.005 C 
HETATM   19  C1  UNL     1     -10.003  15.256  -5.748  1.00  0.00     0.005 C 
ENDBRANCH  17  18
ENDBRANCH  16  17
ENDBRANCH  15  16
BRANCH  15  20
HETATM   20  C6  UNL     1      -7.000  15.688  -2.103  1.00  0.00     0.117 C 
BRANCH  20  21
HETATM   21  C7  UNL     1      -6.071  15.789  -1.008  1.00  0.00     0.220 C 
HETATM   22  O1  UNL     1      -6.429  15.457   0.179  1.00  0.00    -0.273 OA
HETATM   23  N1  UNL     1      -4.733  16.241  -1.118  1.00  0.00    -0.352 N 
HETATM   24  C8  UNL     1      -3.816  16.309   0.009  1.00  0.00     0.125 C 
HETATM   25  C12 UNL     1      -4.206  16.674  -2.389  1.00  0.00     0.125 C 
HETATM   26  C9  UNL     1      -3.533  17.769   0.296  1.00  0.00     0.020 C 
HETATM   27  C10 UNL     1      -3.298  18.516  -0.980  1.00  0.00     0.003 C 
HETATM   28  C11 UNL     1      -2.981  17.532  -2.107  1.00  0.00     0.020 C 
ENDBRANCH  20  21
ENDBRANCH  15  20
ENDBRANCH  12  15
ENDBRANCH  10  11
BRANCH  10  29
HETATM   29  O3  UNL     1     -10.582  17.423   1.498  1.00  0.00    -0.347 OA
ATOM     30  H3  UNL     1     -10.852  17.190   2.378  1.00  0.00     0.219 HD
ENDBRANCH  10  29
ENDBRANCH   1  10
BRANCH   1  31
HETATM   31  N3  UNL     1     -11.350  15.173   2.535  1.00  0.00    -0.342 N 
HETATM   32  C16 UNL     1     -10.430  14.887   3.534  1.00  0.00     0.241 C 
HETATM   33  O4  UNL     1      -9.248  14.604   3.318  1.00  0.00    -0.271 OA
ATOM     34  H3  UNL     1     -12.294  15.399   2.848  1.00  0.00     0.163 HD
BRANCH  32  35
HETATM   35  C17 UNL     1     -10.868  14.913   4.996  1.00  0.00     0.177 C 
BRANCH  35  36
HETATM   36  C18 UNL     1     -10.226  16.132   5.542  1.00  0.00     0.039 C 
BRANCH  36  37
HETATM   37  C19 UNL     1      -9.600  16.104   6.868  1.00  0.00    -0.017 C 
HETATM   38  C20 UNL     1     -10.011  14.964   7.759  1.00  0.00     0.010 C 
BRANCH  37  39
HETATM   39  C21 UNL     1      -8.110  16.344   6.877  1.00  0.00    -0.000 C 
HETATM   40  C22 UNL     1      -7.473  15.914   8.180  1.00  0.00     0.005 C 
ENDBRANCH  37  39
ENDBRANCH  36  37
ENDBRANCH  35  36
BRANCH  35  41
HETATM   41  N4  UNL     1     -12.293  14.885   5.002  1.00  0.00    -0.347 N 
HETATM   42  C23 UNL     1     -13.045  13.665   4.989  1.00  0.00     0.222 C 
HETATM   43  O5  UNL     1     -12.366  12.597   4.974  1.00  0.00    -0.273 OA
ATOM     44  H4  UNL     1     -12.799  15.770   5.018  1.00  0.00     0.163 HD
BRANCH  42  45
HETATM   45  C24 UNL     1     -14.500  13.555   4.989  1.00  0.00     0.078 C 
HETATM   46  C25 UNL     1     -15.120  12.550   4.041  1.00  0.00     0.014 C 
HETATM   47  C26 UNL     1     -15.236  13.654   3.012  1.00  0.00     0.002 C 
HETATM   48  C27 UNL     1     -15.154  14.656   4.153  1.00  0.00     0.014 C 
ENDBRANCH  42  45
ENDBRANCH  35  41
ENDBRANCH  32  35
ENDBRANCH   1  31
BRANCH   5  49
HETATM   49  O6  UNL     1     -14.332  11.811  -0.500  1.00  0.00    -0.395 OA
ATOM     50  H6  UNL     1     -14.805  11.029  -0.244  1.00  0.00     0.210 HD
ENDBRANCH   5  49
TORSDOF 17
ENDMDL
