MODEL 1
REMARK VINA RESULT: -8.811783223      0.000      0.000
REMARK  17 active torsions:
REMARK  status: ('A' for Active; 'I' for Inactive)
REMARK    1  A    between atoms: C2_2  and  C3_3 
REMARK    2  A    between atoms: C3_3  and  C4_4 
REMARK    3  A    between atoms: C4_4  and  N1_5 
REMARK    4  A    between atoms: C4_4  and  C28_39 
REMARK       I    between atoms: N1_5  and  C5_6 
REMARK       I    between atoms: C5_6  and  N2_8 
REMARK    5  A    between atoms: N2_8  and  C6_10 
REMARK    6  A    between atoms: C6_10  and  C7_11 
REMARK    7  A    between atoms: C7_11  and  C8_12 
REMARK    8  A    between atoms: C8_12  and  C9_13 
REMARK    9  A    between atoms: C9_13  and  C10_14 
REMARK   10  A    between atoms: C10_14  and  C11_15 
REMARK   11  A    between atoms: C10_14  and  C16_24 
REMARK       I    between atoms: C11_15  and  N3_17 
REMARK   12  A    between atoms: N3_17  and  C12_19 
REMARK   13  A    between atoms: C12_19  and  C13_20 
REMARK   14  A    between atoms: C13_20  and  N4_21 
REMARK       I    between atoms: C16_24  and  N5_26 
REMARK   15  A    between atoms: N5_26  and  C17_28 
REMARK   16  A    between atoms: C28_39  and  O4_40 
REMARK   17  A    between atoms: C28_39  and  N6_42 
ROOT
HETATM    1  C10 UNL     1      -8.786  15.038  -2.239  1.00  0.00     0.169 C 
ENDROOT
BRANCH   1   2
HETATM    2  C9  UNL     1     -10.034  15.868  -1.903  1.00  0.00     0.024 C 
BRANCH   2   3
HETATM    3  C8  UNL     1     -10.679  15.150  -0.679  1.00  0.00     0.003 C 
BRANCH   3   4
HETATM    4  C7  UNL     1     -10.620  13.685  -0.847  1.00  0.00     0.020 C 
BRANCH   4   5
HETATM    5  C6  UNL     1     -11.496  12.804   0.021  1.00  0.00     0.125 C 
BRANCH   5   6
HETATM    6  N2  UNL     1     -11.601  13.226   1.364  1.00  0.00    -0.331 N 
HETATM    7  C5  UNL     1     -12.621  13.736   2.203  1.00  0.00     0.394 C 
HETATM    8  N1  UNL     1     -12.403  13.864   3.580  1.00  0.00    -0.352 NA
HETATM    9  O1  UNL     1     -13.705  14.024   1.615  1.00  0.00    -0.230 OA
ATOM     10  H2  UNL     1     -10.713  13.141   1.858  1.00  0.00     0.165 HD
BRANCH   8  11
HETATM   11  C4  UNL     1     -12.193  13.990   4.918  1.00  0.00     0.140 C 
BRANCH  11  12
HETATM   12  C3  UNL     1     -13.170  13.312   5.790  1.00  0.00     0.077 C 
BRANCH  12  13
HETATM   13  C2  UNL     1     -13.951  12.187   5.168  1.00  0.00     0.003 C 
HETATM   14  C1  UNL     1     -13.482  10.836   5.650  1.00  0.00     0.005 C 
ENDBRANCH  12  13
ENDBRANCH  11  12
BRANCH  11  15
HETATM   15  C28 UNL     1     -10.753  13.879   5.242  1.00  0.00     0.176 C 
BRANCH  15  16
HETATM   16  O4  UNL     1     -10.507  12.784   5.953  1.00  0.00    -0.344 OA
ATOM     17  H4  UNL     1      -9.575  12.603   5.989  1.00  0.00     0.219 HD
ENDBRANCH  15  16
BRANCH  15  18
HETATM   18  N6  UNL     1      -9.628  14.621   4.991  1.00  0.00    -0.355 N 
HETATM   19  C29 UNL     1      -8.562  13.874   4.258  1.00  0.00     0.125 C 
HETATM   20  C30 UNL     1      -8.626  14.376   2.846  1.00  0.00     0.020 C 
HETATM   21  C31 UNL     1      -8.001  15.700   2.601  1.00  0.00     0.002 C 
HETATM   22  C32 UNL     1      -8.439  16.813   3.492  1.00  0.00     0.002 C 
HETATM   23  C33 UNL     1      -8.157  16.577   4.947  1.00  0.00     0.025 C 
HETATM   24  C34 UNL     1      -9.389  15.908   5.554  1.00  0.00     0.082 C 
HETATM   25  C35 UNL     1      -9.125  15.785   7.074  1.00  0.00     0.032 C 
ENDBRANCH  15  18
ENDBRANCH  11  15
ENDBRANCH   8  11
ENDBRANCH   5   6
ENDBRANCH   4   5
ENDBRANCH   3   4
ENDBRANCH   2   3
ENDBRANCH   1   2
BRANCH   1  26
HETATM   26  C11 UNL     1      -8.646  15.075  -3.727  1.00  0.00     0.231 C 
HETATM   27  O2  UNL     1      -7.535  14.634  -4.197  1.00  0.00    -0.273 OA
HETATM   28  N3  UNL     1      -9.579  15.523  -4.662  1.00  0.00    -0.356 N 
ATOM     29  H3  UNL     1     -10.474  15.901  -4.351  1.00  0.00     0.162 HD
BRANCH  28  30
HETATM   30  C12 UNL     1      -9.276  15.448  -6.074  1.00  0.00     0.166 C 
BRANCH  30  31
HETATM   31  C13 UNL     1      -8.870  16.640  -6.809  1.00  0.00     0.076 C 
BRANCH  31  32
HETATM   32  N4  UNL     1      -7.531  16.982  -6.940  1.00  0.00    -0.400 N 
HETATM   33  C14 UNL     1      -6.585  16.281  -7.670  1.00  0.00     0.148 C 
HETATM   34  C15 UNL     1      -6.959  17.733  -5.855  1.00  0.00     0.148 C 
ENDBRANCH  31  32
ENDBRANCH  30  31
ENDBRANCH  28  30
ENDBRANCH   1  26
BRANCH   1  35
HETATM   35  C16 UNL     1      -7.548  15.633  -1.724  1.00  0.00     0.231 C 
HETATM   36  O3  UNL     1      -7.018  15.057  -0.741  1.00  0.00    -0.273 OA
HETATM   37  N5  UNL     1      -6.940  16.773  -2.274  1.00  0.00    -0.351 N 
ATOM     38  H5  UNL     1      -7.419  17.240  -3.045  1.00  0.00     0.163 HD
BRANCH  37  39
HETATM   39  C17 UNL     1      -5.698  17.326  -1.830  1.00  0.00     0.034 C 
HETATM   40  C18 UNL     1      -5.933  17.839  -0.402  1.00  0.00     0.035 C 
HETATM   41  C19 UNL     1      -4.650  18.231   0.251  1.00  0.00    -0.011 C 
HETATM   42  C20 UNL     1      -3.666  17.117   0.234  1.00  0.00     0.009 C 
HETATM   43  C25 UNL     1      -4.078  19.390  -0.539  1.00  0.00     0.014 C 
HETATM   44  C21 UNL     1      -3.381  16.718  -1.188  1.00  0.00    -0.011 C 
HETATM   45  C22 UNL     1      -2.796  17.899  -1.954  1.00  0.00     0.014 C 
HETATM   46  C27 UNL     1      -4.640  16.240  -1.827  1.00  0.00     0.035 C 
HETATM   47  C23 UNL     1      -3.865  18.965  -1.973  1.00  0.00    -0.041 C 
HETATM   48  C24 UNL     1      -3.338  20.175  -2.718  1.00  0.00     0.015 C 
HETATM   49  C26 UNL     1      -5.158  18.466  -2.613  1.00  0.00     0.040 C 
ENDBRANCH  37  39
ENDBRANCH   1  35
TORSDOF 17
ENDMDL
MODEL 2
REMARK VINA RESULT: -8.736927795      2.004     10.847
REMARK  17 active torsions:
REMARK  status: ('A' for Active; 'I' for Inactive)
REMARK    1  A    between atoms: C2_2  and  C3_3 
REMARK    2  A    between atoms: C3_3  and  C4_4 
REMARK    3  A    between atoms: C4_4  and  N1_5 
REMARK    4  A    between atoms: C4_4  and  C28_39 
REMARK       I    between atoms: N1_5  and  C5_6 
REMARK       I    between atoms: C5_6  and  N2_8 
REMARK    5  A    between atoms: N2_8  and  C6_10 
REMARK    6  A    between atoms: C6_10  and  C7_11 
REMARK    7  A    between atoms: C7_11  and  C8_12 
REMARK    8  A    between atoms: C8_12  and  C9_13 
REMARK    9  A    between atoms: C9_13  and  C10_14 
REMARK   10  A    between atoms: C10_14  and  C11_15 
REMARK   11  A    between atoms: C10_14  and  C16_24 
REMARK       I    between atoms: C11_15  and  N3_17 
REMARK   12  A    between atoms: N3_17  and  C12_19 
REMARK   13  A    between atoms: C12_19  and  C13_20 
REMARK   14  A    between atoms: C13_20  and  N4_21 
REMARK       I    between atoms: C16_24  and  N5_26 
REMARK   15  A    between atoms: N5_26  and  C17_28 
REMARK   16  A    between atoms: C28_39  and  O4_40 
REMARK   17  A    between atoms: C28_39  and  N6_42 
ROOT
HETATM    1  C10 UNL     1      -8.685  15.037   2.442  1.00  0.00     0.169 C 
ENDROOT
BRANCH   1   2
HETATM    2  C9  UNL     1      -8.722  16.542   2.139  1.00  0.00     0.024 C 
BRANCH   2   3
HETATM    3  C8  UNL     1      -7.861  16.716   0.851  1.00  0.00     0.003 C 
BRANCH   3   4
HETATM    4  C7  UNL     1      -6.549  16.059   1.010  1.00  0.00     0.020 C 
BRANCH   4   5
HETATM    5  C6  UNL     1      -5.382  16.519   0.161  1.00  0.00     0.125 C 
BRANCH   5   6
HETATM    6  N2  UNL     1      -5.689  16.704  -1.204  1.00  0.00    -0.331 N 
HETATM    7  C5  UNL     1      -5.565  17.748  -2.152  1.00  0.00     0.394 C 
HETATM    8  N1  UNL     1      -5.804  17.500  -3.509  1.00  0.00    -0.352 NA
HETATM    9  O1  UNL     1      -5.208  18.866  -1.675  1.00  0.00    -0.230 OA
ATOM     10  H2  UNL     1      -6.108  15.870  -1.614  1.00  0.00     0.165 HD
BRANCH   8  11
HETATM   11  C4  UNL     1      -6.035  17.262  -4.828  1.00  0.00     0.140 C 
BRANCH  11  12
HETATM   12  C3  UNL     1      -4.855  17.322  -5.711  1.00  0.00     0.077 C 
BRANCH  12  13
HETATM   13  C2  UNL     1      -5.095  17.014  -7.164  1.00  0.00     0.003 C 
HETATM   14  C1  UNL     1      -4.500  15.688  -7.568  1.00  0.00     0.005 C 
ENDBRANCH  12  13
ENDBRANCH  11  12
BRANCH  11  15
HETATM   15  C28 UNL     1      -7.001  16.154  -5.005  1.00  0.00     0.176 C 
BRANCH  15  16
HETATM   16  O4  UNL     1      -6.477  14.998  -4.613  1.00  0.00    -0.344 OA
ATOM     17  H4  UNL     1      -6.964  14.632  -3.884  1.00  0.00     0.219 HD
ENDBRANCH  15  16
BRANCH  15  18
HETATM   18  N6  UNL     1      -8.285  16.034  -5.469  1.00  0.00    -0.355 N 
HETATM   19  C29 UNL     1      -8.567  16.852  -6.687  1.00  0.00     0.125 C 
HETATM   20  C30 UNL     1      -8.573  15.877  -7.827  1.00  0.00     0.020 C 
HETATM   21  C31 UNL     1      -9.804  15.060  -7.973  1.00  0.00     0.002 C 
HETATM   22  C32 UNL     1     -10.261  14.329  -6.755  1.00  0.00     0.002 C 
HETATM   23  C33 UNL     1     -10.591  15.222  -5.596  1.00  0.00     0.025 C 
HETATM   24  C34 UNL     1      -9.325  15.372  -4.754  1.00  0.00     0.082 C 
HETATM   25  C35 UNL     1      -9.718  16.194  -3.503  1.00  0.00     0.032 C 
ENDBRANCH  15  18
ENDBRANCH  11  15
ENDBRANCH   8  11
ENDBRANCH   5   6
ENDBRANCH   4   5
ENDBRANCH   3   4
ENDBRANCH   2   3
ENDBRANCH   1   2
BRANCH   1  26
HETATM   26  C11 UNL     1      -8.813  14.906   3.927  1.00  0.00     0.231 C 
HETATM   27  O2  UNL     1      -8.885  13.706   4.379  1.00  0.00    -0.273 OA
HETATM   28  N3  UNL     1      -8.853  15.927   4.875  1.00  0.00    -0.356 N 
ATOM     29  H3  UNL     1      -8.818  16.903   4.577  1.00  0.00     0.162 HD
BRANCH  28  30
HETATM   30  C12 UNL     1      -8.945  15.602   6.280  1.00  0.00     0.166 C 
BRANCH  30  31
HETATM   31  C13 UNL     1     -10.195  15.796   7.006  1.00  0.00     0.076 C 
BRANCH  31  32
HETATM   32  N4  UNL     1     -11.149  14.790   7.077  1.00  0.00    -0.400 N 
HETATM   33  C14 UNL     1     -11.004  13.583   7.740  1.00  0.00     0.148 C 
HETATM   34  C15 UNL     1     -12.078  14.720   5.981  1.00  0.00     0.148 C 
ENDBRANCH  31  32
ENDBRANCH  30  31
ENDBRANCH  28  30
ENDBRANCH   1  26
BRANCH   1  35
HETATM   35  C16 UNL     1      -9.839  14.317   1.895  1.00  0.00     0.231 C 
HETATM   36  O3  UNL     1      -9.635  13.645   0.852  1.00  0.00    -0.273 OA
HETATM   37  N5  UNL     1     -11.118  14.330   2.476  1.00  0.00    -0.351 N 
ATOM     38  H5  UNL     1     -11.259  14.918   3.297  1.00  0.00     0.163 HD
BRANCH  37  39
HETATM   39  C17 UNL     1     -12.236  13.578   1.995  1.00  0.00     0.034 C 
HETATM   40  C18 UNL     1     -12.439  13.986   0.529  1.00  0.00     0.035 C 
HETATM   41  C19 UNL     1     -13.434  13.100  -0.146  1.00  0.00    -0.011 C 
HETATM   42  C20 UNL     1     -13.055  11.667  -0.032  1.00  0.00     0.009 C 
HETATM   43  C25 UNL     1     -14.763  13.303   0.550  1.00  0.00     0.014 C 
HETATM   44  C21 UNL     1     -12.974  11.282   1.420  1.00  0.00    -0.011 C 
HETATM   45  C22 UNL     1     -14.327  11.485   2.090  1.00  0.00     0.014 C 
HETATM   46  C27 UNL     1     -11.921  12.098   2.088  1.00  0.00     0.035 C 
HETATM   47  C23 UNL     1     -14.622  12.965   2.016  1.00  0.00    -0.041 C 
HETATM   48  C24 UNL     1     -15.966  13.231   2.662  1.00  0.00     0.015 C 
HETATM   49  C26 UNL     1     -13.532  13.798   2.686  1.00  0.00     0.040 C 
ENDBRANCH  37  39
ENDBRANCH   1  35
TORSDOF 17
ENDMDL
MODEL 3
REMARK VINA RESULT: -8.731656645      1.272      1.997
REMARK  17 active torsions:
REMARK  status: ('A' for Active; 'I' for Inactive)
REMARK    1  A    between atoms: C2_2  and  C3_3 
REMARK    2  A    between atoms: C3_3  and  C4_4 
REMARK    3  A    between atoms: C4_4  and  N1_5 
REMARK    4  A    between atoms: C4_4  and  C28_39 
REMARK       I    between atoms: N1_5  and  C5_6 
REMARK       I    between atoms: C5_6  and  N2_8 
REMARK    5  A    between atoms: N2_8  and  C6_10 
REMARK    6  A    between atoms: C6_10  and  C7_11 
REMARK    7  A    between atoms: C7_11  and  C8_12 
REMARK    8  A    between atoms: C8_12  and  C9_13 
REMARK    9  A    between atoms: C9_13  and  C10_14 
REMARK   10  A    between atoms: C10_14  and  C11_15 
REMARK   11  A    between atoms: C10_14  and  C16_24 
REMARK       I    between atoms: C11_15  and  N3_17 
REMARK   12  A    between atoms: N3_17  and  C12_19 
REMARK   13  A    between atoms: C12_19  and  C13_20 
REMARK   14  A    between atoms: C13_20  and  N4_21 
REMARK       I    between atoms: C16_24  and  N5_26 
REMARK   15  A    between atoms: N5_26  and  C17_28 
REMARK   16  A    between atoms: C28_39  and  O4_40 
REMARK   17  A    between atoms: C28_39  and  N6_42 
ROOT
HETATM    1  C10 UNL     1      -8.296  14.710  -1.147  1.00  0.00     0.169 C 
ENDROOT
BRANCH   1   2
HETATM    2  C9  UNL     1      -9.349  14.890  -0.044  1.00  0.00     0.024 C 
BRANCH   2   3
HETATM    3  C8  UNL     1     -10.176  13.568  -0.056  1.00  0.00     0.003 C 
BRANCH   3   4
HETATM    4  C7  UNL     1     -11.551  13.820  -0.528  1.00  0.00     0.020 C 
BRANCH   4   5
HETATM    5  C6  UNL     1     -12.446  14.754   0.260  1.00  0.00     0.125 C 
BRANCH   5   6
HETATM    6  N2  UNL     1     -12.343  14.619   1.662  1.00  0.00    -0.331 N 
HETATM    7  C5  UNL     1     -13.013  13.893   2.674  1.00  0.00     0.394 C 
HETATM    8  N1  UNL     1     -12.496  13.855   3.975  1.00  0.00    -0.352 NA
HETATM    9  O1  UNL     1     -14.061  13.289   2.298  1.00  0.00    -0.230 OA
ATOM     10  H2  UNL     1     -11.592  15.194   2.043  1.00  0.00     0.165 HD
BRANCH   8  11
HETATM   11  C4  UNL     1     -11.994  13.816   5.238  1.00  0.00     0.140 C 
BRANCH  11  12
HETATM   12  C3  UNL     1     -12.497  12.730   6.100  1.00  0.00     0.077 C 
BRANCH  12  13
HETATM   13  C2  UNL     1     -12.093  12.787   7.547  1.00  0.00     0.003 C 
HETATM   14  C1  UNL     1     -11.277  11.585   7.955  1.00  0.00     0.005 C 
ENDBRANCH  12  13
ENDBRANCH  11  12
BRANCH  11  15
HETATM   15  C28 UNL     1     -10.544  14.115   5.243  1.00  0.00     0.176 C 
BRANCH  15  16
HETATM   16  O4  UNL     1      -9.845  13.088   4.769  1.00  0.00    -0.344 OA
ATOM     17  H4  UNL     1      -8.969  13.359   4.520  1.00  0.00     0.219 HD
ENDBRANCH  15  16
BRANCH  15  18
HETATM   18  N6  UNL     1      -9.759  15.176   5.613  1.00  0.00    -0.355 N 
HETATM   19  C29 UNL     1     -10.226  15.871   6.850  1.00  0.00     0.125 C 
HETATM   20  C30 UNL     1      -9.292  15.420   7.934  1.00  0.00     0.020 C 
HETATM   21  C31 UNL     1      -7.959  16.073   7.954  1.00  0.00     0.002 C 
HETATM   22  C32 UNL     1      -7.197  16.058   6.671  1.00  0.00     0.002 C 
HETATM   23  C33 UNL     1      -7.892  16.757   5.540  1.00  0.00     0.025 C 
HETATM   24  C34 UNL     1      -8.724  15.714   4.795  1.00  0.00     0.082 C 
HETATM   25  C35 UNL     1      -9.334  16.429   3.564  1.00  0.00     0.032 C 
ENDBRANCH  15  18
ENDBRANCH  11  15
ENDBRANCH   8  11
ENDBRANCH   5   6
ENDBRANCH   4   5
ENDBRANCH   3   4
ENDBRANCH   2   3
ENDBRANCH   1   2
BRANCH   1  26
HETATM   26  C11 UNL     1      -8.909  15.244  -2.402  1.00  0.00     0.231 C 
HETATM   27  O2  UNL     1      -9.644  16.289  -2.267  1.00  0.00    -0.273 OA
HETATM   28  N3  UNL     1      -8.771  14.749  -3.699  1.00  0.00    -0.356 N 
ATOM     29  H3  UNL     1      -8.215  13.911  -3.870  1.00  0.00     0.162 HD
BRANCH  28  30
HETATM   30  C12 UNL     1      -9.417  15.426  -4.800  1.00  0.00     0.166 C 
BRANCH  30  31
HETATM   31  C13 UNL     1      -8.697  16.425  -5.581  1.00  0.00     0.076 C 
BRANCH  31  32
HETATM   32  N4  UNL     1      -8.686  16.381  -6.968  1.00  0.00    -0.400 N 
HETATM   33  C14 UNL     1      -9.340  15.446  -7.753  1.00  0.00     0.148 C 
HETATM   34  C15 UNL     1      -7.528  16.941  -7.611  1.00  0.00     0.148 C 
ENDBRANCH  31  32
ENDBRANCH  30  31
ENDBRANCH  28  30
ENDBRANCH   1  26
BRANCH   1  35
HETATM   35  C16 UNL     1      -7.097  15.527  -0.930  1.00  0.00     0.231 C 
HETATM   36  O3  UNL     1      -6.459  15.312   0.131  1.00  0.00    -0.273 OA
HETATM   37  N5  UNL     1      -6.636  16.496  -1.836  1.00  0.00    -0.351 N 
ATOM     38  H5  UNL     1      -7.200  16.674  -2.667  1.00  0.00     0.163 HD
BRANCH  37  39
HETATM   39  C17 UNL     1      -5.432  17.252  -1.674  1.00  0.00     0.034 C 
HETATM   40  C18 UNL     1      -5.693  18.252  -0.539  1.00  0.00     0.035 C 
HETATM   41  C19 UNL     1      -4.436  18.941  -0.125  1.00  0.00    -0.011 C 
HETATM   42  C20 UNL     1      -3.377  17.967   0.249  1.00  0.00     0.009 C 
HETATM   43  C25 UNL     1      -3.951  19.747  -1.312  1.00  0.00     0.014 C 
HETATM   44  C21 UNL     1      -3.074  17.077  -0.926  1.00  0.00    -0.011 C 
HETATM   45  C22 UNL     1      -2.579  17.913  -2.100  1.00  0.00     0.014 C 
HETATM   46  C27 UNL     1      -4.301  16.316  -1.296  1.00  0.00     0.035 C 
HETATM   47  C23 UNL     1      -3.719  18.824  -2.486  1.00  0.00    -0.041 C 
HETATM   48  C24 UNL     1      -3.283  19.692  -3.649  1.00  0.00     0.015 C 
HETATM   49  C26 UNL     1      -4.979  18.041  -2.847  1.00  0.00     0.040 C 
ENDBRANCH  37  39
ENDBRANCH   1  35
TORSDOF 17
ENDMDL
MODEL 4
REMARK VINA RESULT: -8.722397182      2.066      9.183
REMARK  17 active torsions:
REMARK  status: ('A' for Active; 'I' for Inactive)
REMARK    1  A    between atoms: C2_2  and  C3_3 
REMARK    2  A    between atoms: C3_3  and  C4_4 
REMARK    3  A    between atoms: C4_4  and  N1_5 
REMARK    4  A    between atoms: C4_4  and  C28_39 
REMARK       I    between atoms: N1_5  and  C5_6 
REMARK       I    between atoms: C5_6  and  N2_8 
REMARK    5  A    between atoms: N2_8  and  C6_10 
REMARK    6  A    between atoms: C6_10  and  C7_11 
REMARK    7  A    between atoms: C7_11  and  C8_12 
REMARK    8  A    between atoms: C8_12  and  C9_13 
REMARK    9  A    between atoms: C9_13  and  C10_14 
REMARK   10  A    between atoms: C10_14  and  C11_15 
REMARK   11  A    between atoms: C10_14  and  C16_24 
REMARK       I    between atoms: C11_15  and  N3_17 
REMARK   12  A    between atoms: N3_17  and  C12_19 
REMARK   13  A    between atoms: C12_19  and  C13_20 
REMARK   14  A    between atoms: C13_20  and  N4_21 
REMARK       I    between atoms: C16_24  and  N5_26 
REMARK   15  A    between atoms: N5_26  and  C17_28 
REMARK   16  A    between atoms: C28_39  and  O4_40 
REMARK   17  A    between atoms: C28_39  and  N6_42 
ROOT
HETATM    1  C10 UNL     1     -14.435  13.644   4.276  1.00  0.00     0.169 C 
ENDROOT
BRANCH   1   2
HETATM    2  C9  UNL     1     -14.938  14.282   2.973  1.00  0.00     0.024 C 
BRANCH   2   3
HETATM    3  C8  UNL     1     -14.650  13.221   1.867  1.00  0.00     0.003 C 
BRANCH   3   4
HETATM    4  C7  UNL     1     -13.761  13.779   0.831  1.00  0.00     0.020 C 
BRANCH   4   5
HETATM    5  C6  UNL     1     -12.381  13.184   0.639  1.00  0.00     0.125 C 
BRANCH   5   6
HETATM    6  N2  UNL     1     -11.541  13.919  -0.225  1.00  0.00    -0.331 N 
HETATM    7  C5  UNL     1     -10.173  13.901  -0.587  1.00  0.00     0.394 C 
HETATM    8  N1  UNL     1      -9.717  14.679  -1.659  1.00  0.00    -0.352 NA
HETATM    9  O1  UNL     1      -9.445  13.129   0.104  1.00  0.00    -0.230 OA
ATOM     10  H2  UNL     1     -12.053  14.652  -0.716  1.00  0.00     0.165 HD
BRANCH   8  11
HETATM   11  C4  UNL     1      -9.273  15.433  -2.699  1.00  0.00     0.140 C 
BRANCH  11  12
HETATM   12  C3  UNL     1     -10.190  15.553  -3.848  1.00  0.00     0.077 C 
BRANCH  12  13
HETATM   13  C2  UNL     1      -9.553  15.562  -5.210  1.00  0.00     0.003 C 
HETATM   14  C1  UNL     1     -10.571  15.403  -6.313  1.00  0.00     0.005 C 
ENDBRANCH  12  13
ENDBRANCH  11  12
BRANCH  11  15
HETATM   15  C28 UNL     1      -8.576  16.647  -2.215  1.00  0.00     0.176 C 
BRANCH  15  16
HETATM   16  O4  UNL     1      -9.444  17.610  -1.925  1.00  0.00    -0.344 OA
ATOM     17  H4  UNL     1      -9.437  18.287  -2.592  1.00  0.00     0.219 HD
ENDBRANCH  15  16
BRANCH  15  18
HETATM   18  N6  UNL     1      -7.272  17.013  -1.999  1.00  0.00    -0.355 N 
HETATM   19  C29 UNL     1      -7.076  17.854  -0.780  1.00  0.00     0.125 C 
HETATM   20  C30 UNL     1      -6.485  16.932   0.246  1.00  0.00     0.020 C 
HETATM   21  C31 UNL     1      -5.037  16.639   0.096  1.00  0.00     0.002 C 
HETATM   22  C32 UNL     1      -4.595  16.159  -1.246  1.00  0.00     0.002 C 
HETATM   23  C33 UNL     1      -4.854  17.132  -2.358  1.00  0.00     0.025 C 
HETATM   24  C34 UNL     1      -6.227  16.808  -2.945  1.00  0.00     0.082 C 
HETATM   25  C35 UNL     1      -6.421  17.741  -4.165  1.00  0.00     0.032 C 
ENDBRANCH  15  18
ENDBRANCH  11  15
ENDBRANCH   8  11
ENDBRANCH   5   6
ENDBRANCH   4   5
ENDBRANCH   3   4
ENDBRANCH   2   3
ENDBRANCH   1   2
BRANCH   1  26
HETATM   26  C11 UNL     1     -14.549  12.165   4.090  1.00  0.00     0.231 C 
HETATM   27  O2  UNL     1     -15.691  11.650   4.379  1.00  0.00    -0.273 OA
HETATM   28  N3  UNL     1     -13.571  11.282   3.633  1.00  0.00    -0.356 N 
ATOM     29  H3  UNL     1     -12.638  11.626   3.405  1.00  0.00     0.162 HD
BRANCH  28  30
HETATM   30  C12 UNL     1     -13.882   9.878   3.484  1.00  0.00     0.166 C 
BRANCH  30  31
HETATM   31  C13 UNL     1     -12.862   8.864   3.723  1.00  0.00     0.076 C 
BRANCH  31  32
HETATM   32  N4  UNL     1     -12.708   8.280   4.973  1.00  0.00    -0.400 N 
HETATM   33  C14 UNL     1     -12.692   8.952   6.184  1.00  0.00     0.148 C 
HETATM   34  C15 UNL     1     -11.976   7.042   5.009  1.00  0.00     0.148 C 
ENDBRANCH  31  32
ENDBRANCH  30  31
ENDBRANCH  28  30
ENDBRANCH   1  26
BRANCH   1  35
HETATM   35  C16 UNL     1     -13.009  13.889   4.518  1.00  0.00     0.231 C 
HETATM   36  O3  UNL     1     -12.461  13.178   5.397  1.00  0.00    -0.273 OA
HETATM   37  N5  UNL     1     -12.249  14.842   3.819  1.00  0.00    -0.351 N 
ATOM     38  H5  UNL     1     -12.734  15.430   3.142  1.00  0.00     0.163 HD
BRANCH  37  39
HETATM   39  C17 UNL     1     -10.844  15.045   3.992  1.00  0.00     0.034 C 
HETATM   40  C18 UNL     1     -10.169  13.695   3.714  1.00  0.00     0.035 C 
HETATM   41  C19 UNL     1      -8.685  13.836   3.640  1.00  0.00    -0.011 C 
HETATM   42  C20 UNL     1      -8.282  14.857   2.637  1.00  0.00     0.009 C 
HETATM   43  C25 UNL     1      -8.207  14.287   5.004  1.00  0.00     0.014 C 
HETATM   44  C21 UNL     1      -8.876  16.189   3.008  1.00  0.00    -0.011 C 
HETATM   45  C22 UNL     1      -8.368  16.622   4.379  1.00  0.00     0.014 C 
HETATM   46  C27 UNL     1     -10.362  16.085   3.000  1.00  0.00     0.035 C 
HETATM   47  C23 UNL     1      -8.873  15.595   5.364  1.00  0.00    -0.041 C 
HETATM   48  C24 UNL     1      -8.392  15.968   6.751  1.00  0.00     0.015 C 
HETATM   49  C26 UNL     1     -10.395  15.480   5.339  1.00  0.00     0.040 C 
ENDBRANCH  37  39
ENDBRANCH   1  35
TORSDOF 17
ENDMDL
MODEL 5
REMARK VINA RESULT: -8.689537896      2.386     10.085
REMARK  17 active torsions:
REMARK  status: ('A' for Active; 'I' for Inactive)
REMARK    1  A    between atoms: C2_2  and  C3_3 
REMARK    2  A    between atoms: C3_3  and  C4_4 
REMARK    3  A    between atoms: C4_4  and  N1_5 
REMARK    4  A    between atoms: C4_4  and  C28_39 
REMARK       I    between atoms: N1_5  and  C5_6 
REMARK       I    between atoms: C5_6  and  N2_8 
REMARK    5  A    between atoms: N2_8  and  C6_10 
REMARK    6  A    between atoms: C6_10  and  C7_11 
REMARK    7  A    between atoms: C7_11  and  C8_12 
REMARK    8  A    between atoms: C8_12  and  C9_13 
REMARK    9  A    between atoms: C9_13  and  C10_14 
REMARK   10  A    between atoms: C10_14  and  C11_15 
REMARK   11  A    between atoms: C10_14  and  C16_24 
REMARK       I    between atoms: C11_15  and  N3_17 
REMARK   12  A    between atoms: N3_17  and  C12_19 
REMARK   13  A    between atoms: C12_19  and  C13_20 
REMARK   14  A    between atoms: C13_20  and  N4_21 
REMARK       I    between atoms: C16_24  and  N5_26 
REMARK   15  A    between atoms: N5_26  and  C17_28 
REMARK   16  A    between atoms: C28_39  and  O4_40 
REMARK   17  A    between atoms: C28_39  and  N6_42 
ROOT
HETATM    1  C10 UNL     1     -10.203  14.272   5.752  1.00  0.00     0.169 C 
ENDROOT
BRANCH   1   2
HETATM    2  C9  UNL     1      -9.879  15.749   6.021  1.00  0.00     0.024 C 
BRANCH   2   3
HETATM    3  C8  UNL     1      -8.331  15.856   5.873  1.00  0.00     0.003 C 
BRANCH   3   4
HETATM    4  C7  UNL     1      -7.976  16.742   4.748  1.00  0.00     0.020 C 
BRANCH   4   5
HETATM    5  C6  UNL     1      -8.943  16.895   3.591  1.00  0.00     0.125 C 
BRANCH   5   6
HETATM    6  N2  UNL     1      -8.488  16.345   2.373  1.00  0.00    -0.331 N 
HETATM    7  C5  UNL     1      -8.241  15.049   1.861  1.00  0.00     0.394 C 
HETATM    8  N1  UNL     1      -7.972  14.869   0.498  1.00  0.00    -0.352 NA
HETATM    9  O1  UNL     1      -8.309  14.113   2.712  1.00  0.00    -0.230 OA
ATOM     10  H2  UNL     1      -8.286  17.069   1.684  1.00  0.00     0.165 HD
BRANCH   8  11
HETATM   11  C4  UNL     1      -7.712  14.692  -0.825  1.00  0.00     0.140 C 
BRANCH  11  12
HETATM   12  C3  UNL     1      -8.864  14.311  -1.664  1.00  0.00     0.077 C 
BRANCH  12  13
HETATM   13  C2  UNL     1      -9.952  15.340  -1.809  1.00  0.00     0.003 C 
HETATM   14  C1  UNL     1     -10.207  15.696  -3.253  1.00  0.00     0.005 C 
ENDBRANCH  12  13
ENDBRANCH  11  12
BRANCH  11  15
HETATM   15  C28 UNL     1      -6.778  15.726  -1.325  1.00  0.00     0.176 C 
BRANCH  15  16
HETATM   16  O4  UNL     1      -6.675  15.674  -2.649  1.00  0.00    -0.344 OA
ATOM     17  H4  UNL     1      -5.799  15.415  -2.912  1.00  0.00     0.219 HD
ENDBRANCH  15  16
BRANCH  15  18
HETATM   18  N6  UNL     1      -6.005  16.709  -0.763  1.00  0.00    -0.355 N 
HETATM   19  C29 UNL     1      -4.992  16.199   0.209  1.00  0.00     0.125 C 
HETATM   20  C30 UNL     1      -3.682  16.252  -0.520  1.00  0.00     0.020 C 
HETATM   21  C31 UNL     1      -3.052  17.592  -0.622  1.00  0.00     0.002 C 
HETATM   22  C32 UNL     1      -3.910  18.687  -1.162  1.00  0.00     0.002 C 
HETATM   23  C33 UNL     1      -5.138  18.959  -0.344  1.00  0.00     0.025 C 
HETATM   24  C34 UNL     1      -6.269  18.101  -0.910  1.00  0.00     0.082 C 
HETATM   25  C35 UNL     1      -7.551  18.487  -0.132  1.00  0.00     0.032 C 
ENDBRANCH  15  18
ENDBRANCH  11  15
ENDBRANCH   8  11
ENDBRANCH   5   6
ENDBRANCH   4   5
ENDBRANCH   3   4
ENDBRANCH   2   3
ENDBRANCH   1   2
BRANCH   1  26
HETATM   26  C11 UNL     1     -10.854  13.753   6.995  1.00  0.00     0.231 C 
HETATM   27  O2  UNL     1     -10.396  14.216   8.102  1.00  0.00    -0.273 OA
HETATM   28  N3  UNL     1     -11.900  12.837   7.094  1.00  0.00    -0.356 N 
ATOM     29  H3  UNL     1     -12.296  12.420   6.251  1.00  0.00     0.162 HD
BRANCH  28  30
HETATM   30  C12 UNL     1     -12.425  12.481   8.392  1.00  0.00     0.166 C 
BRANCH  30  31
HETATM   31  C13 UNL     1     -12.759  11.095   8.702  1.00  0.00     0.076 C 
BRANCH  31  32
HETATM   32  N4  UNL     1     -11.958  10.048   8.266  1.00  0.00    -0.400 N 
HETATM   33  C14 UNL     1     -12.235   9.208   7.200  1.00  0.00     0.148 C 
HETATM   34  C15 UNL     1     -11.119   9.435   9.260  1.00  0.00     0.148 C 
ENDBRANCH  31  32
ENDBRANCH  30  31
ENDBRANCH  28  30
ENDBRANCH   1  26
BRANCH   1  35
HETATM   35  C16 UNL     1     -11.202  14.091   4.694  1.00  0.00     0.231 C 
HETATM   36  O3  UNL     1     -12.187  14.871   4.716  1.00  0.00    -0.273 OA
HETATM   37  N5  UNL     1     -11.100  13.126   3.678  1.00  0.00    -0.351 N 
ATOM     38  H5  UNL     1     -10.309  12.483   3.713  1.00  0.00     0.163 HD
BRANCH  37  39
HETATM   39  C17 UNL     1     -12.028  12.982   2.599  1.00  0.00     0.034 C 
HETATM   40  C18 UNL     1     -11.762  14.147   1.635  1.00  0.00     0.035 C 
HETATM   41  C19 UNL     1     -12.515  13.976   0.358  1.00  0.00    -0.011 C 
HETATM   42  C20 UNL     1     -12.214  12.668  -0.282  1.00  0.00     0.009 C 
HETATM   43  C25 UNL     1     -13.990  14.019   0.695  1.00  0.00     0.014 C 
HETATM   44  C21 UNL     1     -12.591  11.551   0.654  1.00  0.00    -0.011 C 
HETATM   45  C22 UNL     1     -14.082  11.613   0.965  1.00  0.00     0.014 C 
HETATM   46  C27 UNL     1     -11.783  11.659   1.900  1.00  0.00     0.035 C 
HETATM   47  C23 UNL     1     -14.314  12.922   1.682  1.00  0.00    -0.041 C 
HETATM   48  C24 UNL     1     -15.787  13.046   2.013  1.00  0.00     0.015 C 
HETATM   49  C26 UNL     1     -13.470  13.035   2.950  1.00  0.00     0.040 C 
ENDBRANCH  37  39
ENDBRANCH   1  35
TORSDOF 17
ENDMDL
