MODEL 1
REMARK VINA RESULT: -9.345554553      0.000      0.000
REMARK  16 active torsions:
REMARK  status: ('A' for Active; 'I' for Inactive)
REMARK    1  A    between atoms: C2_2  and  C3_3 
REMARK    2  A    between atoms: C10_11  and  C11_12 
REMARK    3  A    between atoms: C11_12  and  C12_13 
REMARK    4  A    between atoms: C13_16  and  C14_17 
REMARK    5  A    between atoms: C14_17  and  C15_18 
REMARK    6  A    between atoms: C15_18  and  C16_19 
REMARK    7  A    between atoms: C15_18  and  C23_26 
REMARK    8  A    between atoms: C16_19  and  C17_20 
REMARK    9  A    between atoms: C23_26  and  N3_27 
REMARK   10  A    between atoms: C25_30  and  C26_31 
REMARK   11  A    between atoms: C26_31  and  C27_32 
REMARK   12  A    between atoms: C27_32  and  C28_33 
REMARK   13  A    between atoms: C28_33  and  C29_34 
REMARK   14  A    between atoms: C29_34  and  N4_35 
REMARK       I    between atoms: N4_35  and  C30_37 
REMARK   15  A    between atoms: C31_44  and  C32_45 
REMARK   16  A    between atoms: C31_44  and  C34_47 
ROOT
HETATM    1  C15 UNL     1      -9.387  14.426  -2.070  1.00  0.00     0.007 C 
ENDROOT
BRANCH   1   2
HETATM    2  C14 UNL     1     -10.059  14.612  -0.770  1.00  0.00     0.036 C 
BRANCH   2   3
HETATM    3  C13 UNL     1     -11.260  13.826  -0.437  1.00  0.00     0.113 C 
HETATM    4  C3  UNL     1     -12.379  14.701   0.141  1.00  0.00    -0.053 C 
HETATM    5  C4  UNL     1     -12.956  14.170   1.423  1.00  0.00     0.023 C 
HETATM    6  C5  UNL     1     -13.954  13.101   1.063  1.00  0.00     0.019 C 
HETATM    7  C10 UNL     1     -11.999  13.773   2.474  1.00  0.00     0.020 C 
HETATM    8  C6  UNL     1     -13.414  11.828   0.554  1.00  0.00     0.020 C 
HETATM    9  C7  UNL     1     -14.055  11.562  -0.823  1.00  0.00     0.015 C 
HETATM   10  C8  UNL     1     -11.963  11.662   0.410  1.00  0.00     0.063 C 
HETATM   11  N1  UNL     1     -11.102  12.772   0.510  1.00  0.00    -0.384 N 
HETATM   12  C9  UNL     1     -10.759  13.171   1.841  1.00  0.00     0.128 C 
BRANCH   4  13
HETATM   13  C2  UNL     1     -12.123  16.135   0.095  1.00  0.00    -0.005 C 
HETATM   14  C1  UNL     1     -11.160  16.837   0.612  1.00  0.00     0.011 C 
ENDBRANCH   4  13
BRANCH   7  15
HETATM   15  C11 UNL     1     -12.588  12.892   3.509  1.00  0.00     0.106 C 
BRANCH  15  16
HETATM   16  C12 UNL     1     -13.432  13.537   4.528  1.00  0.00     0.231 C 
HETATM   17  N2  UNL     1     -14.605  12.927   5.047  1.00  0.00    -0.062 NA
HETATM   18  O1  UNL     1     -13.117  14.675   4.965  1.00  0.00    -0.277 OA
ENDBRANCH  15  16
ENDBRANCH   7  15
ENDBRANCH   2   3
ENDBRANCH   1   2
BRANCH   1  19
HETATM   19  C16 UNL     1      -9.765  15.507  -3.064  1.00  0.00     0.011 C 
BRANCH  19  20
HETATM   20  C17 UNL     1      -9.251  15.263  -4.458  1.00  0.00    -0.014 C 
HETATM   21  C18 UNL     1     -10.440  14.883  -5.320  1.00  0.00     0.005 C 
HETATM   22  C19 UNL     1     -10.526  15.725  -6.575  1.00  0.00     0.000 C 
HETATM   23  C20 UNL     1      -9.202  15.571  -7.303  1.00  0.00     0.000 C 
HETATM   24  C21 UNL     1      -8.168  16.289  -6.470  1.00  0.00     0.000 C 
HETATM   25  C22 UNL     1      -8.604  16.495  -5.049  1.00  0.00     0.005 C 
ENDBRANCH  19  20
ENDBRANCH   1  19
BRANCH   1  26
HETATM   26  C23 UNL     1      -7.905  14.346  -2.019  1.00  0.00     0.140 C 
BRANCH  26  27
HETATM   27  N3  UNL     1      -7.253  15.160  -1.007  1.00  0.00    -0.284 N 
HETATM   28  C24 UNL     1      -7.406  14.896   0.379  1.00  0.00     0.248 C 
HETATM   29  O2  UNL     1      -7.553  13.749   0.805  1.00  0.00    -0.271 OA
HETATM   30  C25 UNL     1      -7.375  16.135   1.267  1.00  0.00     0.171 C 
HETATM   31  N7  UNL     1      -6.136  16.776   1.054  1.00  0.00    -0.393 N 
HETATM   32  C31 UNL     1      -5.678  16.952  -0.287  1.00  0.00     0.108 C 
ATOM     33  H7  UNL     1      -5.579  17.106   1.842  1.00  0.00     0.155 HD
HETATM   34  C36 UNL     1      -6.476  16.299  -1.335  1.00  0.00     0.254 C 
HETATM   35  O3  UNL     1      -6.479  16.755  -2.539  1.00  0.00    -0.270 OA
BRANCH  30  36
HETATM   36  C26 UNL     1      -7.596  15.736   2.678  1.00  0.00     0.034 C 
BRANCH  36  37
HETATM   37  C27 UNL     1      -8.576  16.529   3.459  1.00  0.00     0.004 C 
BRANCH  37  38
HETATM   38  C28 UNL     1      -9.708  15.809   4.099  1.00  0.00     0.020 C 
BRANCH  38  39
HETATM   39  C29 UNL     1      -9.163  14.772   5.112  1.00  0.00     0.122 C 
BRANCH  39  40
HETATM   40  N4  UNL     1     -10.241  14.224   5.914  1.00  0.00    -0.365 N 
HETATM   41  C30 UNL     1     -10.757  14.831   7.080  1.00  0.00     0.181 C 
HETATM   42  N5  UNL     1     -11.505  14.159   7.886  1.00  0.00    -0.374 N 
HETATM   43  N6  UNL     1     -10.481  16.196   7.423  1.00  0.00    -0.064 NA
ATOM     44  H52 UNL     1     -11.701  13.188   7.641  1.00  0.00     0.158 HD
ATOM     45  H51 UNL     1     -11.878  14.597   8.728  1.00  0.00     0.158 HD
ATOM     46  H4  UNL     1     -10.653  13.340   5.616  1.00  0.00     0.162 HD
ENDBRANCH  39  40
ENDBRANCH  38  39
ENDBRANCH  37  38
ENDBRANCH  36  37
ENDBRANCH  30  36
BRANCH  32  47
HETATM   47  C32 UNL     1      -4.245  16.438  -0.304  1.00  0.00     0.036 C 
HETATM   48  C33 UNL     1      -3.222  17.339   0.256  1.00  0.00     0.008 C 
ENDBRANCH  32  47
BRANCH  32  49
HETATM   49  C34 UNL     1      -5.619  18.438  -0.617  1.00  0.00     0.036 C 
HETATM   50  C35 UNL     1      -6.782  19.201  -0.072  1.00  0.00     0.008 C 
ENDBRANCH  32  49
ENDBRANCH  26  27
ENDBRANCH   1  26
TORSDOF 16
ENDMDL
MODEL 2
REMARK VINA RESULT: -9.269241241      2.394      9.552
REMARK  16 active torsions:
REMARK  status: ('A' for Active; 'I' for Inactive)
REMARK    1  A    between atoms: C2_2  and  C3_3 
REMARK    2  A    between atoms: C10_11  and  C11_12 
REMARK    3  A    between atoms: C11_12  and  C12_13 
REMARK    4  A    between atoms: C13_16  and  C14_17 
REMARK    5  A    between atoms: C14_17  and  C15_18 
REMARK    6  A    between atoms: C15_18  and  C16_19 
REMARK    7  A    between atoms: C15_18  and  C23_26 
REMARK    8  A    between atoms: C16_19  and  C17_20 
REMARK    9  A    between atoms: C23_26  and  N3_27 
REMARK   10  A    between atoms: C25_30  and  C26_31 
REMARK   11  A    between atoms: C26_31  and  C27_32 
REMARK   12  A    between atoms: C27_32  and  C28_33 
REMARK   13  A    between atoms: C28_33  and  C29_34 
REMARK   14  A    between atoms: C29_34  and  N4_35 
REMARK       I    between atoms: N4_35  and  C30_37 
REMARK   15  A    between atoms: C31_44  and  C32_45 
REMARK   16  A    between atoms: C31_44  and  C34_47 
ROOT
HETATM    1  C15 UNL     1      -7.781  15.458   2.381  1.00  0.00     0.007 C 
ENDROOT
BRANCH   1   2
HETATM    2  C14 UNL     1      -7.733  16.162   1.085  1.00  0.00     0.036 C 
BRANCH   2   3
HETATM    3  C13 UNL     1      -6.469  16.751   0.607  1.00  0.00     0.113 C 
HETATM    4  C3  UNL     1      -6.692  18.089  -0.108  1.00  0.00    -0.053 C 
HETATM    5  C4  UNL     1      -6.022  18.171  -1.451  1.00  0.00     0.023 C 
HETATM    6  C5  UNL     1      -4.575  18.518  -1.215  1.00  0.00     0.019 C 
HETATM    7  C10 UNL     1      -6.228  17.038  -2.373  1.00  0.00     0.020 C 
HETATM    8  C6  UNL     1      -3.722  17.464  -0.638  1.00  0.00     0.020 C 
HETATM    9  C7  UNL     1      -3.085  18.027   0.648  1.00  0.00     0.015 C 
HETATM   10  C8  UNL     1      -4.304  16.157  -0.314  1.00  0.00     0.063 C 
HETATM   11  N1  UNL     1      -5.701  15.976  -0.309  1.00  0.00    -0.384 N 
HETATM   12  C9  UNL     1      -6.299  15.741  -1.589  1.00  0.00     0.128 C 
BRANCH   4  13
HETATM   13  C2  UNL     1      -8.053  18.605  -0.035  1.00  0.00    -0.005 C 
HETATM   14  C1  UNL     1      -9.156  18.155  -0.555  1.00  0.00     0.011 C 
ENDBRANCH   4  13
BRANCH   7  15
HETATM   15  C11 UNL     1      -5.235  16.979  -3.471  1.00  0.00     0.106 C 
BRANCH  15  16
HETATM   16  C12 UNL     1      -5.732  17.248  -4.831  1.00  0.00     0.231 C 
HETATM   17  N2  UNL     1      -6.860  18.074  -5.082  1.00  0.00    -0.062 NA
HETATM   18  O1  UNL     1      -5.147  16.731  -5.819  1.00  0.00    -0.277 OA
ENDBRANCH  15  16
ENDBRANCH   7  15
ENDBRANCH   2   3
ENDBRANCH   1   2
BRANCH   1  19
HETATM   19  C16 UNL     1      -8.360  16.330   3.479  1.00  0.00     0.011 C 
BRANCH  19  20
HETATM   20  C17 UNL     1      -8.590  15.605   4.777  1.00  0.00    -0.014 C 
HETATM   21  C18 UNL     1      -7.603  16.159   5.788  1.00  0.00     0.005 C 
HETATM   22  C19 UNL     1      -8.282  16.599   7.066  1.00  0.00     0.000 C 
HETATM   23  C20 UNL     1      -9.049  15.400   7.595  1.00  0.00     0.000 C 
HETATM   24  C21 UNL     1     -10.201  15.175   6.646  1.00  0.00     0.000 C 
HETATM   25  C22 UNL     1      -9.990  15.820   5.308  1.00  0.00     0.005 C 
ENDBRANCH  19  20
ENDBRANCH   1  19
BRANCH   1  26
HETATM   26  C23 UNL     1      -8.515  14.168   2.383  1.00  0.00     0.140 C 
BRANCH  26  27
HETATM   27  N3  UNL     1      -9.471  13.973   1.306  1.00  0.00    -0.284 N 
HETATM   28  C24 UNL     1      -9.062  13.868  -0.049  1.00  0.00     0.248 C 
HETATM   29  O2  UNL     1      -7.984  13.360  -0.359  1.00  0.00    -0.271 OA
HETATM   30  C25 UNL     1     -10.058  14.431  -1.057  1.00  0.00     0.171 C 
HETATM   31  N7  UNL     1     -11.272  13.732  -0.886  1.00  0.00    -0.393 N 
HETATM   32  C31 UNL     1     -11.766  13.530   0.439  1.00  0.00     0.108 C 
ATOM     33  H7  UNL     1     -11.787  13.379  -1.693  1.00  0.00     0.155 HD
HETATM   34  C36 UNL     1     -10.871  13.936   1.532  1.00  0.00     0.254 C 
HETATM   35  O3  UNL     1     -11.345  14.261   2.684  1.00  0.00    -0.270 OA
BRANCH  30  36
HETATM   36  C26 UNL     1      -9.498  14.311  -2.424  1.00  0.00     0.034 C 
BRANCH  36  37
HETATM   37  C27 UNL     1      -9.527  15.525  -3.276  1.00  0.00     0.004 C 
BRANCH  37  38
HETATM   38  C28 UNL     1     -10.699  15.725  -4.169  1.00  0.00     0.020 C 
BRANCH  38  39
HETATM   39  C29 UNL     1     -10.337  15.296  -5.613  1.00  0.00     0.122 C 
BRANCH  39  40
HETATM   40  N4  UNL     1      -9.376  16.213  -6.194  1.00  0.00    -0.365 N 
HETATM   41  C30 UNL     1      -8.736  16.018  -7.437  1.00  0.00     0.181 C 
HETATM   42  N5  UNL     1      -7.702  16.718  -7.753  1.00  0.00    -0.374 N 
HETATM   43  N6  UNL     1      -9.191  15.051  -8.393  1.00  0.00    -0.064 NA
ATOM     44  H52 UNL     1      -7.378  17.407  -7.073  1.00  0.00     0.158 HD
ATOM     45  H51 UNL     1      -7.239  16.578  -8.651  1.00  0.00     0.158 HD
ATOM     46  H4  UNL     1      -9.148  17.057  -5.669  1.00  0.00     0.162 HD
ENDBRANCH  39  40
ENDBRANCH  38  39
ENDBRANCH  37  38
ENDBRANCH  36  37
ENDBRANCH  30  36
BRANCH  32  47
HETATM   47  C32 UNL     1     -12.092  12.045   0.534  1.00  0.00     0.036 C 
HETATM   48  C33 UNL     1     -13.315  11.601  -0.157  1.00  0.00     0.008 C 
ENDBRANCH  32  47
BRANCH  32  49
HETATM   49  C34 UNL     1     -13.077  14.283   0.618  1.00  0.00     0.036 C 
HETATM   50  C35 UNL     1     -13.085  15.609  -0.072  1.00  0.00     0.008 C 
ENDBRANCH  32  49
ENDBRANCH  26  27
ENDBRANCH   1  26
TORSDOF 16
ENDMDL
MODEL 3
REMARK VINA RESULT: -9.067349216      2.705      7.527
REMARK  16 active torsions:
REMARK  status: ('A' for Active; 'I' for Inactive)
REMARK    1  A    between atoms: C2_2  and  C3_3 
REMARK    2  A    between atoms: C10_11  and  C11_12 
REMARK    3  A    between atoms: C11_12  and  C12_13 
REMARK    4  A    between atoms: C13_16  and  C14_17 
REMARK    5  A    between atoms: C14_17  and  C15_18 
REMARK    6  A    between atoms: C15_18  and  C16_19 
REMARK    7  A    between atoms: C15_18  and  C23_26 
REMARK    8  A    between atoms: C16_19  and  C17_20 
REMARK    9  A    between atoms: C23_26  and  N3_27 
REMARK   10  A    between atoms: C25_30  and  C26_31 
REMARK   11  A    between atoms: C26_31  and  C27_32 
REMARK   12  A    between atoms: C27_32  and  C28_33 
REMARK   13  A    between atoms: C28_33  and  C29_34 
REMARK   14  A    between atoms: C29_34  and  N4_35 
REMARK       I    between atoms: N4_35  and  C30_37 
REMARK   15  A    between atoms: C31_44  and  C32_45 
REMARK   16  A    between atoms: C31_44  and  C34_47 
ROOT
HETATM    1  C15 UNL     1     -10.270  14.507   1.536  1.00  0.00     0.007 C 
ENDROOT
BRANCH   1   2
HETATM    2  C14 UNL     1     -11.690  14.108   1.547  1.00  0.00     0.036 C 
BRANCH   2   3
HETATM    3  C13 UNL     1     -12.245  13.373   2.698  1.00  0.00     0.113 C 
HETATM    4  C3  UNL     1     -12.511  11.900   2.365  1.00  0.00    -0.053 C 
HETATM    5  C4  UNL     1     -13.891  11.439   2.741  1.00  0.00     0.023 C 
HETATM    6  C5  UNL     1     -13.878  11.122   4.214  1.00  0.00     0.019 C 
HETATM    7  C10 UNL     1     -15.020  12.289   2.317  1.00  0.00     0.020 C 
HETATM    8  C6  UNL     1     -13.798  12.265   5.141  1.00  0.00     0.020 C 
HETATM    9  C7  UNL     1     -12.570  12.049   6.048  1.00  0.00     0.015 C 
HETATM   10  C8  UNL     1     -13.724  13.629   4.606  1.00  0.00     0.063 C 
HETATM   11  N1  UNL     1     -13.476  13.849   3.237  1.00  0.00    -0.384 N 
HETATM   12  C9  UNL     1     -14.617  13.750   2.378  1.00  0.00     0.128 C 
BRANCH   4  13
HETATM   13  C2  UNL     1     -12.019  11.466   1.064  1.00  0.00    -0.005 C 
HETATM   14  C1  UNL     1     -12.585  11.497  -0.106  1.00  0.00     0.011 C 
ENDBRANCH   4  13
BRANCH   7  15
HETATM   15  C11 UNL     1     -16.276  12.019   3.056  1.00  0.00     0.106 C 
BRANCH  15  16
HETATM   16  C12 UNL     1     -17.105  10.904   2.570  1.00  0.00     0.231 C 
HETATM   17  N2  UNL     1     -18.524  10.952   2.567  1.00  0.00    -0.062 NA
HETATM   18  O1  UNL     1     -16.550   9.859   2.139  1.00  0.00    -0.277 OA
ENDBRANCH  15  16
ENDBRANCH   7  15
ENDBRANCH   2   3
ENDBRANCH   1   2
BRANCH   1  19
HETATM   19  C16 UNL     1      -9.580  14.184   2.847  1.00  0.00     0.011 C 
BRANCH  19  20
HETATM   20  C17 UNL     1      -9.522  15.342   3.808  1.00  0.00    -0.014 C 
HETATM   21  C18 UNL     1     -10.158  14.886   5.107  1.00  0.00     0.005 C 
HETATM   22  C19 UNL     1      -9.265  15.145   6.301  1.00  0.00     0.000 C 
HETATM   23  C20 UNL     1      -8.940  16.628   6.297  1.00  0.00     0.000 C 
HETATM   24  C21 UNL     1      -8.028  16.865   5.119  1.00  0.00     0.000 C 
HETATM   25  C22 UNL     1      -8.101  15.772   4.095  1.00  0.00     0.005 C 
ENDBRANCH  19  20
ENDBRANCH   1  19
BRANCH   1  26
HETATM   26  C23 UNL     1      -9.453  13.937   0.434  1.00  0.00     0.140 C 
BRANCH  26  27
HETATM   27  N3  UNL     1      -8.818  14.896  -0.454  1.00  0.00    -0.284 N 
HETATM   28  C24 UNL     1      -9.379  15.238  -1.712  1.00  0.00     0.248 C 
HETATM   29  O2  UNL     1     -10.597  15.257  -1.891  1.00  0.00    -0.271 OA
HETATM   30  C25 UNL     1      -8.356  15.570  -2.794  1.00  0.00     0.171 C 
HETATM   31  N7  UNL     1      -7.581  16.652  -2.324  1.00  0.00    -0.393 N 
HETATM   32  C31 UNL     1      -7.089  16.612  -0.984  1.00  0.00     0.108 C 
ATOM     33  H7  UNL     1      -7.378  17.448  -2.930  1.00  0.00     0.155 HD
HETATM   34  C36 UNL     1      -7.573  15.503  -0.149  1.00  0.00     0.254 C 
HETATM   35  O3  UNL     1      -6.877  15.076   0.846  1.00  0.00    -0.270 OA
BRANCH  30  36
HETATM   36  C26 UNL     1      -9.059  15.858  -4.066  1.00  0.00     0.034 C 
BRANCH  36  37
HETATM   37  C27 UNL     1      -8.919  14.862  -5.157  1.00  0.00     0.004 C 
BRANCH  37  38
HETATM   38  C28 UNL     1      -9.612  15.132  -6.444  1.00  0.00     0.020 C 
BRANCH  38  39
HETATM   39  C29 UNL     1      -9.230  16.541  -6.960  1.00  0.00     0.122 C 
BRANCH  39  40
HETATM   40  N4  UNL     1      -7.984  16.495  -7.701  1.00  0.00    -0.365 N 
HETATM   41  C30 UNL     1      -6.852  17.288  -7.411  1.00  0.00     0.181 C 
HETATM   42  N5  UNL     1      -5.898  17.398  -8.270  1.00  0.00    -0.374 N 
HETATM   43  N6  UNL     1      -6.707  17.998  -6.174  1.00  0.00    -0.064 NA
ATOM     44  H52 UNL     1      -6.002  16.893  -9.150  1.00  0.00     0.158 HD
ATOM     45  H51 UNL     1      -5.081  17.971  -8.060  1.00  0.00     0.158 HD
ATOM     46  H4  UNL     1      -7.921  15.846  -8.485  1.00  0.00     0.162 HD
ENDBRANCH  39  40
ENDBRANCH  38  39
ENDBRANCH  37  38
ENDBRANCH  36  37
ENDBRANCH  30  36
BRANCH  32  47
HETATM   47  C32 UNL     1      -7.465  17.952  -0.366  1.00  0.00     0.036 C 
HETATM   48  C33 UNL     1      -6.359  18.900  -0.142  1.00  0.00     0.008 C 
ENDBRANCH  32  47
BRANCH  32  49
HETATM   49  C34 UNL     1      -5.568  16.543  -0.999  1.00  0.00     0.036 C 
HETATM   50  C35 UNL     1      -5.000  16.521  -2.381  1.00  0.00     0.008 C 
ENDBRANCH  32  49
ENDBRANCH  26  27
ENDBRANCH   1  26
TORSDOF 16
ENDMDL
MODEL 4
REMARK VINA RESULT: -9.001892930      2.916      7.374
REMARK  16 active torsions:
REMARK  status: ('A' for Active; 'I' for Inactive)
REMARK    1  A    between atoms: C2_2  and  C3_3 
REMARK    2  A    between atoms: C10_11  and  C11_12 
REMARK    3  A    between atoms: C11_12  and  C12_13 
REMARK    4  A    between atoms: C13_16  and  C14_17 
REMARK    5  A    between atoms: C14_17  and  C15_18 
REMARK    6  A    between atoms: C15_18  and  C16_19 
REMARK    7  A    between atoms: C15_18  and  C23_26 
REMARK    8  A    between atoms: C16_19  and  C17_20 
REMARK    9  A    between atoms: C23_26  and  N3_27 
REMARK   10  A    between atoms: C25_30  and  C26_31 
REMARK   11  A    between atoms: C26_31  and  C27_32 
REMARK   12  A    between atoms: C27_32  and  C28_33 
REMARK   13  A    between atoms: C28_33  and  C29_34 
REMARK   14  A    between atoms: C29_34  and  N4_35 
REMARK       I    between atoms: N4_35  and  C30_37 
REMARK   15  A    between atoms: C31_44  and  C32_45 
REMARK   16  A    between atoms: C31_44  and  C34_47 
ROOT
HETATM    1  C15 UNL     1     -10.510  14.568   2.512  1.00  0.00     0.007 C 
ENDROOT
BRANCH   1   2
HETATM    2  C14 UNL     1     -11.118  13.502   3.331  1.00  0.00     0.036 C 
BRANCH   2   3
HETATM    3  C13 UNL     1     -12.578  13.295   3.314  1.00  0.00     0.113 C 
HETATM    4  C3  UNL     1     -13.099  12.769   4.657  1.00  0.00    -0.053 C 
HETATM    5  C4  UNL     1     -13.980  11.558   4.526  1.00  0.00     0.023 C 
HETATM    6  C5  UNL     1     -15.359  12.038   4.158  1.00  0.00     0.019 C 
HETATM    7  C10 UNL     1     -13.480  10.455   3.684  1.00  0.00     0.020 C 
HETATM    8  C6  UNL     1     -15.542  12.557   2.792  1.00  0.00     0.020 C 
HETATM    9  C7  UNL     1     -16.104  13.989   2.904  1.00  0.00     0.015 C 
HETATM   10  C8  UNL     1     -14.400  12.596   1.872  1.00  0.00     0.063 C 
HETATM   11  N1  UNL     1     -13.091  12.384   2.346  1.00  0.00    -0.384 N 
HETATM   12  C9  UNL     1     -12.705  11.015   2.506  1.00  0.00     0.128 C 
BRANCH   4  13
HETATM   13  C2  UNL     1     -12.112  12.735   5.729  1.00  0.00    -0.005 C 
HETATM   14  C1  UNL     1     -12.255  12.875   7.012  1.00  0.00     0.011 C 
ENDBRANCH   4  13
BRANCH   7  15
HETATM   15  C11 UNL     1     -14.537   9.505   3.262  1.00  0.00     0.106 C 
BRANCH  15  16
HETATM   16  C12 UNL     1     -14.755   8.330   4.123  1.00  0.00     0.231 C 
HETATM   17  N2  UNL     1     -14.037   7.117   3.956  1.00  0.00    -0.062 NA
HETATM   18  O1  UNL     1     -15.610   8.388   5.046  1.00  0.00    -0.277 OA
ENDBRANCH  15  16
ENDBRANCH   7  15
ENDBRANCH   2   3
ENDBRANCH   1   2
BRANCH   1  19
HETATM   19  C16 UNL     1     -10.164  15.791   3.340  1.00  0.00     0.011 C 
BRANCH  19  20
HETATM   20  C17 UNL     1      -9.391  15.480   4.594  1.00  0.00    -0.014 C 
HETATM   21  C18 UNL     1      -8.140  16.339   4.581  1.00  0.00     0.005 C 
HETATM   22  C19 UNL     1      -7.972  17.120   5.866  1.00  0.00     0.000 C 
HETATM   23  C20 UNL     1      -7.977  16.112   7.001  1.00  0.00     0.000 C 
HETATM   24  C21 UNL     1      -9.386  15.580   7.097  1.00  0.00     0.000 C 
HETATM   25  C22 UNL     1     -10.180  15.802   5.843  1.00  0.00     0.005 C 
ENDBRANCH  19  20
ENDBRANCH   1  19
BRANCH   1  26
HETATM   26  C23 UNL     1      -9.303  14.176   1.743  1.00  0.00     0.140 C 
BRANCH  26  27
HETATM   27  N3  UNL     1      -8.985  14.997   0.587  1.00  0.00    -0.284 N 
HETATM   28  C24 UNL     1      -7.972  15.990   0.629  1.00  0.00     0.248 C 
HETATM   29  O2  UNL     1      -6.966  15.855   1.327  1.00  0.00    -0.271 OA
HETATM   30  C25 UNL     1      -8.241  17.209  -0.247  1.00  0.00     0.171 C 
HETATM   31  N7  UNL     1      -8.382  16.751  -1.574  1.00  0.00    -0.393 N 
HETATM   32  C31 UNL     1      -9.200  15.606  -1.821  1.00  0.00     0.108 C 
ATOM     33  H7  UNL     1      -7.909  17.227  -2.342  1.00  0.00     0.155 HD
HETATM   34  C36 UNL     1      -9.703  14.901  -0.632  1.00  0.00     0.254 C 
HETATM   35  O3  UNL     1     -10.785  14.207  -0.688  1.00  0.00    -0.270 OA
BRANCH  30  36
HETATM   36  C26 UNL     1      -7.143  18.190  -0.077  1.00  0.00     0.034 C 
BRANCH  36  37
HETATM   37  C27 UNL     1      -5.947  18.022  -0.939  1.00  0.00     0.004 C 
BRANCH  37  38
HETATM   38  C28 UNL     1      -4.666  18.623  -0.484  1.00  0.00     0.020 C 
BRANCH  38  39
HETATM   39  C29 UNL     1      -4.039  19.452  -1.631  1.00  0.00     0.122 C 
BRANCH  39  40
HETATM   40  N4  UNL     1      -5.059  19.882  -2.569  1.00  0.00    -0.365 N 
HETATM   41  C30 UNL     1      -4.796  20.551  -3.785  1.00  0.00     0.181 C 
HETATM   42  N5  UNL     1      -5.747  21.144  -4.419  1.00  0.00    -0.374 N 
HETATM   43  N6  UNL     1      -3.485  20.605  -4.364  1.00  0.00    -0.064 NA
ATOM     44  H52 UNL     1      -6.680  21.105  -4.006  1.00  0.00     0.158 HD
ATOM     45  H51 UNL     1      -5.558  21.627  -5.297  1.00  0.00     0.158 HD
ATOM     46  H4  UNL     1      -6.032  19.687  -2.334  1.00  0.00     0.162 HD
ENDBRANCH  39  40
ENDBRANCH  38  39
ENDBRANCH  37  38
ENDBRANCH  36  37
ENDBRANCH  30  36
BRANCH  32  47
HETATM   47  C32 UNL     1      -8.357  14.674  -2.681  1.00  0.00     0.036 C 
HETATM   48  C33 UNL     1      -7.080  15.220  -3.173  1.00  0.00     0.008 C 
ENDBRANCH  32  47
BRANCH  32  49
HETATM   49  C34 UNL     1     -10.407  16.009  -2.657  1.00  0.00     0.036 C 
HETATM   50  C35 UNL     1     -10.356  15.473  -4.050  1.00  0.00     0.008 C 
ENDBRANCH  32  49
ENDBRANCH  26  27
ENDBRANCH   1  26
TORSDOF 16
ENDMDL
MODEL 5
REMARK VINA RESULT: -8.960698944      3.018      8.218
REMARK  16 active torsions:
REMARK  status: ('A' for Active; 'I' for Inactive)
REMARK    1  A    between atoms: C2_2  and  C3_3 
REMARK    2  A    between atoms: C10_11  and  C11_12 
REMARK    3  A    between atoms: C11_12  and  C12_13 
REMARK    4  A    between atoms: C13_16  and  C14_17 
REMARK    5  A    between atoms: C14_17  and  C15_18 
REMARK    6  A    between atoms: C15_18  and  C16_19 
REMARK    7  A    between atoms: C15_18  and  C23_26 
REMARK    8  A    between atoms: C16_19  and  C17_20 
REMARK    9  A    between atoms: C23_26  and  N3_27 
REMARK   10  A    between atoms: C25_30  and  C26_31 
REMARK   11  A    between atoms: C26_31  and  C27_32 
REMARK   12  A    between atoms: C27_32  and  C28_33 
REMARK   13  A    between atoms: C28_33  and  C29_34 
REMARK   14  A    between atoms: C29_34  and  N4_35 
REMARK       I    between atoms: N4_35  and  C30_37 
REMARK   15  A    between atoms: C31_44  and  C32_45 
REMARK   16  A    between atoms: C31_44  and  C34_47 
ROOT
HETATM    1  C15 UNL     1      -7.555  16.371  -2.525  1.00  0.00     0.007 C 
ENDROOT
BRANCH   1   2
HETATM    2  C14 UNL     1      -6.296  16.379  -3.295  1.00  0.00     0.036 C 
BRANCH   2   3
HETATM    3  C13 UNL     1      -5.551  17.636  -3.484  1.00  0.00     0.113 C 
HETATM    4  C3  UNL     1      -4.790  17.658  -4.816  1.00  0.00    -0.053 C 
HETATM    5  C4  UNL     1      -3.345  18.045  -4.676  1.00  0.00     0.023 C 
HETATM    6  C5  UNL     1      -3.283  19.548  -4.595  1.00  0.00     0.019 C 
HETATM    7  C10 UNL     1      -2.564  17.352  -3.633  1.00  0.00     0.020 C 
HETATM    8  C6  UNL     1      -3.770  20.170  -3.351  1.00  0.00     0.020 C 
HETATM    9  C7  UNL     1      -4.871  21.180  -3.730  1.00  0.00     0.015 C 
HETATM   10  C8  UNL     1      -4.293  19.322  -2.273  1.00  0.00     0.063 C 
HETATM   11  N1  UNL     1      -4.569  17.960  -2.503  1.00  0.00    -0.384 N 
HETATM   12  C9  UNL     1      -3.443  17.079  -2.426  1.00  0.00     0.128 C 
BRANCH   4  13
HETATM   13  C2  UNL     1      -5.074  16.538  -5.704  1.00  0.00    -0.005 C 
HETATM   14  C1  UNL     1      -4.942  16.428  -6.992  1.00  0.00     0.011 C 
ENDBRANCH   4  13
BRANCH   7  15
HETATM   15  C11 UNL     1      -1.309  18.051  -3.268  1.00  0.00     0.106 C 
BRANCH  15  16
HETATM   16  C12 UNL     1      -0.104  17.692  -4.033  1.00  0.00     0.231 C 
HETATM   17  N2  UNL     1       0.483  16.401  -3.974  1.00  0.00    -0.062 NA
HETATM   18  O1  UNL     1       0.441  18.554  -4.773  1.00  0.00    -0.277 OA
ENDBRANCH  15  16
ENDBRANCH   7  15
ENDBRANCH   2   3
ENDBRANCH   1   2
BRANCH   1  19
HETATM   19  C16 UNL     1      -8.759  16.646  -3.406  1.00  0.00     0.011 C 
BRANCH  19  20
HETATM   20  C17 UNL     1      -8.775  15.853  -4.684  1.00  0.00    -0.014 C 
HETATM   21  C18 UNL     1     -10.120  15.156  -4.769  1.00  0.00     0.005 C 
HETATM   22  C19 UNL     1     -10.812  15.412  -6.091  1.00  0.00     0.000 C 
HETATM   23  C20 UNL     1      -9.855  14.971  -7.184  1.00  0.00     0.000 C 
HETATM   24  C21 UNL     1      -8.719  15.965  -7.186  1.00  0.00     0.000 C 
HETATM   25  C22 UNL     1      -8.614  16.734  -5.903  1.00  0.00     0.005 C 
ENDBRANCH  19  20
ENDBRANCH   1  19
BRANCH   1  26
HETATM   26  C23 UNL     1      -7.825  15.134  -1.750  1.00  0.00     0.140 C 
BRANCH  26  27
HETATM   27  N3  UNL     1      -8.665  15.285  -0.573  1.00  0.00    -0.284 N 
HETATM   28  C24 UNL     1     -10.049  14.974  -0.596  1.00  0.00     0.248 C 
HETATM   29  O2  UNL     1     -10.495  14.072  -1.307  1.00  0.00    -0.271 OA
HETATM   30  C25 UNL     1     -10.909  15.840   0.317  1.00  0.00     0.171 C 
HETATM   31  N7  UNL     1     -10.422  15.680   1.632  1.00  0.00    -0.393 N 
HETATM   32  C31 UNL     1      -9.012  15.741   1.852  1.00  0.00     0.108 C 
ATOM     33  H7  UNL     1     -11.064  15.524   2.409  1.00  0.00     0.155 HD
HETATM   34  C36 UNL     1      -8.171  15.808   0.648  1.00  0.00     0.254 C 
HETATM   35  O3  UNL     1      -6.999  16.340   0.693  1.00  0.00    -0.270 OA
BRANCH  30  36
HETATM   36  C26 UNL     1     -12.332  15.454   0.167  1.00  0.00     0.034 C 
BRANCH  36  37
HETATM   37  C27 UNL     1     -12.820  14.331   1.005  1.00  0.00     0.004 C 
BRANCH  37  38
HETATM   38  C28 UNL     1     -13.908  13.475   0.463  1.00  0.00     0.020 C 
BRANCH  38  39
HETATM   39  C29 UNL     1     -14.601  12.714   1.620  1.00  0.00     0.122 C 
BRANCH  39  40
HETATM   40  N4  UNL     1     -14.473  13.447   2.865  1.00  0.00    -0.365 N 
HETATM   41  C30 UNL     1     -15.503  14.216   3.449  1.00  0.00     0.181 C 
HETATM   42  N5  UNL     1     -15.234  15.054   4.389  1.00  0.00    -0.374 N 
HETATM   43  N6  UNL     1     -16.872  14.109   3.035  1.00  0.00    -0.064 NA
ATOM     44  H52 UNL     1     -14.260  15.131   4.684  1.00  0.00     0.158 HD
ATOM     45  H51 UNL     1     -15.978  15.610   4.812  1.00  0.00     0.158 HD
ATOM     46  H4  UNL     1     -13.577  13.403   3.351  1.00  0.00     0.162 HD
ENDBRANCH  39  40
ENDBRANCH  38  39
ENDBRANCH  37  38
ENDBRANCH  36  37
ENDBRANCH  30  36
BRANCH  32  47
HETATM   47  C32 UNL     1      -8.670  14.508   2.678  1.00  0.00     0.036 C 
HETATM   48  C33 UNL     1      -9.811  13.698   3.143  1.00  0.00     0.008 C 
ENDBRANCH  32  47
BRANCH  32  49
HETATM   49  C34 UNL     1      -8.679  16.954   2.710  1.00  0.00     0.036 C 
HETATM   50  C35 UNL     1      -8.257  16.589   4.096  1.00  0.00     0.008 C 
ENDBRANCH  32  49
ENDBRANCH  26  27
ENDBRANCH   1  26
TORSDOF 16
ENDMDL
