MODEL 1
REMARK VINA RESULT: -8.788202587      0.000      0.000
REMARK  16 active torsions:
REMARK  status: ('A' for Active; 'I' for Inactive)
REMARK    1  A    between atoms: C2_2  and  C3_3 
REMARK    2  A    between atoms: C3_3  and  C5_5 
REMARK    3  A    between atoms: C5_5  and  N1_6 
REMARK    4  A    between atoms: C5_5  and  C20_28 
REMARK       I    between atoms: N1_6  and  C6_8 
REMARK    5  A    between atoms: C6_8  and  C7_10 
REMARK    6  A    between atoms: C7_10  and  N2_12 
REMARK       I    between atoms: N2_12  and  C9_14 
REMARK    7  A    between atoms: C9_14  and  C10_16 
REMARK    8  A    between atoms: C12_18  and  O3_19 
REMARK       I    between atoms: C20_28  and  N3_30 
REMARK    9  A    between atoms: N3_30  and  C21_32 
REMARK   10  A    between atoms: C21_32  and  C22_33 
REMARK   11  A    between atoms: C21_32  and  C27_38 
REMARK   12  A    between atoms: C22_33  and  C23_34 
REMARK   13  A    between atoms: C23_34  and  C24_35 
REMARK       I    between atoms: C27_38  and  N4_40 
REMARK   14  A    between atoms: N4_40  and  C28_41 
REMARK   15  A    between atoms: N4_40  and  C32_45 
REMARK   16  A    between atoms: C28_41  and  C29_42 
ROOT
HETATM    1  C5  UNL     1     -10.264  15.818   0.860  1.00  0.00     0.180 C 
ENDROOT
BRANCH   1   2
HETATM    2  C3  UNL     1     -11.036  15.054  -0.213  1.00  0.00     0.013 C 
HETATM    3  C4  UNL     1     -12.358  15.701  -0.472  1.00  0.00     0.012 C 
BRANCH   2   4
HETATM    4  C2  UNL     1     -10.248  14.678  -1.410  1.00  0.00     0.002 C 
HETATM    5  C1  UNL     1     -10.508  15.444  -2.660  1.00  0.00     0.005 C 
ENDBRANCH   2   4
ENDBRANCH   1   2
BRANCH   1   6
HETATM    6  N1  UNL     1      -8.929  16.153   0.419  1.00  0.00    -0.346 N 
HETATM    7  C6  UNL     1      -8.574  17.322  -0.251  1.00  0.00     0.240 C 
HETATM    8  O1  UNL     1      -9.443  18.178  -0.530  1.00  0.00    -0.271 OA
ATOM      9  H1  UNL     1      -8.187  15.481   0.614  1.00  0.00     0.163 HD
BRANCH   7  10
HETATM   10  C7  UNL     1      -7.175  17.570  -0.638  1.00  0.00     0.172 C 
HETATM   11  C8  UNL     1      -6.668  18.891  -0.063  1.00  0.00     0.042 C 
BRANCH  10  12
HETATM   12  N2  UNL     1      -6.993  17.577  -2.079  1.00  0.00    -0.348 N 
HETATM   13  C9  UNL     1      -6.915  16.370  -2.792  1.00  0.00     0.222 C 
HETATM   14  O2  UNL     1      -6.995  15.262  -2.182  1.00  0.00    -0.273 OA
ATOM     15  H2  UNL     1      -6.922  18.465  -2.576  1.00  0.00     0.163 HD
BRANCH  13  16
HETATM   16  C10 UNL     1      -6.742  16.331  -4.261  1.00  0.00     0.080 C 
HETATM   17  C11 UNL     1      -7.811  17.127  -4.975  1.00  0.00     0.046 C 
HETATM   18  C12 UNL     1      -7.644  16.814  -6.455  1.00  0.00     0.123 C 
HETATM   19  C13 UNL     1      -6.305  17.244  -6.974  1.00  0.00     0.018 C 
HETATM   20  C14 UNL     1      -5.617  16.054  -7.605  1.00  0.00     0.007 C 
HETATM   21  C18 UNL     1      -5.484  17.826  -5.844  1.00  0.00    -0.007 C 
HETATM   22  C15 UNL     1      -4.305  16.558  -8.189  1.00  0.00     0.000 C 
HETATM   23  C16 UNL     1      -3.444  17.031  -7.054  1.00  0.00     0.000 C 
HETATM   24  C17 UNL     1      -4.085  18.179  -6.305  1.00  0.00     0.005 C 
HETATM   25  C19 UNL     1      -5.397  16.924  -4.650  1.00  0.00     0.019 C 
BRANCH  18  26
HETATM   26  O3  UNL     1      -8.705  17.380  -7.182  1.00  0.00    -0.395 OA
ATOM     27  H3  UNL     1      -8.382  17.721  -8.008  1.00  0.00     0.210 HD
ENDBRANCH  18  26
ENDBRANCH  13  16
ENDBRANCH  10  12
ENDBRANCH   7  10
ENDBRANCH   1   6
BRANCH   1  28
HETATM   28  C20 UNL     1     -10.295  15.133   2.148  1.00  0.00     0.241 C 
HETATM   29  O4  UNL     1      -9.250  14.505   2.497  1.00  0.00    -0.271 OA
HETATM   30  N3  UNL     1     -11.377  15.097   3.054  1.00  0.00    -0.346 N 
ATOM     31  H3  UNL     1     -12.237  15.594   2.821  1.00  0.00     0.163 HD
BRANCH  30  32
HETATM   32  C21 UNL     1     -11.295  14.362   4.326  1.00  0.00     0.177 C 
BRANCH  32  33
HETATM   33  C22 UNL     1     -10.880  15.366   5.406  1.00  0.00     0.035 C 
BRANCH  33  34
HETATM   34  C23 UNL     1      -9.511  15.018   5.956  1.00  0.00     0.006 C 
BRANCH  34  35
HETATM   35  C24 UNL     1      -8.848  16.311   6.408  1.00  0.00    -0.023 C 
HETATM   36  C25 UNL     1      -7.971  16.857   5.305  1.00  0.00     0.009 C 
HETATM   37  C26 UNL     1      -7.977  16.060   7.621  1.00  0.00     0.009 C 
ENDBRANCH  34  35
ENDBRANCH  33  34
ENDBRANCH  32  33
BRANCH  32  38
HETATM   38  C27 UNL     1     -12.584  13.740   4.558  1.00  0.00     0.246 C 
HETATM   39  O5  UNL     1     -13.086  13.763   5.747  1.00  0.00    -0.271 OA
HETATM   40  N4  UNL     1     -13.418  13.068   3.583  1.00  0.00    -0.325 N 
BRANCH  40  41
HETATM   41  C28 UNL     1     -14.585  12.451   4.100  1.00  0.00     0.071 C 
BRANCH  41  42
HETATM   42  C29 UNL     1     -14.743  11.004   4.201  1.00  0.00     0.016 C 
HETATM   43  C30 UNL     1     -14.873  10.328   5.501  1.00  0.00     0.015 C 
HETATM   44  C31 UNL     1     -16.029  10.649   3.403  1.00  0.00     0.015 C 
ENDBRANCH  41  42
ENDBRANCH  40  41
BRANCH  40  45
HETATM   45  C32 UNL     1     -12.942  13.021   2.230  1.00  0.00     0.092 C 
HETATM   46  C33 UNL     1     -12.099  11.817   1.971  1.00  0.00     0.026 C 
HETATM   47  C34 UNL     1     -12.455  11.346   0.594  1.00  0.00     0.002 C 
HETATM   48  C35 UNL     1     -13.956  11.682   0.520  1.00  0.00     0.002 C 
HETATM   49  C36 UNL     1     -13.932  13.098   1.131  1.00  0.00     0.026 C 
ENDBRANCH  40  45
ENDBRANCH  32  38
ENDBRANCH  30  32
ENDBRANCH   1  28
TORSDOF 16
ENDMDL
MODEL 2
REMARK VINA RESULT: -8.748419956      2.570     11.950
REMARK  16 active torsions:
REMARK  status: ('A' for Active; 'I' for Inactive)
REMARK    1  A    between atoms: C2_2  and  C3_3 
REMARK    2  A    between atoms: C3_3  and  C5_5 
REMARK    3  A    between atoms: C5_5  and  N1_6 
REMARK    4  A    between atoms: C5_5  and  C20_28 
REMARK       I    between atoms: N1_6  and  C6_8 
REMARK    5  A    between atoms: C6_8  and  C7_10 
REMARK    6  A    between atoms: C7_10  and  N2_12 
REMARK       I    between atoms: N2_12  and  C9_14 
REMARK    7  A    between atoms: C9_14  and  C10_16 
REMARK    8  A    between atoms: C12_18  and  O3_19 
REMARK       I    between atoms: C20_28  and  N3_30 
REMARK    9  A    between atoms: N3_30  and  C21_32 
REMARK   10  A    between atoms: C21_32  and  C22_33 
REMARK   11  A    between atoms: C21_32  and  C27_38 
REMARK   12  A    between atoms: C22_33  and  C23_34 
REMARK   13  A    between atoms: C23_34  and  C24_35 
REMARK       I    between atoms: C27_38  and  N4_40 
REMARK   14  A    between atoms: N4_40  and  C28_41 
REMARK   15  A    between atoms: N4_40  and  C32_45 
REMARK   16  A    between atoms: C28_41  and  C29_42 
ROOT
HETATM    1  C5  UNL     1      -7.455  16.475  -1.820  1.00  0.00     0.180 C 
ENDROOT
BRANCH   1   2
HETATM    2  C3  UNL     1      -6.305  17.123  -1.054  1.00  0.00     0.013 C 
HETATM    3  C4  UNL     1      -6.809  18.226  -0.181  1.00  0.00     0.012 C 
BRANCH   2   4
HETATM    4  C2  UNL     1      -5.353  16.177  -0.426  1.00  0.00     0.002 C 
HETATM    5  C1  UNL     1      -4.167  16.764   0.256  1.00  0.00     0.005 C 
ENDBRANCH   2   4
ENDBRANCH   1   2
BRANCH   1   6
HETATM    6  N1  UNL     1      -7.969  15.313  -1.129  1.00  0.00    -0.346 N 
HETATM    7  C6  UNL     1      -9.249  15.197  -0.594  1.00  0.00     0.240 C 
HETATM    8  O1  UNL     1     -10.057  16.149  -0.678  1.00  0.00    -0.271 OA
ATOM      9  H1  UNL     1      -7.342  14.514  -1.025  1.00  0.00     0.163 HD
BRANCH   7  10
HETATM   10  C7  UNL     1      -9.673  13.956   0.075  1.00  0.00     0.172 C 
HETATM   11  C8  UNL     1     -10.943  13.392  -0.559  1.00  0.00     0.042 C 
BRANCH  10  12
HETATM   12  N2  UNL     1      -9.896  14.143   1.499  1.00  0.00    -0.348 N 
HETATM   13  C9  UNL     1      -8.828  14.479   2.348  1.00  0.00     0.222 C 
HETATM   14  O2  UNL     1      -7.659  14.612   1.879  1.00  0.00    -0.273 OA
ATOM     15  H2  UNL     1     -10.833  14.031   1.883  1.00  0.00     0.163 HD
BRANCH  13  16
HETATM   16  C10 UNL     1      -9.012  14.690   3.800  1.00  0.00     0.080 C 
HETATM   17  C11 UNL     1      -8.708  16.114   4.205  1.00  0.00     0.046 C 
HETATM   18  C12 UNL     1      -8.718  16.126   5.727  1.00  0.00     0.123 C 
HETATM   19  C13 UNL     1     -10.057  15.749   6.285  1.00  0.00     0.018 C 
HETATM   20  C14 UNL     1      -9.885  14.579   7.228  1.00  0.00     0.007 C 
HETATM   21  C18 UNL     1     -11.004  15.416   5.153  1.00  0.00    -0.007 C 
HETATM   22  C15 UNL     1     -11.252  14.290   7.830  1.00  0.00     0.000 C 
HETATM   23  C16 UNL     1     -12.163  13.849   6.722  1.00  0.00     0.000 C 
HETATM   24  C17 UNL     1     -12.340  14.930   5.678  1.00  0.00     0.005 C 
HETATM   25  C19 UNL     1     -10.451  14.401   4.198  1.00  0.00     0.019 C 
BRANCH  18  26
HETATM   26  O3  UNL     1      -8.277  17.376   6.195  1.00  0.00    -0.395 OA
ATOM     27  H3  UNL     1      -9.007  17.852   6.572  1.00  0.00     0.210 HD
ENDBRANCH  18  26
ENDBRANCH  13  16
ENDBRANCH  10  12
ENDBRANCH   7  10
ENDBRANCH   1   6
BRANCH   1  28
HETATM   28  C20 UNL     1      -7.107  16.215  -3.213  1.00  0.00     0.241 C 
HETATM   29  O4  UNL     1      -7.109  15.006  -3.596  1.00  0.00    -0.271 OA
HETATM   30  N3  UNL     1      -6.767  17.178  -4.187  1.00  0.00    -0.346 N 
ATOM     31  H3  UNL     1      -6.760  18.165  -3.929  1.00  0.00     0.163 HD
BRANCH  30  32
HETATM   32  C21 UNL     1      -6.423  16.795  -5.566  1.00  0.00     0.177 C 
BRANCH  32  33
HETATM   33  C22 UNL     1      -7.626  17.143  -6.448  1.00  0.00     0.035 C 
BRANCH  33  34
HETATM   34  C23 UNL     1      -8.016  15.956  -7.305  1.00  0.00     0.006 C 
BRANCH  34  35
HETATM   35  C24 UNL     1      -9.524  15.777  -7.194  1.00  0.00    -0.023 C 
HETATM   36  C25 UNL     1      -9.898  15.399  -5.779  1.00  0.00     0.009 C 
HETATM   37  C26 UNL     1      -9.992  14.671  -8.116  1.00  0.00     0.009 C 
ENDBRANCH  34  35
ENDBRANCH  33  34
ENDBRANCH  32  33
BRANCH  32  38
HETATM   38  C27 UNL     1      -5.203  17.491  -5.923  1.00  0.00     0.246 C 
HETATM   39  O5  UNL     1      -4.941  18.624  -5.363  1.00  0.00    -0.271 OA
HETATM   40  N4  UNL     1      -4.195  17.059  -6.869  1.00  0.00    -0.325 N 
BRANCH  40  41
HETATM   41  C28 UNL     1      -3.150  17.985  -7.113  1.00  0.00     0.071 C 
BRANCH  41  42
HETATM   42  C29 UNL     1      -1.878  17.956  -6.400  1.00  0.00     0.016 C 
HETATM   43  C30 UNL     1      -1.652  17.059  -5.256  1.00  0.00     0.015 C 
HETATM   44  C31 UNL     1      -0.795  17.588  -7.453  1.00  0.00     0.015 C 
ENDBRANCH  41  42
ENDBRANCH  40  41
BRANCH  40  45
HETATM   45  C32 UNL     1      -4.400  15.795  -7.519  1.00  0.00     0.092 C 
HETATM   46  C33 UNL     1      -4.963  15.952  -8.892  1.00  0.00     0.026 C 
HETATM   47  C34 UNL     1      -4.285  14.921  -9.740  1.00  0.00     0.002 C 
HETATM   48  C35 UNL     1      -2.876  14.873  -9.121  1.00  0.00     0.002 C 
HETATM   49  C36 UNL     1      -3.253  14.864  -7.627  1.00  0.00     0.026 C 
ENDBRANCH  40  45
ENDBRANCH  32  38
ENDBRANCH  30  32
ENDBRANCH   1  28
TORSDOF 16
ENDMDL
MODEL 3
REMARK VINA RESULT: -8.707179204      2.803     10.740
REMARK  16 active torsions:
REMARK  status: ('A' for Active; 'I' for Inactive)
REMARK    1  A    between atoms: C2_2  and  C3_3 
REMARK    2  A    between atoms: C3_3  and  C5_5 
REMARK    3  A    between atoms: C5_5  and  N1_6 
REMARK    4  A    between atoms: C5_5  and  C20_28 
REMARK       I    between atoms: N1_6  and  C6_8 
REMARK    5  A    between atoms: C6_8  and  C7_10 
REMARK    6  A    between atoms: C7_10  and  N2_12 
REMARK       I    between atoms: N2_12  and  C9_14 
REMARK    7  A    between atoms: C9_14  and  C10_16 
REMARK    8  A    between atoms: C12_18  and  O3_19 
REMARK       I    between atoms: C20_28  and  N3_30 
REMARK    9  A    between atoms: N3_30  and  C21_32 
REMARK   10  A    between atoms: C21_32  and  C22_33 
REMARK   11  A    between atoms: C21_32  and  C27_38 
REMARK   12  A    between atoms: C22_33  and  C23_34 
REMARK   13  A    between atoms: C23_34  and  C24_35 
REMARK       I    between atoms: C27_38  and  N4_40 
REMARK   14  A    between atoms: N4_40  and  C28_41 
REMARK   15  A    between atoms: N4_40  and  C32_45 
REMARK   16  A    between atoms: C28_41  and  C29_42 
ROOT
HETATM    1  C5  UNL     1      -9.727  15.483   5.437  1.00  0.00     0.180 C 
ENDROOT
BRANCH   1   2
HETATM    2  C3  UNL     1      -8.416  15.948   6.067  1.00  0.00     0.013 C 
HETATM    3  C4  UNL     1      -7.867  17.126   5.331  1.00  0.00     0.012 C 
BRANCH   2   4
HETATM    4  C2  UNL     1      -8.427  16.048   7.545  1.00  0.00     0.002 C 
HETATM    5  C1  UNL     1      -7.192  15.624   8.261  1.00  0.00     0.005 C 
ENDBRANCH   2   4
ENDBRANCH   1   2
BRANCH   1   6
HETATM    6  N1  UNL     1     -10.340  14.423   6.205  1.00  0.00    -0.346 N 
HETATM    7  C6  UNL     1     -11.711  14.243   6.374  1.00  0.00     0.240 C 
HETATM    8  O1  UNL     1     -12.521  15.041   5.852  1.00  0.00    -0.271 OA
ATOM      9  H1  UNL     1      -9.720  13.753   6.659  1.00  0.00     0.163 HD
BRANCH   7  10
HETATM   10  C7  UNL     1     -12.228  13.114   7.164  1.00  0.00     0.172 C 
HETATM   11  C8  UNL     1     -11.166  12.578   8.123  1.00  0.00     0.042 C 
BRANCH  10  12
HETATM   12  N2  UNL     1     -12.706  12.026   6.328  1.00  0.00    -0.348 N 
HETATM   13  C9  UNL     1     -13.843  11.290   6.698  1.00  0.00     0.222 C 
HETATM   14  O2  UNL     1     -14.458  11.564   7.772  1.00  0.00    -0.273 OA
ATOM     15  H2  UNL     1     -12.212  11.796   5.465  1.00  0.00     0.163 HD
BRANCH  13  16
HETATM   16  C10 UNL     1     -14.371  10.184   5.871  1.00  0.00     0.080 C 
HETATM   17  C11 UNL     1     -15.085  10.692   4.639  1.00  0.00     0.046 C 
HETATM   18  C12 UNL     1     -15.758   9.477   4.017  1.00  0.00     0.123 C 
HETATM   19  C13 UNL     1     -14.765   8.437   3.594  1.00  0.00     0.018 C 
HETATM   20  C14 UNL     1     -15.118   7.124   4.257  1.00  0.00     0.007 C 
HETATM   21  C18 UNL     1     -13.369   8.888   3.962  1.00  0.00    -0.007 C 
HETATM   22  C15 UNL     1     -14.136   6.085   3.733  1.00  0.00     0.000 C 
HETATM   23  C16 UNL     1     -12.761   6.472   4.195  1.00  0.00     0.000 C 
HETATM   24  C17 UNL     1     -12.344   7.818   3.645  1.00  0.00     0.005 C 
HETATM   25  C19 UNL     1     -13.236   9.288   5.401  1.00  0.00     0.019 C 
BRANCH  18  26
HETATM   26  O3  UNL     1     -16.587   9.885   2.957  1.00  0.00    -0.395 OA
ATOM     27  H3  UNL     1     -17.013   9.128   2.574  1.00  0.00     0.210 HD
ENDBRANCH  18  26
ENDBRANCH  13  16
ENDBRANCH  10  12
ENDBRANCH   7  10
ENDBRANCH   1   6
BRANCH   1  28
HETATM   28  C20 UNL     1      -9.570  15.160   4.023  1.00  0.00     0.241 C 
HETATM   29  O4  UNL     1      -8.850  14.157   3.733  1.00  0.00    -0.271 OA
HETATM   30  N3  UNL     1     -10.143  15.853   2.935  1.00  0.00    -0.346 N 
ATOM     31  H3  UNL     1     -10.737  16.662   3.119  1.00  0.00     0.163 HD
BRANCH  30  32
HETATM   32  C21 UNL     1      -9.906  15.438   1.543  1.00  0.00     0.177 C 
BRANCH  32  33
HETATM   33  C22 UNL     1     -11.261  15.448   0.829  1.00  0.00     0.035 C 
BRANCH  33  34
HETATM   34  C23 UNL     1     -11.806  14.039   0.707  1.00  0.00     0.006 C 
BRANCH  34  35
HETATM   35  C24 UNL     1     -12.884  13.864   1.767  1.00  0.00    -0.023 C 
HETATM   36  C25 UNL     1     -12.433  12.859   2.803  1.00  0.00     0.009 C 
HETATM   37  C26 UNL     1     -14.162  13.350   1.139  1.00  0.00     0.009 C 
ENDBRANCH  34  35
ENDBRANCH  33  34
ENDBRANCH  32  33
BRANCH  32  38
HETATM   38  C27 UNL     1      -8.928  16.345   0.975  1.00  0.00     0.246 C 
HETATM   39  O5  UNL     1      -8.307  17.166   1.756  1.00  0.00    -0.271 OA
HETATM   40  N4  UNL     1      -8.540  16.453  -0.416  1.00  0.00    -0.325 N 
BRANCH  40  41
HETATM   41  C28 UNL     1      -7.636  17.503  -0.717  1.00  0.00     0.071 C 
BRANCH  41  42
HETATM   42  C29 UNL     1      -6.196  17.303  -0.837  1.00  0.00     0.016 C 
HETATM   43  C30 UNL     1      -5.541  16.078  -0.353  1.00  0.00     0.015 C 
HETATM   44  C31 UNL     1      -5.867  17.393  -2.354  1.00  0.00     0.015 C 
ENDBRANCH  41  42
ENDBRANCH  40  41
BRANCH  40  45
HETATM   45  C32 UNL     1      -9.167  15.558  -1.346  1.00  0.00     0.092 C 
HETATM   46  C33 UNL     1      -9.558  16.244  -2.612  1.00  0.00     0.026 C 
HETATM   47  C34 UNL     1      -9.270  15.274  -3.717  1.00  0.00     0.002 C 
HETATM   48  C35 UNL     1      -8.015  14.553  -3.191  1.00  0.00     0.002 C 
HETATM   49  C36 UNL     1      -8.447  14.322  -1.730  1.00  0.00     0.026 C 
ENDBRANCH  40  45
ENDBRANCH  32  38
ENDBRANCH  30  32
ENDBRANCH   1  28
TORSDOF 16
ENDMDL
MODEL 4
REMARK VINA RESULT: -8.699642766      2.548      5.618
REMARK  16 active torsions:
REMARK  status: ('A' for Active; 'I' for Inactive)
REMARK    1  A    between atoms: C2_2  and  C3_3 
REMARK    2  A    between atoms: C3_3  and  C5_5 
REMARK    3  A    between atoms: C5_5  and  N1_6 
REMARK    4  A    between atoms: C5_5  and  C20_28 
REMARK       I    between atoms: N1_6  and  C6_8 
REMARK    5  A    between atoms: C6_8  and  C7_10 
REMARK    6  A    between atoms: C7_10  and  N2_12 
REMARK       I    between atoms: N2_12  and  C9_14 
REMARK    7  A    between atoms: C9_14  and  C10_16 
REMARK    8  A    between atoms: C12_18  and  O3_19 
REMARK       I    between atoms: C20_28  and  N3_30 
REMARK    9  A    between atoms: N3_30  and  C21_32 
REMARK   10  A    between atoms: C21_32  and  C22_33 
REMARK   11  A    between atoms: C21_32  and  C27_38 
REMARK   12  A    between atoms: C22_33  and  C23_34 
REMARK   13  A    between atoms: C23_34  and  C24_35 
REMARK       I    between atoms: C27_38  and  N4_40 
REMARK   14  A    between atoms: N4_40  and  C28_41 
REMARK   15  A    between atoms: N4_40  and  C32_45 
REMARK   16  A    between atoms: C28_41  and  C29_42 
ROOT
HETATM    1  C5  UNL     1     -10.618  14.012   3.555  1.00  0.00     0.180 C 
ENDROOT
BRANCH   1   2
HETATM    2  C3  UNL     1      -9.448  14.491   4.411  1.00  0.00     0.013 C 
HETATM    3  C4  UNL     1      -8.311  13.526   4.336  1.00  0.00     0.012 C 
BRANCH   2   4
HETATM    4  C2  UNL     1      -9.101  15.923   4.260  1.00  0.00     0.002 C 
HETATM    5  C1  UNL     1      -8.253  16.530   5.323  1.00  0.00     0.005 C 
ENDBRANCH   2   4
ENDBRANCH   1   2
BRANCH   1   6
HETATM    6  N1  UNL     1     -10.976  14.987   2.549  1.00  0.00    -0.346 N 
HETATM    7  C6  UNL     1     -10.915  14.779   1.173  1.00  0.00     0.240 C 
HETATM    8  O1  UNL     1     -10.514  13.686   0.716  1.00  0.00    -0.271 OA
ATOM      9  H1  UNL     1     -11.299  15.898   2.872  1.00  0.00     0.163 HD
BRANCH   7  10
HETATM   10  C7  UNL     1     -11.323  15.839   0.236  1.00  0.00     0.172 C 
HETATM   11  C8  UNL     1     -12.811  15.740  -0.097  1.00  0.00     0.042 C 
BRANCH  10  12
HETATM   12  N2  UNL     1     -10.557  15.811  -0.998  1.00  0.00    -0.348 N 
HETATM   13  C9  UNL     1      -9.707  16.879  -1.333  1.00  0.00     0.222 C 
HETATM   14  O2  UNL     1      -9.610  17.880  -0.564  1.00  0.00    -0.273 OA
ATOM     15  H2  UNL     1     -10.636  15.011  -1.625  1.00  0.00     0.163 HD
BRANCH  13  16
HETATM   16  C10 UNL     1      -8.901  16.886  -2.572  1.00  0.00     0.080 C 
HETATM   17  C11 UNL     1      -7.563  16.208  -2.378  1.00  0.00     0.046 C 
HETATM   18  C12 UNL     1      -6.767  16.488  -3.645  1.00  0.00     0.123 C 
HETATM   19  C13 UNL     1      -7.421  15.908  -4.862  1.00  0.00     0.018 C 
HETATM   20  C14 UNL     1      -7.637  17.009  -5.876  1.00  0.00     0.007 C 
HETATM   21  C18 UNL     1      -8.725  15.247  -4.472  1.00  0.00    -0.007 C 
HETATM   22  C15 UNL     1      -8.223  16.357  -7.120  1.00  0.00     0.000 C 
HETATM   23  C16 UNL     1      -9.570  15.801  -6.761  1.00  0.00     0.000 C 
HETATM   24  C17 UNL     1      -9.469  14.737  -5.690  1.00  0.00     0.005 C 
HETATM   25  C19 UNL     1      -9.630  16.144  -3.682  1.00  0.00     0.019 C 
BRANCH  18  26
HETATM   26  O3  UNL     1      -5.445  16.038  -3.483  1.00  0.00    -0.395 OA
ATOM     27  H3  UNL     1      -5.215  15.456  -4.197  1.00  0.00     0.210 HD
ENDBRANCH  18  26
ENDBRANCH  13  16
ENDBRANCH  10  12
ENDBRANCH   7  10
ENDBRANCH   1   6
BRANCH   1  28
HETATM   28  C20 UNL     1     -11.748  13.576   4.369  1.00  0.00     0.241 C 
HETATM   29  O4  UNL     1     -12.053  14.291   5.371  1.00  0.00    -0.271 OA
HETATM   30  N3  UNL     1     -12.546  12.432   4.152  1.00  0.00    -0.346 N 
ATOM     31  H3  UNL     1     -12.344  11.829   3.354  1.00  0.00     0.163 HD
BRANCH  30  32
HETATM   32  C21 UNL     1     -13.660  12.085   5.049  1.00  0.00     0.177 C 
BRANCH  32  33
HETATM   33  C22 UNL     1     -14.954  12.221   4.241  1.00  0.00     0.035 C 
BRANCH  33  34
HETATM   34  C23 UNL     1     -14.738  13.123   3.043  1.00  0.00     0.006 C 
BRANCH  34  35
HETATM   35  C24 UNL     1     -15.146  12.350   1.797  1.00  0.00    -0.023 C 
HETATM   36  C25 UNL     1     -15.519  10.932   2.166  1.00  0.00     0.009 C 
HETATM   37  C26 UNL     1     -13.999  12.293   0.811  1.00  0.00     0.009 C 
ENDBRANCH  34  35
ENDBRANCH  33  34
ENDBRANCH  32  33
BRANCH  32  38
HETATM   38  C27 UNL     1     -13.415  10.750   5.558  1.00  0.00     0.246 C 
HETATM   39  O5  UNL     1     -13.644   9.736   4.792  1.00  0.00    -0.271 OA
HETATM   40  N4  UNL     1     -12.924  10.392   6.873  1.00  0.00    -0.325 N 
BRANCH  40  41
HETATM   41  C28 UNL     1     -12.879   9.002   7.149  1.00  0.00     0.071 C 
BRANCH  41  42
HETATM   42  C29 UNL     1     -11.635   8.278   7.386  1.00  0.00     0.016 C 
HETATM   43  C30 UNL     1     -11.239   7.837   8.733  1.00  0.00     0.015 C 
HETATM   44  C31 UNL     1     -11.707   6.990   6.519  1.00  0.00     0.015 C 
ENDBRANCH  41  42
ENDBRANCH  40  41
BRANCH  40  45
HETATM   45  C32 UNL     1     -12.622  11.464   7.778  1.00  0.00     0.092 C 
HETATM   46  C33 UNL     1     -13.080  11.174   9.168  1.00  0.00     0.026 C 
HETATM   47  C34 UNL     1     -12.015  11.706  10.077  1.00  0.00     0.002 C 
HETATM   48  C35 UNL     1     -10.737  11.450   9.257  1.00  0.00     0.002 C 
HETATM   49  C36 UNL     1     -11.220  11.931   7.874  1.00  0.00     0.026 C 
ENDBRANCH  40  45
ENDBRANCH  32  38
ENDBRANCH  30  32
ENDBRANCH   1  28
TORSDOF 16
ENDMDL
MODEL 5
REMARK VINA RESULT: -8.696192278      2.825     11.517
REMARK  16 active torsions:
REMARK  status: ('A' for Active; 'I' for Inactive)
REMARK    1  A    between atoms: C2_2  and  C3_3 
REMARK    2  A    between atoms: C3_3  and  C5_5 
REMARK    3  A    between atoms: C5_5  and  N1_6 
REMARK    4  A    between atoms: C5_5  and  C20_28 
REMARK       I    between atoms: N1_6  and  C6_8 
REMARK    5  A    between atoms: C6_8  and  C7_10 
REMARK    6  A    between atoms: C7_10  and  N2_12 
REMARK       I    between atoms: N2_12  and  C9_14 
REMARK    7  A    between atoms: C9_14  and  C10_16 
REMARK    8  A    between atoms: C12_18  and  O3_19 
REMARK       I    between atoms: C20_28  and  N3_30 
REMARK    9  A    between atoms: N3_30  and  C21_32 
REMARK   10  A    between atoms: C21_32  and  C22_33 
REMARK   11  A    between atoms: C21_32  and  C27_38 
REMARK   12  A    between atoms: C22_33  and  C23_34 
REMARK   13  A    between atoms: C23_34  and  C24_35 
REMARK       I    between atoms: C27_38  and  N4_40 
REMARK   14  A    between atoms: N4_40  and  C28_41 
REMARK   15  A    between atoms: N4_40  and  C32_45 
REMARK   16  A    between atoms: C28_41  and  C29_42 
ROOT
HETATM    1  C5  UNL     1      -8.371  15.514  -3.379  1.00  0.00     0.180 C 
ENDROOT
BRANCH   1   2
HETATM    2  C3  UNL     1      -9.671  15.284  -4.145  1.00  0.00     0.013 C 
HETATM    3  C4  UNL     1     -10.848  15.684  -3.317  1.00  0.00     0.012 C 
BRANCH   2   4
HETATM    4  C2  UNL     1      -9.668  15.757  -5.549  1.00  0.00     0.002 C 
HETATM    5  C1  UNL     1      -9.879  14.733  -6.609  1.00  0.00     0.005 C 
ENDBRANCH   2   4
ENDBRANCH   1   2
BRANCH   1   6
HETATM    6  N1  UNL     1      -8.539  16.491  -2.326  1.00  0.00    -0.346 N 
HETATM    7  C6  UNL     1      -7.692  16.646  -1.231  1.00  0.00     0.240 C 
HETATM    8  O1  UNL     1      -6.698  15.898  -1.092  1.00  0.00    -0.271 OA
ATOM      9  H1  UNL     1      -9.342  17.116  -2.390  1.00  0.00     0.163 HD
BRANCH   7  10
HETATM   10  C7  UNL     1      -7.949  17.689  -0.225  1.00  0.00     0.172 C 
HETATM   11  C8  UNL     1      -6.730  18.590  -0.039  1.00  0.00     0.042 C 
BRANCH  10  12
HETATM   12  N2  UNL     1      -8.331  17.134   1.062  1.00  0.00    -0.348 N 
HETATM   13  C9  UNL     1      -9.648  16.700   1.288  1.00  0.00     0.222 C 
HETATM   14  O2  UNL     1     -10.516  16.797   0.371  1.00  0.00    -0.273 OA
ATOM     15  H2  UNL     1      -7.638  17.058   1.807  1.00  0.00     0.163 HD
BRANCH  13  16
HETATM   16  C10 UNL     1     -10.076  16.118   2.578  1.00  0.00     0.080 C 
HETATM   17  C11 UNL     1     -10.226  14.616   2.497  1.00  0.00     0.046 C 
HETATM   18  C12 UNL     1     -10.879  14.191   3.805  1.00  0.00     0.123 C 
HETATM   19  C13 UNL     1     -10.026  14.519   4.993  1.00  0.00     0.018 C 
HETATM   20  C14 UNL     1     -10.829  15.368   5.954  1.00  0.00     0.007 C 
HETATM   21  C18 UNL     1      -8.771  15.231   4.537  1.00  0.00    -0.007 C 
HETATM   22  C15 UNL     1      -9.952  15.602   7.176  1.00  0.00     0.000 C 
HETATM   23  C16 UNL     1      -8.762  16.409   6.745  1.00  0.00     0.000 C 
HETATM   24  C17 UNL     1      -7.930  15.673   5.717  1.00  0.00     0.005 C 
HETATM   25  C19 UNL     1      -9.048  16.414   3.659  1.00  0.00     0.019 C 
BRANCH  18  26
HETATM   26  O3  UNL     1     -11.211  12.826   3.747  1.00  0.00    -0.395 OA
ATOM     27  H3  UNL     1     -12.031  12.716   3.280  1.00  0.00     0.210 HD
ENDBRANCH  18  26
ENDBRANCH  13  16
ENDBRANCH  10  12
ENDBRANCH   7  10
ENDBRANCH   1   6
BRANCH   1  28
HETATM   28  C20 UNL     1      -7.254  15.810  -4.272  1.00  0.00     0.241 C 
HETATM   29  O4  UNL     1      -6.627  14.822  -4.762  1.00  0.00    -0.271 OA
HETATM   30  N3  UNL     1      -6.798  17.090  -4.650  1.00  0.00    -0.346 N 
ATOM     31  H3  UNL     1      -7.276  17.915  -4.287  1.00  0.00     0.163 HD
BRANCH  30  32
HETATM   32  C21 UNL     1      -5.650  17.266  -5.554  1.00  0.00     0.177 C 
BRANCH  32  33
HETATM   33  C22 UNL     1      -6.211  17.525  -6.956  1.00  0.00     0.035 C 
BRANCH  33  34
HETATM   34  C23 UNL     1      -6.106  16.277  -7.808  1.00  0.00     0.006 C 
BRANCH  34  35
HETATM   35  C24 UNL     1      -4.654  16.128  -8.239  1.00  0.00    -0.023 C 
HETATM   36  C25 UNL     1      -4.220  17.343  -9.026  1.00  0.00     0.009 C 
HETATM   37  C26 UNL     1      -4.488  14.911  -9.124  1.00  0.00     0.009 C 
ENDBRANCH  34  35
ENDBRANCH  33  34
ENDBRANCH  32  33
BRANCH  32  38
HETATM   38  C27 UNL     1      -4.840  18.347  -5.030  1.00  0.00     0.246 C 
HETATM   39  O5  UNL     1      -5.405  19.473  -4.745  1.00  0.00    -0.271 OA
HETATM   40  N4  UNL     1      -3.415  18.325  -4.771  1.00  0.00    -0.325 N 
BRANCH  40  41
HETATM   41  C28 UNL     1      -2.850  19.559  -4.359  1.00  0.00     0.071 C 
BRANCH  41  42
HETATM   42  C29 UNL     1      -2.637  19.909  -2.959  1.00  0.00     0.016 C 
HETATM   43  C30 UNL     1      -3.294  19.172  -1.868  1.00  0.00     0.015 C 
HETATM   44  C31 UNL     1      -1.110  19.778  -2.704  1.00  0.00     0.015 C 
ENDBRANCH  41  42
ENDBRANCH  40  41
BRANCH  40  45
HETATM   45  C32 UNL     1      -2.715  17.100  -5.038  1.00  0.00     0.092 C 
HETATM   46  C33 UNL     1      -1.724  17.247  -6.144  1.00  0.00     0.026 C 
HETATM   47  C34 UNL     1      -0.527  16.442  -5.740  1.00  0.00     0.002 C 
HETATM   48  C35 UNL     1      -0.516  16.629  -4.212  1.00  0.00     0.002 C 
HETATM   49  C36 UNL     1      -2.016  16.429  -3.919  1.00  0.00     0.026 C 
ENDBRANCH  40  45
ENDBRANCH  32  38
ENDBRANCH  30  32
ENDBRANCH   1  28
TORSDOF 16
ENDMDL
