MODEL 1
REMARK VINA RESULT: -9.333564582      0.000      0.000
REMARK  15 active torsions:
REMARK  status: ('A' for Active; 'I' for Inactive)
REMARK    1  A    between atoms: C2_2  and  C3_3 
REMARK    2  A    between atoms: C3_3  and  C4_4 
REMARK    3  A    between atoms: C4_4  and  C5_5 
REMARK    4  A    between atoms: C5_5  and  N1_6 
REMARK    5  A    between atoms: C5_5  and  C20_23 
REMARK       I    between atoms: N1_6  and  C6_7 
REMARK    6  A    between atoms: C6_7  and  C7_9 
REMARK    7  A    between atoms: N2_13  and  C11_14 
REMARK    8  A    between atoms: C11_14  and  C12_15 
REMARK    9  A    between atoms: C12_15  and  C13_16 
REMARK   10  A    between atoms: C20_23  and  C21_25 
REMARK   11  A    between atoms: C21_25  and  N3_26 
REMARK       I    between atoms: N3_26  and  C22_28 
REMARK   12  A    between atoms: C22_28  and  C23_30 
REMARK   13  A    between atoms: C23_30  and  N4_31 
REMARK   14  A    between atoms: C23_30  and  C35_47 
REMARK       I    between atoms: N4_31  and  C24_33 
REMARK       I    between atoms: C24_33  and  N5_35 
REMARK   15  A    between atoms: N5_35  and  C25_37 
ROOT
HETATM    1  C21 UNL     1      -7.259  16.186   2.111  1.00  0.00     0.149 C 
ENDROOT
BRANCH   1   2
HETATM    2  C20 UNL     1      -7.233  15.566   0.802  1.00  0.00     0.223 C 
HETATM    3  O2  UNL     1      -7.328  14.406   0.542  1.00  0.00    -0.284 OA
BRANCH   2   4
HETATM    4  C5  UNL     1      -7.076  16.505  -0.444  1.00  0.00     0.140 C 
BRANCH   4   5
HETATM    5  C4  UNL     1      -7.951  17.704  -0.160  1.00  0.00     0.081 C 
BRANCH   5   6
HETATM    6  C3  UNL     1      -9.336  17.573  -0.713  1.00  0.00     0.033 C 
BRANCH   6   7
HETATM    7  C2  UNL     1     -10.234  17.001   0.337  1.00  0.00    -0.037 C 
HETATM    8  C1  UNL     1     -10.868  15.887   0.111  1.00  0.00     0.007 C 
ENDBRANCH   6   7
ENDBRANCH   5   6
ENDBRANCH   4   5
BRANCH   4   9
HETATM    9  N1  UNL     1      -6.052  16.522  -1.206  1.00  0.00    -0.369 NA
HETATM   10  C6  UNL     1      -4.864  16.540  -2.081  1.00  0.00     0.325 C 
HETATM   11  O1  UNL     1      -3.824  16.036  -1.774  1.00  0.00    -0.255 OA
BRANCH  10  12
HETATM   12  C7  UNL     1      -4.993  17.230  -3.356  1.00  0.00     0.329 C 
HETATM   13  C8  UNL     1      -5.460  18.672  -3.314  1.00  0.00     0.049 C 
HETATM   14  C9  UNL     1      -5.372  18.949  -4.831  1.00  0.00     0.033 C 
HETATM   15  C10 UNL     1      -5.269  17.595  -5.480  1.00  0.00     0.273 C 
HETATM   16  N2  UNL     1      -5.886  16.748  -4.348  1.00  0.00     0.104 N 
BRANCH  16  17
HETATM   17  C11 UNL     1      -7.220  17.226  -4.427  1.00  0.00     0.283 C 
BRANCH  17  18
HETATM   18  C12 UNL     1      -8.203  16.065  -4.582  1.00  0.00    -0.010 A 
HETATM   19  C18 UNL     1      -9.183  15.882  -3.400  1.00  0.00     0.012 A 
HETATM   20  C19 UNL     1      -8.212  14.843  -3.812  1.00  0.00     0.012 A 
BRANCH  18  21
HETATM   21  C13 UNL     1      -8.926  15.993  -5.937  1.00  0.00    -0.004 C 
HETATM   22  C14 UNL     1      -9.690  14.696  -6.092  1.00  0.00     0.005 C 
HETATM   23  C15 UNL     1     -10.020  14.712  -7.575  1.00  0.00     0.000 C 
HETATM   24  C16 UNL     1      -8.950  15.593  -8.247  1.00  0.00     0.000 C 
HETATM   25  C17 UNL     1      -7.955  15.908  -7.107  1.00  0.00     0.005 C 
ENDBRANCH  18  21
ENDBRANCH  17  18
ENDBRANCH  16  17
ENDBRANCH  10  12
ENDBRANCH   4   9
ENDBRANCH   2   4
ENDBRANCH   1   2
BRANCH   1  26
HETATM   26  N3  UNL     1      -7.955  15.649   3.203  1.00  0.00    -0.331 N 
HETATM   27  C22 UNL     1      -8.347  16.068   4.481  1.00  0.00     0.244 C 
HETATM   28  O3  UNL     1      -7.994  17.166   4.969  1.00  0.00    -0.271 OA
ATOM     29  H3  UNL     1      -8.258  14.693   3.016  1.00  0.00     0.168 HD
BRANCH  27  30
HETATM   30  C23 UNL     1      -9.225  15.173   5.275  1.00  0.00     0.182 C 
BRANCH  30  31
HETATM   31  N4  UNL     1     -10.396  14.647   4.820  1.00  0.00    -0.329 N 
HETATM   32  C24 UNL     1     -11.033  13.947   3.760  1.00  0.00     0.317 C 
HETATM   33  O4  UNL     1     -10.455  13.727   2.695  1.00  0.00    -0.247 OA
HETATM   34  N5  UNL     1     -12.379  13.501   4.048  1.00  0.00    -0.334 N 
ATOM     35  H5  UNL     1     -12.706  13.786   4.972  1.00  0.00     0.165 HD
ATOM     36  H4  UNL     1     -11.105  14.831   5.530  1.00  0.00     0.165 HD
BRANCH  34  37
HETATM   37  C25 UNL     1     -13.338  12.757   3.326  1.00  0.00     0.035 C 
HETATM   38  C26 UNL     1     -12.982  11.430   2.797  1.00  0.00     0.035 C 
HETATM   39  C27 UNL     1     -14.087  10.913   1.897  1.00  0.00    -0.012 C 
HETATM   40  C28 UNL     1     -14.434  11.836   0.767  1.00  0.00     0.009 C 
HETATM   41  C32 UNL     1     -15.375  10.723   2.685  1.00  0.00     0.009 C 
HETATM   42  C29 UNL     1     -14.851  13.184   1.359  1.00  0.00    -0.012 C 
HETATM   43  C30 UNL     1     -16.097  13.013   2.223  1.00  0.00     0.009 C 
HETATM   44  C34 UNL     1     -13.774  13.742   2.168  1.00  0.00     0.035 C 
HETATM   45  C31 UNL     1     -15.748  12.051   3.313  1.00  0.00    -0.012 C 
HETATM   46  C33 UNL     1     -14.615  12.583   4.153  1.00  0.00     0.035 C 
ENDBRANCH  34  37
ENDBRANCH  30  31
BRANCH  30  47
HETATM   47  C35 UNL     1      -9.520  15.762   6.672  1.00  0.00     0.009 C 
HETATM   48  C36 UNL     1      -8.246  15.836   7.463  1.00  0.00     0.012 C 
HETATM   49  C37 UNL     1     -10.739  15.469   7.368  1.00  0.00     0.012 C 
ENDBRANCH  30  47
ENDBRANCH  27  30
ENDBRANCH   1  26
TORSDOF 15
ENDMDL
MODEL 2
REMARK VINA RESULT: -9.239953338      2.207     10.671
REMARK  15 active torsions:
REMARK  status: ('A' for Active; 'I' for Inactive)
REMARK    1  A    between atoms: C2_2  and  C3_3 
REMARK    2  A    between atoms: C3_3  and  C4_4 
REMARK    3  A    between atoms: C4_4  and  C5_5 
REMARK    4  A    between atoms: C5_5  and  N1_6 
REMARK    5  A    between atoms: C5_5  and  C20_23 
REMARK       I    between atoms: N1_6  and  C6_7 
REMARK    6  A    between atoms: C6_7  and  C7_9 
REMARK    7  A    between atoms: N2_13  and  C11_14 
REMARK    8  A    between atoms: C11_14  and  C12_15 
REMARK    9  A    between atoms: C12_15  and  C13_16 
REMARK   10  A    between atoms: C20_23  and  C21_25 
REMARK   11  A    between atoms: C21_25  and  N3_26 
REMARK       I    between atoms: N3_26  and  C22_28 
REMARK   12  A    between atoms: C22_28  and  C23_30 
REMARK   13  A    between atoms: C23_30  and  N4_31 
REMARK   14  A    between atoms: C23_30  and  C35_47 
REMARK       I    between atoms: N4_31  and  C24_33 
REMARK       I    between atoms: C24_33  and  N5_35 
REMARK   15  A    between atoms: N5_35  and  C25_37 
ROOT
HETATM    1  C21 UNL     1      -8.869  14.912  -1.019  1.00  0.00     0.149 C 
ENDROOT
BRANCH   1   2
HETATM    2  C20 UNL     1      -7.965  14.493   0.032  1.00  0.00     0.223 C 
HETATM    3  O2  UNL     1      -7.559  13.393   0.248  1.00  0.00    -0.284 OA
BRANCH   2   4
HETATM    4  C5  UNL     1      -7.425  15.594   1.010  1.00  0.00     0.140 C 
BRANCH   4   5
HETATM    5  C4  UNL     1      -6.634  16.549   0.147  1.00  0.00     0.081 C 
BRANCH   5   6
HETATM    6  C3  UNL     1      -5.169  16.245   0.113  1.00  0.00     0.033 C 
BRANCH   6   7
HETATM    7  C2  UNL     1      -4.407  17.513  -0.106  1.00  0.00    -0.037 C 
HETATM    8  C1  UNL     1      -3.214  17.649   0.398  1.00  0.00     0.007 C 
ENDBRANCH   6   7
ENDBRANCH   5   6
ENDBRANCH   4   5
BRANCH   4   9
HETATM    9  N1  UNL     1      -7.985  15.911   2.112  1.00  0.00    -0.369 NA
HETATM   10  C6  UNL     1      -8.627  16.282   3.388  1.00  0.00     0.325 C 
HETATM   11  O1  UNL     1      -8.296  17.237   4.028  1.00  0.00    -0.255 OA
BRANCH  10  12
HETATM   12  C7  UNL     1      -9.690  15.412   3.871  1.00  0.00     0.329 C 
HETATM   13  C8  UNL     1      -9.309  13.983   4.206  1.00  0.00     0.049 C 
HETATM   14  C9  UNL     1     -10.697  13.525   4.706  1.00  0.00     0.033 C 
HETATM   15  C10 UNL     1     -11.662  14.573   4.223  1.00  0.00     0.273 C 
HETATM   16  N2  UNL     1     -10.823  15.143   3.061  1.00  0.00     0.104 N 
BRANCH  16  17
HETATM   17  C11 UNL     1     -10.858  14.015   2.200  1.00  0.00     0.283 C 
BRANCH  17  18
HETATM   18  C12 UNL     1     -12.058  14.094   1.254  1.00  0.00    -0.010 A 
HETATM   19  C18 UNL     1     -11.709  14.459  -0.207  1.00  0.00     0.012 A 
HETATM   20  C19 UNL     1     -12.590  15.290   0.644  1.00  0.00     0.012 A 
BRANCH  18  21
HETATM   21  C13 UNL     1     -13.030  12.905   1.327  1.00  0.00    -0.004 C 
HETATM   22  C14 UNL     1     -14.261  13.242   2.141  1.00  0.00     0.005 C 
HETATM   23  C15 UNL     1     -14.876  11.868   2.345  1.00  0.00     0.000 C 
HETATM   24  C16 UNL     1     -13.723  10.854   2.231  1.00  0.00     0.000 C 
HETATM   25  C17 UNL     1     -12.458  11.737   2.122  1.00  0.00     0.005 C 
ENDBRANCH  18  21
ENDBRANCH  17  18
ENDBRANCH  16  17
ENDBRANCH  10  12
ENDBRANCH   4   9
ENDBRANCH   2   4
ENDBRANCH   1   2
BRANCH   1  26
HETATM   26  N3  UNL     1      -8.513  14.943  -2.374  1.00  0.00    -0.331 N 
HETATM   27  C22 UNL     1      -9.122  15.271  -3.593  1.00  0.00     0.244 C 
HETATM   28  O3  UNL     1     -10.337  15.560  -3.683  1.00  0.00    -0.271 OA
ATOM     29  H3  UNL     1      -7.546  14.646  -2.511  1.00  0.00     0.168 HD
BRANCH  27  30
HETATM   30  C23 UNL     1      -8.284  15.284  -4.816  1.00  0.00     0.182 C 
BRANCH  30  31
HETATM   31  N4  UNL     1      -7.072  15.898  -4.909  1.00  0.00    -0.329 N 
HETATM   32  C24 UNL     1      -6.143  16.761  -4.267  1.00  0.00     0.317 C 
HETATM   33  O4  UNL     1      -6.434  17.366  -3.233  1.00  0.00    -0.247 OA
HETATM   34  N5  UNL     1      -4.846  16.842  -4.904  1.00  0.00    -0.334 N 
ATOM     35  H5  UNL     1      -4.786  16.289  -5.759  1.00  0.00     0.165 HD
ATOM     36  H4  UNL     1      -6.664  15.629  -5.804  1.00  0.00     0.165 HD
BRANCH  34  37
HETATM   37  C25 UNL     1      -3.647  17.520  -4.595  1.00  0.00     0.035 C 
HETATM   38  C26 UNL     1      -3.662  18.981  -4.410  1.00  0.00     0.035 C 
HETATM   39  C27 UNL     1      -2.246  19.507  -4.289  1.00  0.00    -0.012 C 
HETATM   40  C28 UNL     1      -1.362  19.149  -5.445  1.00  0.00     0.009 C 
HETATM   41  C32 UNL     1      -1.565  18.932  -3.056  1.00  0.00     0.009 C 
HETATM   42  C29 UNL     1      -1.327  17.625  -5.570  1.00  0.00    -0.012 C 
HETATM   43  C30 UNL     1      -0.722  17.010  -4.311  1.00  0.00     0.009 C 
HETATM   44  C34 UNL     1      -2.672  17.098  -5.767  1.00  0.00     0.035 C 
HETATM   45  C31 UNL     1      -1.586  17.420  -3.162  1.00  0.00    -0.012 C 
HETATM   46  C33 UNL     1      -2.995  16.917  -3.348  1.00  0.00     0.035 C 
ENDBRANCH  34  37
ENDBRANCH  30  31
BRANCH  30  47
HETATM   47  C35 UNL     1      -9.095  15.725  -6.055  1.00  0.00     0.009 C 
HETATM   48  C36 UNL     1      -9.754  14.526  -6.673  1.00  0.00     0.012 C 
HETATM   49  C37 UNL     1      -8.636  16.772  -6.920  1.00  0.00     0.012 C 
ENDBRANCH  30  47
ENDBRANCH  27  30
ENDBRANCH   1  26
TORSDOF 15
ENDMDL
MODEL 3
REMARK VINA RESULT: -9.230993292      2.608     11.386
REMARK  15 active torsions:
REMARK  status: ('A' for Active; 'I' for Inactive)
REMARK    1  A    between atoms: C2_2  and  C3_3 
REMARK    2  A    between atoms: C3_3  and  C4_4 
REMARK    3  A    between atoms: C4_4  and  C5_5 
REMARK    4  A    between atoms: C5_5  and  N1_6 
REMARK    5  A    between atoms: C5_5  and  C20_23 
REMARK       I    between atoms: N1_6  and  C6_7 
REMARK    6  A    between atoms: C6_7  and  C7_9 
REMARK    7  A    between atoms: N2_13  and  C11_14 
REMARK    8  A    between atoms: C11_14  and  C12_15 
REMARK    9  A    between atoms: C12_15  and  C13_16 
REMARK   10  A    between atoms: C20_23  and  C21_25 
REMARK   11  A    between atoms: C21_25  and  N3_26 
REMARK       I    between atoms: N3_26  and  C22_28 
REMARK   12  A    between atoms: C22_28  and  C23_30 
REMARK   13  A    between atoms: C23_30  and  N4_31 
REMARK   14  A    between atoms: C23_30  and  C35_47 
REMARK       I    between atoms: N4_31  and  C24_33 
REMARK       I    between atoms: C24_33  and  N5_35 
REMARK   15  A    between atoms: N5_35  and  C25_37 
ROOT
HETATM    1  C21 UNL     1      -9.514  16.953  -2.480  1.00  0.00     0.149 C 
ENDROOT
BRANCH   1   2
HETATM    2  C20 UNL     1      -9.043  17.412  -1.189  1.00  0.00     0.223 C 
HETATM    3  O2  UNL     1      -9.387  18.384  -0.590  1.00  0.00    -0.284 OA
BRANCH   2   4
HETATM    4  C5  UNL     1      -7.961  16.543  -0.459  1.00  0.00     0.140 C 
BRANCH   4   5
HETATM    5  C4  UNL     1      -6.968  17.529   0.112  1.00  0.00     0.081 C 
BRANCH   5   6
HETATM    6  C3  UNL     1      -5.842  17.847  -0.823  1.00  0.00     0.033 C 
BRANCH   6   7
HETATM    7  C2  UNL     1      -4.894  16.692  -0.863  1.00  0.00    -0.037 C 
HETATM    8  C1  UNL     1      -4.158  16.420   0.176  1.00  0.00     0.007 C 
ENDBRANCH   6   7
ENDBRANCH   5   6
ENDBRANCH   4   5
BRANCH   4   9
HETATM    9  N1  UNL     1      -8.177  15.378   0.017  1.00  0.00    -0.369 NA
HETATM   10  C6  UNL     1      -8.421  14.030   0.564  1.00  0.00     0.325 C 
HETATM   11  O1  UNL     1      -7.600  13.161   0.539  1.00  0.00    -0.255 OA
BRANCH  10  12
HETATM   12  C7  UNL     1      -9.738  13.775   1.130  1.00  0.00     0.329 C 
HETATM   13  C8  UNL     1     -10.878  14.647   0.639  1.00  0.00     0.049 C 
HETATM   14  C9  UNL     1     -12.004  13.967   1.449  1.00  0.00     0.033 C 
HETATM   15  C10 UNL     1     -11.304  13.148   2.499  1.00  0.00     0.273 C 
HETATM   16  N2  UNL     1      -9.960  13.904   2.525  1.00  0.00     0.104 N 
BRANCH  16  17
HETATM   17  C11 UNL     1     -10.414  15.127   3.084  1.00  0.00     0.283 C 
BRANCH  17  18
HETATM   18  C12 UNL     1      -9.297  15.808   3.876  1.00  0.00    -0.010 A 
HETATM   19  C18 UNL     1      -8.720  17.082   3.218  1.00  0.00     0.012 A 
HETATM   20  C19 UNL     1      -7.904  15.880   3.502  1.00  0.00     0.012 A 
BRANCH  18  21
HETATM   21  C13 UNL     1      -9.588  16.021   5.371  1.00  0.00    -0.004 C 
HETATM   22  C14 UNL     1      -8.339  15.853   6.209  1.00  0.00     0.005 C 
HETATM   23  C15 UNL     1      -8.921  15.775   7.610  1.00  0.00     0.000 C 
HETATM   24  C16 UNL     1     -10.368  15.272   7.451  1.00  0.00     0.000 C 
HETATM   25  C17 UNL     1     -10.482  14.932   5.948  1.00  0.00     0.005 C 
ENDBRANCH  18  21
ENDBRANCH  17  18
ENDBRANCH  16  17
ENDBRANCH  10  12
ENDBRANCH   4   9
ENDBRANCH   2   4
ENDBRANCH   1   2
BRANCH   1  26
HETATM   26  N3  UNL     1      -8.658  16.615  -3.536  1.00  0.00    -0.331 N 
HETATM   27  C22 UNL     1      -8.147  15.445  -4.114  1.00  0.00     0.244 C 
HETATM   28  O3  UNL     1      -8.349  14.309  -3.627  1.00  0.00    -0.271 OA
ATOM     29  H3  UNL     1      -8.312  17.447  -4.015  1.00  0.00     0.168 HD
BRANCH  27  30
HETATM   30  C23 UNL     1      -7.346  15.566  -5.356  1.00  0.00     0.182 C 
BRANCH  30  31
HETATM   31  N4  UNL     1      -6.084  16.074  -5.408  1.00  0.00    -0.329 N 
HETATM   32  C24 UNL     1      -5.207  17.086  -4.931  1.00  0.00     0.317 C 
HETATM   33  O4  UNL     1      -5.620  18.029  -4.254  1.00  0.00    -0.247 OA
HETATM   34  N5  UNL     1      -3.815  16.899  -5.280  1.00  0.00    -0.334 N 
ATOM     35  H5  UNL     1      -3.655  16.074  -5.859  1.00  0.00     0.165 HD
ATOM     36  H4  UNL     1      -5.550  15.491  -6.052  1.00  0.00     0.165 HD
BRANCH  34  37
HETATM   37  C25 UNL     1      -2.631  17.612  -4.990  1.00  0.00     0.035 C 
HETATM   38  C26 UNL     1      -2.519  19.027  -5.377  1.00  0.00     0.035 C 
HETATM   39  C27 UNL     1      -1.104  19.521  -5.149  1.00  0.00    -0.012 C 
HETATM   40  C28 UNL     1      -0.056  18.715  -5.856  1.00  0.00     0.009 C 
HETATM   41  C32 UNL     1      -0.746  19.458  -3.671  1.00  0.00     0.009 C 
HETATM   42  C29 UNL     1      -0.168  17.263  -5.386  1.00  0.00    -0.012 C 
HETATM   43  C30 UNL     1       0.106  17.175  -3.887  1.00  0.00     0.009 C 
HETATM   44  C34 UNL     1      -1.499  16.737  -5.665  1.00  0.00     0.035 C 
HETATM   45  C31 UNL     1      -0.916  18.026  -3.202  1.00  0.00    -0.012 C 
HETATM   46  C33 UNL     1      -2.308  17.528  -3.495  1.00  0.00     0.035 C 
ENDBRANCH  34  37
ENDBRANCH  30  31
BRANCH  30  47
HETATM   47  C35 UNL     1      -8.146  16.261  -6.481  1.00  0.00     0.009 C 
HETATM   48  C36 UNL     1      -9.409  15.494  -6.743  1.00  0.00     0.012 C 
HETATM   49  C37 UNL     1      -7.490  16.894  -7.588  1.00  0.00     0.012 C 
ENDBRANCH  30  47
ENDBRANCH  27  30
ENDBRANCH   1  26
TORSDOF 15
ENDMDL
MODEL 4
REMARK VINA RESULT: -9.175527871      2.274     10.989
REMARK  15 active torsions:
REMARK  status: ('A' for Active; 'I' for Inactive)
REMARK    1  A    between atoms: C2_2  and  C3_3 
REMARK    2  A    between atoms: C3_3  and  C4_4 
REMARK    3  A    between atoms: C4_4  and  C5_5 
REMARK    4  A    between atoms: C5_5  and  N1_6 
REMARK    5  A    between atoms: C5_5  and  C20_23 
REMARK       I    between atoms: N1_6  and  C6_7 
REMARK    6  A    between atoms: C6_7  and  C7_9 
REMARK    7  A    between atoms: N2_13  and  C11_14 
REMARK    8  A    between atoms: C11_14  and  C12_15 
REMARK    9  A    between atoms: C12_15  and  C13_16 
REMARK   10  A    between atoms: C20_23  and  C21_25 
REMARK   11  A    between atoms: C21_25  and  N3_26 
REMARK       I    between atoms: N3_26  and  C22_28 
REMARK   12  A    between atoms: C22_28  and  C23_30 
REMARK   13  A    between atoms: C23_30  and  N4_31 
REMARK   14  A    between atoms: C23_30  and  C35_47 
REMARK       I    between atoms: N4_31  and  C24_33 
REMARK       I    between atoms: C24_33  and  N5_35 
REMARK   15  A    between atoms: N5_35  and  C25_37 
ROOT
HETATM    1  C21 UNL     1     -10.571  15.568  -2.196  1.00  0.00     0.149 C 
ENDROOT
BRANCH   1   2
HETATM    2  C20 UNL     1     -10.141  15.436  -0.819  1.00  0.00     0.223 C 
HETATM    3  O2  UNL     1     -10.054  16.296   0.003  1.00  0.00    -0.284 OA
BRANCH   2   4
HETATM    4  C5  UNL     1      -9.751  14.005  -0.313  1.00  0.00     0.140 C 
BRANCH   4   5
HETATM    5  C4  UNL     1      -8.288  14.092   0.058  1.00  0.00     0.081 C 
BRANCH   5   6
HETATM    6  C3  UNL     1      -7.479  14.907  -0.903  1.00  0.00     0.033 C 
BRANCH   6   7
HETATM    7  C2  UNL     1      -6.442  15.674  -0.147  1.00  0.00    -0.037 C 
HETATM    8  C1  UNL     1      -6.650  16.922   0.157  1.00  0.00     0.007 C 
ENDBRANCH   6   7
ENDBRANCH   5   6
ENDBRANCH   4   5
BRANCH   4   9
HETATM    9  N1  UNL     1     -10.575  13.173   0.194  1.00  0.00    -0.369 NA
HETATM   10  C6  UNL     1     -11.528  12.207   0.774  1.00  0.00     0.325 C 
HETATM   11  O1  UNL     1     -11.753  11.141   0.281  1.00  0.00    -0.255 OA
BRANCH  10  12
HETATM   12  C7  UNL     1     -12.225  12.612   1.986  1.00  0.00     0.329 C 
HETATM   13  C8  UNL     1     -13.198  13.770   1.865  1.00  0.00     0.049 C 
HETATM   14  C9  UNL     1     -13.692  13.761   3.328  1.00  0.00     0.033 C 
HETATM   15  C10 UNL     1     -12.692  12.929   4.083  1.00  0.00     0.273 C 
HETATM   16  N2  UNL     1     -11.499  13.066   3.116  1.00  0.00     0.104 N 
BRANCH  16  17
HETATM   17  C11 UNL     1     -11.227  14.446   3.308  1.00  0.00     0.283 C 
BRANCH  17  18
HETATM   18  C12 UNL     1      -9.874  14.641   3.993  1.00  0.00    -0.010 A 
HETATM   19  C18 UNL     1      -8.770  15.240   3.091  1.00  0.00     0.012 A 
HETATM   20  C19 UNL     1      -8.662  13.904   3.720  1.00  0.00     0.012 A 
BRANCH  18  21
HETATM   21  C13 UNL     1      -9.926  15.335   5.364  1.00  0.00    -0.004 C 
HETATM   22  C14 UNL     1      -8.538  15.616   5.898  1.00  0.00     0.005 C 
HETATM   23  C15 UNL     1      -8.835  15.973   7.345  1.00  0.00     0.000 C 
HETATM   24  C16 UNL     1     -10.168  15.286   7.696  1.00  0.00     0.000 C 
HETATM   25  C17 UNL     1     -10.485  14.426   6.451  1.00  0.00     0.005 C 
ENDBRANCH  18  21
ENDBRANCH  17  18
ENDBRANCH  16  17
ENDBRANCH  10  12
ENDBRANCH   4   9
ENDBRANCH   2   4
ENDBRANCH   1   2
BRANCH   1  26
HETATM   26  N3  UNL     1      -9.717  15.379  -3.291  1.00  0.00    -0.331 N 
HETATM   27  C22 UNL     1      -9.824  15.342  -4.687  1.00  0.00     0.244 C 
HETATM   28  O3  UNL     1     -10.926  15.398  -5.281  1.00  0.00    -0.271 OA
ATOM     29  H3  UNL     1      -8.754  15.226  -2.988  1.00  0.00     0.168 HD
BRANCH  27  30
HETATM   30  C23 UNL     1      -8.578  15.243  -5.485  1.00  0.00     0.182 C 
BRANCH  30  31
HETATM   31  N4  UNL     1      -7.430  15.919  -5.202  1.00  0.00    -0.329 N 
HETATM   32  C24 UNL     1      -6.775  16.781  -4.281  1.00  0.00     0.317 C 
HETATM   33  O4  UNL     1      -7.381  17.301  -3.343  1.00  0.00    -0.247 OA
HETATM   34  N5  UNL     1      -5.360  16.966  -4.522  1.00  0.00    -0.334 N 
ATOM     35  H5  UNL     1      -5.028  16.474  -5.352  1.00  0.00     0.165 HD
ATOM     36  H4  UNL     1      -6.773  15.729  -5.958  1.00  0.00     0.165 HD
BRANCH  34  37
HETATM   37  C25 UNL     1      -4.340  17.679  -3.854  1.00  0.00     0.035 C 
HETATM   38  C26 UNL     1      -3.125  18.070  -4.587  1.00  0.00     0.035 C 
HETATM   39  C27 UNL     1      -2.098  18.640  -3.629  1.00  0.00    -0.012 C 
HETATM   40  C28 UNL     1      -1.739  17.719  -2.502  1.00  0.00     0.009 C 
HETATM   41  C32 UNL     1      -2.623  19.909  -2.974  1.00  0.00     0.009 C 
HETATM   42  C29 UNL     1      -3.017  17.380  -1.732  1.00  0.00    -0.012 C 
HETATM   43  C30 UNL     1      -3.615  18.648  -1.128  1.00  0.00     0.009 C 
HETATM   44  C34 UNL     1      -3.995  16.757  -2.615  1.00  0.00     0.035 C 
HETATM   45  C31 UNL     1      -3.918  19.575  -2.262  1.00  0.00    -0.012 C 
HETATM   46  C33 UNL     1      -4.906  18.949  -3.213  1.00  0.00     0.035 C 
ENDBRANCH  34  37
ENDBRANCH  30  31
BRANCH  30  47
HETATM   47  C35 UNL     1      -8.850  15.453  -6.992  1.00  0.00     0.009 C 
HETATM   48  C36 UNL     1      -8.709  16.910  -7.326  1.00  0.00     0.012 C 
HETATM   49  C37 UNL     1      -9.838  14.685  -7.691  1.00  0.00     0.012 C 
ENDBRANCH  30  47
ENDBRANCH  27  30
ENDBRANCH   1  26
TORSDOF 15
ENDMDL
MODEL 5
REMARK VINA RESULT: -9.145619781      2.692      4.794
REMARK  15 active torsions:
REMARK  status: ('A' for Active; 'I' for Inactive)
REMARK    1  A    between atoms: C2_2  and  C3_3 
REMARK    2  A    between atoms: C3_3  and  C4_4 
REMARK    3  A    between atoms: C4_4  and  C5_5 
REMARK    4  A    between atoms: C5_5  and  N1_6 
REMARK    5  A    between atoms: C5_5  and  C20_23 
REMARK       I    between atoms: N1_6  and  C6_7 
REMARK    6  A    between atoms: C6_7  and  C7_9 
REMARK    7  A    between atoms: N2_13  and  C11_14 
REMARK    8  A    between atoms: C11_14  and  C12_15 
REMARK    9  A    between atoms: C12_15  and  C13_16 
REMARK   10  A    between atoms: C20_23  and  C21_25 
REMARK   11  A    between atoms: C21_25  and  N3_26 
REMARK       I    between atoms: N3_26  and  C22_28 
REMARK   12  A    between atoms: C22_28  and  C23_30 
REMARK   13  A    between atoms: C23_30  and  N4_31 
REMARK   14  A    between atoms: C23_30  and  C35_47 
REMARK       I    between atoms: N4_31  and  C24_33 
REMARK       I    between atoms: C24_33  and  N5_35 
REMARK   15  A    between atoms: N5_35  and  C25_37 
ROOT
HETATM    1  C21 UNL     1     -10.175  14.769   0.852  1.00  0.00     0.149 C 
ENDROOT
BRANCH   1   2
HETATM    2  C20 UNL     1      -9.910  16.192   0.933  1.00  0.00     0.223 C 
HETATM    3  O2  UNL     1     -10.673  17.087   0.735  1.00  0.00    -0.284 OA
BRANCH   2   4
HETATM    4  C5  UNL     1      -8.465  16.641   1.340  1.00  0.00     0.140 C 
BRANCH   4   5
HETATM    5  C4  UNL     1      -8.035  15.684   2.428  1.00  0.00     0.081 C 
BRANCH   5   6
HETATM    6  C3  UNL     1      -8.405  16.144   3.804  1.00  0.00     0.033 C 
BRANCH   6   7
HETATM    7  C2  UNL     1      -8.995  14.999   4.564  1.00  0.00    -0.037 C 
HETATM    8  C1  UNL     1      -8.739  13.776   4.198  1.00  0.00     0.007 C 
ENDBRANCH   6   7
ENDBRANCH   5   6
ENDBRANCH   4   5
BRANCH   4   9
HETATM    9  N1  UNL     1      -7.662  17.263   0.567  1.00  0.00    -0.369 NA
HETATM   10  C6  UNL     1      -6.734  17.987  -0.323  1.00  0.00     0.325 C 
HETATM   11  O1  UNL     1      -6.333  19.088  -0.085  1.00  0.00    -0.255 OA
BRANCH  10  12
HETATM   12  C7  UNL     1      -6.330  17.311  -1.548  1.00  0.00     0.329 C 
HETATM   13  C8  UNL     1      -5.887  18.189  -2.703  1.00  0.00     0.049 C 
HETATM   14  C9  UNL     1      -5.521  17.051  -3.682  1.00  0.00     0.033 C 
HETATM   15  C10 UNL     1      -6.157  15.812  -3.110  1.00  0.00     0.273 C 
HETATM   16  N2  UNL     1      -7.246  16.486  -2.250  1.00  0.00     0.104 N 
BRANCH  16  17
HETATM   17  C11 UNL     1      -8.051  17.009  -3.296  1.00  0.00     0.283 C 
BRANCH  17  18
HETATM   18  C12 UNL     1      -9.130  16.005  -3.702  1.00  0.00    -0.010 A 
HETATM   19  C18 UNL     1     -10.384  16.000  -2.800  1.00  0.00     0.012 A 
HETATM   20  C19 UNL     1      -9.511  14.817  -2.975  1.00  0.00     0.012 A 
BRANCH  18  21
HETATM   21  C13 UNL     1      -9.502  16.009  -5.194  1.00  0.00    -0.004 C 
HETATM   22  C14 UNL     1      -9.646  14.603  -5.736  1.00  0.00     0.005 C 
HETATM   23  C15 UNL     1      -9.676  14.856  -7.234  1.00  0.00     0.000 C 
HETATM   24  C16 UNL     1      -8.940  16.189  -7.464  1.00  0.00     0.000 C 
HETATM   25  C17 UNL     1      -8.380  16.552  -6.070  1.00  0.00     0.005 C 
ENDBRANCH  18  21
ENDBRANCH  17  18
ENDBRANCH  16  17
ENDBRANCH  10  12
ENDBRANCH   4   9
ENDBRANCH   2   4
ENDBRANCH   1   2
BRANCH   1  26
HETATM   26  N3  UNL     1     -11.309  14.165   1.411  1.00  0.00    -0.331 N 
HETATM   27  C22 UNL     1     -12.695  14.186   1.205  1.00  0.00     0.244 C 
HETATM   28  O3  UNL     1     -13.244  14.963   0.390  1.00  0.00    -0.271 OA
ATOM     29  H3  UNL     1     -11.057  13.539   2.176  1.00  0.00     0.168 HD
BRANCH  27  30
HETATM   30  C23 UNL     1     -13.535  13.240   1.979  1.00  0.00     0.182 C 
BRANCH  30  31
HETATM   31  N4  UNL     1     -13.157  12.664   3.154  1.00  0.00    -0.329 N 
HETATM   32  C24 UNL     1     -12.826  12.891   4.517  1.00  0.00     0.317 C 
HETATM   33  O4  UNL     1     -12.685  14.030   4.964  1.00  0.00    -0.247 OA
HETATM   34  N5  UNL     1     -12.701  11.693   5.320  1.00  0.00    -0.334 N 
ATOM     35  H5  UNL     1     -12.834  10.836   4.784  1.00  0.00     0.165 HD
ATOM     36  H4  UNL     1     -13.080  11.661   2.988  1.00  0.00     0.165 HD
BRANCH  34  37
HETATM   37  C25 UNL     1     -12.436  11.457   6.687  1.00  0.00     0.035 C 
HETATM   38  C26 UNL     1     -11.220  12.016   7.301  1.00  0.00     0.035 C 
HETATM   39  C27 UNL     1     -11.046  11.470   8.705  1.00  0.00    -0.012 C 
HETATM   40  C28 UNL     1     -11.011   9.973   8.777  1.00  0.00     0.009 C 
HETATM   41  C32 UNL     1     -12.204  11.899   9.594  1.00  0.00     0.009 C 
HETATM   42  C29 UNL     1     -12.314   9.433   8.181  1.00  0.00    -0.012 C 
HETATM   43  C30 UNL     1     -13.505   9.914   9.006  1.00  0.00     0.009 C 
HETATM   44  C34 UNL     1     -12.468   9.879   6.802  1.00  0.00     0.035 C 
HETATM   45  C31 UNL     1     -13.493  11.409   8.965  1.00  0.00    -0.012 C 
HETATM   46  C33 UNL     1     -13.620  11.906   7.548  1.00  0.00     0.035 C 
ENDBRANCH  34  37
ENDBRANCH  30  31
BRANCH  30  47
HETATM   47  C35 UNL     1     -14.078  12.102   1.087  1.00  0.00     0.009 C 
HETATM   48  C36 UNL     1     -14.876  11.147   1.927  1.00  0.00     0.012 C 
HETATM   49  C37 UNL     1     -13.316  11.576  -0.007  1.00  0.00     0.012 C 
ENDBRANCH  30  47
ENDBRANCH  27  30
ENDBRANCH   1  26
TORSDOF 15
ENDMDL
