MODEL 1
REMARK VINA RESULT: -6.433134843      0.000      0.000
REMARK  8 active torsions:
REMARK  status: ('A' for Active; 'I' for Inactive)
REMARK    1  A    between atoms: C3_5  and  C4_6 
REMARK    2  A    between atoms: C4_6  and  N2_7 
REMARK    3  A    between atoms: N4_14  and  C6_16 
REMARK    4  A    between atoms: C6_16  and  C7_17 
REMARK    5  A    between atoms: C9_21  and  N6_22 
REMARK    6  A    between atoms: N6_22  and  C10_24 
REMARK    7  A    between atoms: C10_24  and  C11_25 
REMARK    8  A    between atoms: C11_25  and  O1_26 
ROOT
HETATM    1  C1  UNL     1      42.836  50.444  53.014  1.00  0.00     0.064 C 
HETATM    2  C2  UNL     1      43.012  50.258  51.722  1.00  0.00     0.112 A 
HETATM    3  N1  UNL     1      42.007  50.679  50.821  1.00  0.00    -0.331 N 
ATOM      4  H1  UNL     1      41.163  51.121  51.187  1.00  0.00     0.168 HD
HETATM    5  C3  UNL     1      42.134  50.515  49.527  1.00  0.00     0.124 A 
HETATM    6  N3  UNL     1      43.275  49.911  48.945  1.00  0.00    -0.179 N 
ATOM      7  H3  UNL     1      43.333  49.802  47.933  1.00  0.00     0.185 HD
HETATM    8  C5  UNL     1      44.350  49.449  49.781  1.00  0.00     0.681 A 
HETATM    9  N4  UNL     1      45.395  48.897  49.270  1.00  0.00    -0.225 N 
ATOM     10  H4  UNL     1      45.480  48.776  48.261  1.00  0.00     0.177 HD
HETATM   11  N8  UNL     1      44.177  49.645  51.191  1.00  0.00    -0.178 N 
ATOM     12  H8  UNL     1      44.910  49.336  51.829  1.00  0.00     0.185 HD
ENDROOT
BRANCH   9  13
HETATM   13  C6  UNL     1      46.446  48.451  50.158  1.00  0.00     0.146 C 
BRANCH  13  14
HETATM   14  C7  UNL     1      47.805  48.520  49.497  1.00  0.00     0.041 C 
HETATM   15  C8  UNL     1      48.759  49.397  50.258  1.00  0.00     0.146 C 
HETATM   16  N5  UNL     1      49.998  49.458  49.534  1.00  0.00    -0.226 N 
HETATM   17  C9  UNL     1      50.139  49.274  48.261  1.00  0.00     0.669 C 
ATOM     18  H5  UNL     1      50.840  49.665  50.070  1.00  0.00     0.177 HD
HETATM   19  N7  UNL     1      48.983  48.983  47.489  1.00  0.00    -0.226 N 
HETATM   20  C12 UNL     1      47.685  49.115  48.111  1.00  0.00     0.146 C 
ATOM     21  H7  UNL     1      49.067  48.687  46.517  1.00  0.00     0.177 HD
BRANCH  17  22
HETATM   22  N6  UNL     1      51.416  49.357  47.631  1.00  0.00    -0.225 N 
ATOM     23  H6  UNL     1      52.166  48.714  47.881  1.00  0.00     0.177 HD
BRANCH  22  24
HETATM   24  C10 UNL     1      51.618  50.374  46.631  1.00  0.00     0.164 C 
BRANCH  24  25
HETATM   25  C11 UNL     1      51.650  49.798  45.233  1.00  0.00     0.184 C 
BRANCH  25  26
HETATM   26  O1  UNL     1      50.324  49.700  44.780  1.00  0.00    -0.399 OA
ATOM     27  H1  UNL     1      50.209  50.335  44.083  1.00  0.00     0.209 HD
ENDBRANCH  25  26
ENDBRANCH  24  25
ENDBRANCH  22  24
ENDBRANCH  17  22
ENDBRANCH  13  14
ENDBRANCH   9  13
BRANCH   5  28
HETATM   28  C4  UNL     1      41.026  50.990  48.654  1.00  0.00     0.306 C 
BRANCH  28  29
HETATM   29  N2  UNL     1      41.511  51.001  47.280  1.00  0.00    -0.073 N 
ATOM     30  H23 UNL     1      41.639  51.943  46.913  1.00  0.00     0.274 HD
ATOM     31  H22 UNL     1      42.480  50.692  47.201  1.00  0.00     0.274 HD
ATOM     32  H21 UNL     1      40.870  50.442  46.717  1.00  0.00     0.274 HD
ENDBRANCH  28  29
ENDBRANCH   5  28
TORSDOF 8
ENDMDL
MODEL 2
REMARK VINA RESULT: -6.302356071      1.984      2.552
REMARK  8 active torsions:
REMARK  status: ('A' for Active; 'I' for Inactive)
REMARK    1  A    between atoms: C3_5  and  C4_6 
REMARK    2  A    between atoms: C4_6  and  N2_7 
REMARK    3  A    between atoms: N4_14  and  C6_16 
REMARK    4  A    between atoms: C6_16  and  C7_17 
REMARK    5  A    between atoms: C9_21  and  N6_22 
REMARK    6  A    between atoms: N6_22  and  C10_24 
REMARK    7  A    between atoms: C10_24  and  C11_25 
REMARK    8  A    between atoms: C11_25  and  O1_26 
ROOT
HETATM    1  C1  UNL     1      44.468  47.780  50.991  1.00  0.00     0.064 C 
HETATM    2  C2  UNL     1      44.431  48.882  50.271  1.00  0.00     0.112 A 
HETATM    3  N1  UNL     1      43.189  49.345  49.781  1.00  0.00    -0.331 N 
ATOM      4  H1  UNL     1      42.341  48.818  49.995  1.00  0.00     0.168 HD
HETATM    5  C3  UNL     1      43.099  50.435  49.059  1.00  0.00     0.124 A 
HETATM    6  N3  UNL     1      44.229  51.218  48.721  1.00  0.00    -0.179 N 
ATOM      7  H3  UNL     1      44.116  52.060  48.157  1.00  0.00     0.185 HD
HETATM    8  C5  UNL     1      45.537  50.827  49.174  1.00  0.00     0.681 A 
HETATM    9  N4  UNL     1      46.577  51.527  48.877  1.00  0.00    -0.225 N 
ATOM     10  H4  UNL     1      46.492  52.373  48.314  1.00  0.00     0.177 HD
HETATM   11  N8  UNL     1      45.597  49.631  49.961  1.00  0.00    -0.178 N 
ATOM     12  H8  UNL     1      46.501  49.308  50.308  1.00  0.00     0.185 HD
ENDROOT
BRANCH   9  13
HETATM   13  C6  UNL     1      47.868  51.087  49.358  1.00  0.00     0.146 C 
BRANCH  13  14
HETATM   14  C7  UNL     1      48.895  51.042  48.249  1.00  0.00     0.041 C 
HETATM   15  C8  UNL     1      48.690  52.142  47.245  1.00  0.00     0.146 C 
HETATM   16  N5  UNL     1      49.661  51.991  46.199  1.00  0.00    -0.226 N 
HETATM   17  C9  UNL     1      50.241  50.885  45.860  1.00  0.00     0.669 C 
ATOM     18  H5  UNL     1      49.916  52.828  45.676  1.00  0.00     0.177 HD
HETATM   19  N7  UNL     1      49.906  49.702  46.572  1.00  0.00    -0.226 N 
HETATM   20  C12 UNL     1      48.788  49.739  47.488  1.00  0.00     0.146 C 
ATOM     21  H7  UNL     1      50.442  48.844  46.439  1.00  0.00     0.177 HD
BRANCH  17  22
HETATM   22  N6  UNL     1      51.196  50.834  44.801  1.00  0.00    -0.225 N 
ATOM     23  H6  UNL     1      50.942  51.115  43.855  1.00  0.00     0.177 HD
BRANCH  22  24
HETATM   24  C10 UNL     1      52.527  50.376  45.105  1.00  0.00     0.164 C 
BRANCH  24  25
HETATM   25  C11 UNL     1      52.807  49.012  44.516  1.00  0.00     0.184 C 
BRANCH  25  26
HETATM   26  O1  UNL     1      51.833  48.761  43.535  1.00  0.00    -0.399 OA
ATOM     27  H1  UNL     1      52.163  49.093  42.709  1.00  0.00     0.209 HD
ENDBRANCH  25  26
ENDBRANCH  24  25
ENDBRANCH  22  24
ENDBRANCH  17  22
ENDBRANCH  13  14
ENDBRANCH   9  13
BRANCH   5  28
HETATM   28  C4  UNL     1      41.749  50.848  48.586  1.00  0.00     0.306 C 
BRANCH  28  29
HETATM   29  N2  UNL     1      40.847  50.820  49.730  1.00  0.00    -0.073 N 
ATOM     30  H23 UNL     1      40.486  49.887  49.926  1.00  0.00     0.274 HD
ATOM     31  H22 UNL     1      41.329  50.968  50.617  1.00  0.00     0.274 HD
ATOM     32  H21 UNL     1      40.108  51.502  49.562  1.00  0.00     0.274 HD
ENDBRANCH  28  29
ENDBRANCH   5  28
TORSDOF 8
ENDMDL
MODEL 3
REMARK VINA RESULT: -6.284835306      2.034      2.644
REMARK  8 active torsions:
REMARK  status: ('A' for Active; 'I' for Inactive)
REMARK    1  A    between atoms: C3_5  and  C4_6 
REMARK    2  A    between atoms: C4_6  and  N2_7 
REMARK    3  A    between atoms: N4_14  and  C6_16 
REMARK    4  A    between atoms: C6_16  and  C7_17 
REMARK    5  A    between atoms: C9_21  and  N6_22 
REMARK    6  A    between atoms: N6_22  and  C10_24 
REMARK    7  A    between atoms: C10_24  and  C11_25 
REMARK    8  A    between atoms: C11_25  and  O1_26 
ROOT
HETATM    1  C1  UNL     1      44.660  47.927  50.890  1.00  0.00     0.064 C 
HETATM    2  C2  UNL     1      44.466  48.976  50.119  1.00  0.00     0.112 A 
HETATM    3  N1  UNL     1      43.150  49.311  49.727  1.00  0.00    -0.331 N 
ATOM      4  H1  UNL     1      42.372  48.734  50.049  1.00  0.00     0.168 HD
HETATM    5  C3  UNL     1      42.905  50.345  48.959  1.00  0.00     0.124 A 
HETATM    6  N3  UNL     1      43.930  51.191  48.473  1.00  0.00    -0.179 N 
ATOM      7  H3  UNL     1      43.696  51.985  47.878  1.00  0.00     0.185 HD
HETATM    8  C5  UNL     1      45.302  50.930  48.817  1.00  0.00     0.681 A 
HETATM    9  N4  UNL     1      46.248  51.688  48.384  1.00  0.00    -0.225 N 
ATOM     10  H4  UNL     1      46.042  52.489  47.787  1.00  0.00     0.177 HD
HETATM   11  N8  UNL     1      45.532  49.792  49.658  1.00  0.00    -0.178 N 
ATOM     12  H8  UNL     1      46.488  49.562  49.932  1.00  0.00     0.185 HD
ENDROOT
BRANCH   9  13
HETATM   13  C6  UNL     1      47.610  51.380  48.761  1.00  0.00     0.146 C 
BRANCH  13  14
HETATM   14  C7  UNL     1      48.426  50.904  47.580  1.00  0.00     0.041 C 
HETATM   15  C8  UNL     1      48.797  49.453  47.699  1.00  0.00     0.146 C 
HETATM   16  N5  UNL     1      49.619  49.099  46.576  1.00  0.00    -0.226 N 
HETATM   17  C9  UNL     1      50.350  49.915  45.887  1.00  0.00     0.669 C 
ATOM     18  H5  UNL     1      49.628  48.118  46.296  1.00  0.00     0.177 HD
HETATM   19  N7  UNL     1      50.356  51.288  46.254  1.00  0.00    -0.226 N 
HETATM   20  C12 UNL     1      49.725  51.675  47.495  1.00  0.00     0.146 C 
ATOM     21  H7  UNL     1      50.798  51.985  45.653  1.00  0.00     0.177 HD
BRANCH  17  22
HETATM   22  N6  UNL     1      51.137  49.467  44.785  1.00  0.00    -0.225 N 
ATOM     23  H6  UNL     1      50.740  48.852  44.075  1.00  0.00     0.177 HD
BRANCH  22  24
HETATM   24  C10 UNL     1      52.506  49.907  44.701  1.00  0.00     0.164 C 
BRANCH  24  25
HETATM   25  C11 UNL     1      53.479  48.801  45.042  1.00  0.00     0.184 C 
BRANCH  25  26
HETATM   26  O1  UNL     1      53.352  47.801  44.064  1.00  0.00    -0.399 OA
ATOM     27  H1  UNL     1      53.987  47.123  44.259  1.00  0.00     0.209 HD
ENDBRANCH  25  26
ENDBRANCH  24  25
ENDBRANCH  22  24
ENDBRANCH  17  22
ENDBRANCH  13  14
ENDBRANCH   9  13
BRANCH   5  28
HETATM   28  C4  UNL     1      41.487  50.622  48.598  1.00  0.00     0.306 C 
BRANCH  28  29
HETATM   29  N2  UNL     1      40.739  50.813  49.834  1.00  0.00    -0.073 N 
ATOM     30  H23 UNL     1      40.966  51.690  50.302  1.00  0.00     0.274 HD
ATOM     31  H22 UNL     1      39.749  50.997  49.673  1.00  0.00     0.274 HD
ATOM     32  H21 UNL     1      40.899  49.997  50.425  1.00  0.00     0.274 HD
ENDBRANCH  28  29
ENDBRANCH   5  28
TORSDOF 8
ENDMDL
MODEL 4
REMARK VINA RESULT: -6.251145660      3.826      8.193
REMARK  8 active torsions:
REMARK  status: ('A' for Active; 'I' for Inactive)
REMARK    1  A    between atoms: C3_5  and  C4_6 
REMARK    2  A    between atoms: C4_6  and  N2_7 
REMARK    3  A    between atoms: N4_14  and  C6_16 
REMARK    4  A    between atoms: C6_16  and  C7_17 
REMARK    5  A    between atoms: C9_21  and  N6_22 
REMARK    6  A    between atoms: N6_22  and  C10_24 
REMARK    7  A    between atoms: C10_24  and  C11_25 
REMARK    8  A    between atoms: C11_25  and  O1_26 
ROOT
HETATM    1  C1  UNL     1      48.197  52.755  46.816  1.00  0.00     0.064 C 
HETATM    2  C2  UNL     1      48.007  51.614  47.446  1.00  0.00     0.112 A 
HETATM    3  N1  UNL     1      49.117  50.783  47.719  1.00  0.00    -0.331 N 
ATOM      4  H1  UNL     1      50.047  51.081  47.424  1.00  0.00     0.168 HD
HETATM    5  C3  UNL     1      48.979  49.637  48.342  1.00  0.00     0.124 A 
HETATM    6  N3  UNL     1      47.722  49.156  48.780  1.00  0.00    -0.179 N 
ATOM      7  H3  UNL     1      47.659  48.259  49.261  1.00  0.00     0.185 HD
HETATM    8  C5  UNL     1      46.534  49.932  48.546  1.00  0.00     0.681 A 
HETATM    9  N4  UNL     1      45.381  49.511  48.938  1.00  0.00    -0.225 N 
ATOM     10  H4  UNL     1      45.290  48.617  49.421  1.00  0.00     0.177 HD
HETATM   11  N8  UNL     1      46.722  51.178  47.864  1.00  0.00    -0.178 N 
ATOM     12  H8  UNL     1      45.911  51.768  47.673  1.00  0.00     0.185 HD
ENDROOT
BRANCH   9  13
HETATM   13  C6  UNL     1      44.219  50.331  48.678  1.00  0.00     0.146 C 
BRANCH  13  14
HETATM   14  C7  UNL     1      43.669  50.944  49.946  1.00  0.00     0.041 C 
HETATM   15  C8  UNL     1      44.609  51.958  50.537  1.00  0.00     0.146 C 
HETATM   16  N5  UNL     1      44.045  52.442  51.764  1.00  0.00    -0.226 N 
HETATM   17  C9  UNL     1      43.203  51.805  52.513  1.00  0.00     0.669 C 
ATOM     18  H5  UNL     1      44.332  53.370  52.074  1.00  0.00     0.177 HD
HETATM   19  N7  UNL     1      42.785  50.510  52.105  1.00  0.00    -0.226 N 
HETATM   20  C12 UNL     1      43.469  49.878  51.001  1.00  0.00     0.146 C 
ATOM     21  H7  UNL     1      42.017  50.036  52.583  1.00  0.00     0.177 HD
BRANCH  17  22
HETATM   22  N6  UNL     1      42.697  52.371  53.720  1.00  0.00    -0.225 N 
ATOM     23  H6  UNL     1      42.345  53.327  53.742  1.00  0.00     0.177 HD
BRANCH  22  24
HETATM   24  C10 UNL     1      42.698  51.556  54.908  1.00  0.00     0.164 C 
BRANCH  24  25
HETATM   25  C11 UNL     1      42.446  52.372  56.156  1.00  0.00     0.184 C 
BRANCH  25  26
HETATM   26  O1  UNL     1      41.807  53.561  55.769  1.00  0.00    -0.399 OA
ATOM     27  H1  UNL     1      40.972  53.602  56.220  1.00  0.00     0.209 HD
ENDBRANCH  25  26
ENDBRANCH  24  25
ENDBRANCH  22  24
ENDBRANCH  17  22
ENDBRANCH  13  14
ENDBRANCH   9  13
BRANCH   5  28
HETATM   28  C4  UNL     1      50.204  48.828  48.587  1.00  0.00     0.306 C 
BRANCH  28  29
HETATM   29  N2  UNL     1      50.057  48.173  49.881  1.00  0.00    -0.073 N 
ATOM     30  H23 UNL     1      49.719  47.215  49.802  1.00  0.00     0.274 HD
ATOM     31  H22 UNL     1      50.952  47.966  50.323  1.00  0.00     0.274 HD
ATOM     32  H21 UNL     1      49.455  48.758  50.460  1.00  0.00     0.274 HD
ENDBRANCH  28  29
ENDBRANCH   5  28
TORSDOF 8
ENDMDL
MODEL 5
REMARK VINA RESULT: -6.193712842      2.577      7.548
REMARK  8 active torsions:
REMARK  status: ('A' for Active; 'I' for Inactive)
REMARK    1  A    between atoms: C3_5  and  C4_6 
REMARK    2  A    between atoms: C4_6  and  N2_7 
REMARK    3  A    between atoms: N4_14  and  C6_16 
REMARK    4  A    between atoms: C6_16  and  C7_17 
REMARK    5  A    between atoms: C9_21  and  N6_22 
REMARK    6  A    between atoms: N6_22  and  C10_24 
REMARK    7  A    between atoms: C10_24  and  C11_25 
REMARK    8  A    between atoms: C11_25  and  O1_26 
ROOT
HETATM    1  C1  UNL     1      50.827  50.658  51.870  1.00  0.00     0.064 C 
HETATM    2  C2  UNL     1      50.517  50.052  50.743  1.00  0.00     0.112 A 
HETATM    3  N1  UNL     1      51.450  50.047  49.682  1.00  0.00    -0.331 N 
ATOM      4  H1  UNL     1      52.349  50.513  49.806  1.00  0.00     0.168 HD
HETATM    5  C3  UNL     1      51.187  49.458  48.540  1.00  0.00     0.124 A 
HETATM    6  N3  UNL     1      49.962  48.792  48.292  1.00  0.00    -0.179 N 
ATOM      7  H3  UNL     1      49.798  48.347  47.389  1.00  0.00     0.185 HD
HETATM    8  C5  UNL     1      48.950  48.745  49.312  1.00  0.00     0.681 A 
HETATM    9  N4  UNL     1      47.830  48.144  49.105  1.00  0.00    -0.225 N 
ATOM     10  H4  UNL     1      47.640  47.690  48.212  1.00  0.00     0.177 HD
HETATM   11  N8  UNL     1      49.272  49.398  50.547  1.00  0.00    -0.178 N 
ATOM     12  H8  UNL     1      48.588  49.394  51.304  1.00  0.00     0.185 HD
ENDROOT
BRANCH   9  13
HETATM   13  C6  UNL     1      46.847  48.126  50.166  1.00  0.00     0.146 C 
BRANCH  13  14
HETATM   14  C7  UNL     1      45.617  48.928  49.805  1.00  0.00     0.041 C 
HETATM   15  C8  UNL     1      45.738  50.367  50.223  1.00  0.00     0.146 C 
HETATM   16  N5  UNL     1      44.511  51.039  49.903  1.00  0.00    -0.226 N 
HETATM   17  C9  UNL     1      43.350  50.479  49.787  1.00  0.00     0.669 C 
ATOM     18  H5  UNL     1      44.557  52.047  49.755  1.00  0.00     0.177 HD
HETATM   19  N7  UNL     1      43.255  49.076  49.987  1.00  0.00    -0.226 N 
HETATM   20  C12 UNL     1      44.402  48.374  50.517  1.00  0.00     0.146 C 
ATOM     21  H7  UNL     1      42.395  48.575  49.762  1.00  0.00     0.177 HD
BRANCH  17  22
HETATM   22  N6  UNL     1      42.183  51.235  49.466  1.00  0.00    -0.225 N 
ATOM     23  H6  UNL     1      41.708  51.791  50.177  1.00  0.00     0.177 HD
BRANCH  22  24
HETATM   24  C10 UNL     1      41.694  51.193  48.112  1.00  0.00     0.164 C 
BRANCH  24  25
HETATM   25  C11 UNL     1      42.611  51.919  47.154  1.00  0.00     0.184 C 
BRANCH  25  26
HETATM   26  O1  UNL     1      42.312  53.289  47.230  1.00  0.00    -0.399 OA
ATOM     27  H1  UNL     1      41.975  53.560  46.384  1.00  0.00     0.209 HD
ENDBRANCH  25  26
ENDBRANCH  24  25
ENDBRANCH  22  24
ENDBRANCH  17  22
ENDBRANCH  13  14
ENDBRANCH   9  13
BRANCH   5  28
HETATM   28  C4  UNL     1      52.230  49.502  47.478  1.00  0.00     0.306 C 
BRANCH  28  29
HETATM   29  N2  UNL     1      53.498  49.111  48.080  1.00  0.00    -0.073 N 
ATOM     30  H23 UNL     1      54.041  49.907  48.411  1.00  0.00     0.274 HD
ATOM     31  H22 UNL     1      53.381  48.643  48.979  1.00  0.00     0.274 HD
ATOM     32  H21 UNL     1      54.004  48.542  47.401  1.00  0.00     0.274 HD
ENDBRANCH  28  29
ENDBRANCH   5  28
TORSDOF 8
ENDMDL
