MODEL 1
REMARK VINA RESULT: -6.796146842      0.000      0.000
REMARK  7 active torsions:
REMARK  status: ('A' for Active; 'I' for Inactive)
REMARK    1  A    between atoms: N1_1  and  C1_4 
REMARK    2  A    between atoms: C2_7  and  C3_8 
REMARK    3  A    between atoms: C3_8  and  C4_9 
REMARK    4  A    between atoms: C4_9  and  C5_10 
REMARK    5  A    between atoms: C5_10  and  C6_11 
REMARK    6  A    between atoms: C6_11  and  N3_12 
REMARK    7  A    between atoms: C10_25  and  N7_26 
ROOT
HETATM    1  C1  UNL     1      43.918  48.922  50.250  1.00  0.00     0.691 A 
HETATM    2  N2  UNL     1      44.911  49.772  50.573  1.00  0.00    -0.180 N 
ATOM      3  H2  UNL     1      45.795  49.389  50.908  1.00  0.00     0.185 HD
HETATM    4  C2  UNL     1      44.780  51.114  50.469  1.00  0.00     0.113 A 
HETATM    5  N6  UNL     1      43.589  51.562  50.020  1.00  0.00    -0.180 N 
ATOM      6  H6  UNL     1      43.442  52.566  49.924  1.00  0.00     0.185 HD
HETATM    7  C10 UNL     1      42.590  50.723  49.695  1.00  0.00     0.691 A 
HETATM    8  N8  UNL     1      42.740  49.394  49.804  1.00  0.00    -0.023 N 
ATOM      9  H8  UNL     1      41.981  48.759  49.555  1.00  0.00     0.203 HD
ENDROOT
BRANCH   4  10
HETATM   10  C3  UNL     1      45.884  52.042  50.829  1.00  0.00     0.077 C 
BRANCH  10  11
HETATM   11  C4  UNL     1      47.023  51.806  49.895  1.00  0.00     0.009 C 
BRANCH  11  12
HETATM   12  C5  UNL     1      47.063  52.781  48.747  1.00  0.00     0.021 C 
BRANCH  12  13
HETATM   13  C6  UNL     1      47.004  52.042  47.410  1.00  0.00     0.139 C 
BRANCH  13  14
HETATM   14  N3  UNL     1      45.796  52.382  46.693  1.00  0.00    -0.251 N 
HETATM   15  C7  UNL     1      44.699  51.592  46.700  1.00  0.00     0.334 A 
HETATM   16  O1  UNL     1      44.733  50.534  47.350  1.00  0.00    -0.246 OA
HETATM   17  N4  UNL     1      43.588  51.926  46.029  1.00  0.00    -0.260 N 
HETATM   18  C8  UNL     1      43.510  53.046  45.324  1.00  0.00     0.332 A 
ATOM     19  H4  UNL     1      42.781  51.302  46.062  1.00  0.00     0.175 HD
HETATM   20  O2  UNL     1      42.446  53.343  44.694  1.00  0.00    -0.246 OA
HETATM   21  N5  UNL     1      44.583  53.857  45.293  1.00  0.00    -0.260 N 
HETATM   22  C9  UNL     1      45.700  53.526  45.967  1.00  0.00     0.334 A 
ATOM     23  H5  UNL     1      44.549  54.725  44.759  1.00  0.00     0.175 HD
HETATM   24  O3  UNL     1      46.713  54.272  45.949  1.00  0.00    -0.246 OA
ENDBRANCH  13  14
ENDBRANCH  12  13
ENDBRANCH  11  12
ENDBRANCH  10  11
ENDBRANCH   4  10
BRANCH   1  25
HETATM   25  N1  UNL     1      44.078  47.628  50.363  1.00  0.00    -0.234 N 
ATOM     26  H12 UNL     1      45.020  47.257  50.492  1.00  0.00     0.174 HD
ATOM     27  H11 UNL     1      43.278  46.996  50.322  1.00  0.00     0.174 HD
ENDBRANCH   1  25
BRANCH   7  28
HETATM   28  N7  UNL     1      41.482  51.227  49.273  1.00  0.00    -0.234 N 
ATOM     29  H72 UNL     1      41.421  52.215  49.026  1.00  0.00     0.174 HD
ATOM     30  H71 UNL     1      40.670  50.614  49.194  1.00  0.00     0.174 HD
ENDBRANCH   7  28
TORSDOF 7
ENDMDL
MODEL 2
REMARK VINA RESULT: -6.781999105      0.210      1.711
REMARK  7 active torsions:
REMARK  status: ('A' for Active; 'I' for Inactive)
REMARK    1  A    between atoms: N1_1  and  C1_4 
REMARK    2  A    between atoms: C2_7  and  C3_8 
REMARK    3  A    between atoms: C3_8  and  C4_9 
REMARK    4  A    between atoms: C4_9  and  C5_10 
REMARK    5  A    between atoms: C5_10  and  C6_11 
REMARK    6  A    between atoms: C6_11  and  N3_12 
REMARK    7  A    between atoms: C10_25  and  N7_26 
ROOT
HETATM    1  C1  UNL     1      43.932  48.859  50.290  1.00  0.00     0.691 A 
HETATM    2  N2  UNL     1      44.953  49.673  50.617  1.00  0.00    -0.180 N 
ATOM      3  H2  UNL     1      45.810  49.261  50.985  1.00  0.00     0.185 HD
HETATM    4  C2  UNL     1      44.885  51.016  50.475  1.00  0.00     0.113 A 
HETATM    5  N6  UNL     1      43.726  51.503  49.983  1.00  0.00    -0.180 N 
ATOM      6  H6  UNL     1      43.627  52.511  49.858  1.00  0.00     0.185 HD
HETATM    7  C10 UNL     1      42.700  50.701  49.654  1.00  0.00     0.691 A 
HETATM    8  N8  UNL     1      42.787  49.369  49.801  1.00  0.00    -0.023 N 
ATOM      9  H8  UNL     1      42.008  48.762  49.549  1.00  0.00     0.203 HD
ENDROOT
BRANCH   4  10
HETATM   10  C3  UNL     1      46.019  51.904  50.840  1.00  0.00     0.077 C 
BRANCH  10  11
HETATM   11  C4  UNL     1      47.055  51.811  49.770  1.00  0.00     0.009 C 
BRANCH  11  12
HETATM   12  C5  UNL     1      46.905  52.864  48.703  1.00  0.00     0.021 C 
BRANCH  12  13
HETATM   13  C6  UNL     1      46.898  52.226  47.314  1.00  0.00     0.139 C 
BRANCH  13  14
HETATM   14  N3  UNL     1      45.699  52.588  46.593  1.00  0.00    -0.251 N 
HETATM   15  C7  UNL     1      45.566  53.770  45.950  1.00  0.00     0.334 A 
HETATM   16  O1  UNL     1      46.512  54.574  45.982  1.00  0.00    -0.246 OA
HETATM   17  N4  UNL     1      44.445  54.087  45.286  1.00  0.00    -0.260 N 
HETATM   18  C8  UNL     1      43.413  53.257  45.228  1.00  0.00     0.332 A 
ATOM     19  H4  UNL     1      44.386  54.989  44.813  1.00  0.00     0.175 HD
HETATM   20  O2  UNL     1      42.359  53.578  44.593  1.00  0.00    -0.246 OA
HETATM   21  N5  UNL     1      43.509  52.072  45.856  1.00  0.00    -0.260 N 
HETATM   22  C9  UNL     1      44.633  51.750  46.523  1.00  0.00     0.334 A 
ATOM     23  H5  UNL     1      42.729  51.415  45.826  1.00  0.00     0.175 HD
HETATM   24  O3  UNL     1      44.740  50.645  47.116  1.00  0.00    -0.246 OA
ENDBRANCH  13  14
ENDBRANCH  12  13
ENDBRANCH  11  12
ENDBRANCH  10  11
ENDBRANCH   4  10
BRANCH   1  25
HETATM   25  N1  UNL     1      44.032  47.563  50.441  1.00  0.00    -0.234 N 
ATOM     26  H12 UNL     1      44.399  47.004  49.669  1.00  0.00     0.174 HD
ATOM     27  H11 UNL     1      43.749  47.114  51.312  1.00  0.00     0.174 HD
ENDBRANCH   1  25
BRANCH   7  28
HETATM   28  N7  UNL     1      41.626  51.241  49.190  1.00  0.00    -0.234 N 
ATOM     29  H72 UNL     1      41.427  52.227  49.356  1.00  0.00     0.174 HD
ATOM     30  H71 UNL     1      40.982  50.657  48.655  1.00  0.00     0.174 HD
ENDBRANCH   7  28
TORSDOF 7
ENDMDL
MODEL 3
REMARK VINA RESULT: -6.761232277      0.077      1.732
REMARK  7 active torsions:
REMARK  status: ('A' for Active; 'I' for Inactive)
REMARK    1  A    between atoms: N1_1  and  C1_4 
REMARK    2  A    between atoms: C2_7  and  C3_8 
REMARK    3  A    between atoms: C3_8  and  C4_9 
REMARK    4  A    between atoms: C4_9  and  C5_10 
REMARK    5  A    between atoms: C5_10  and  C6_11 
REMARK    6  A    between atoms: C6_11  and  N3_12 
REMARK    7  A    between atoms: C10_25  and  N7_26 
ROOT
HETATM    1  C1  UNL     1      42.539  50.676  49.624  1.00  0.00     0.691 A 
HETATM    2  N2  UNL     1      43.519  51.531  49.971  1.00  0.00    -0.180 N 
ATOM      3  H2  UNL     1      43.354  52.533  49.872  1.00  0.00     0.185 HD
HETATM    4  C2  UNL     1      44.714  51.111  50.446  1.00  0.00     0.113 A 
HETATM    5  N6  UNL     1      44.874  49.776  50.556  1.00  0.00    -0.180 N 
ATOM      6  H6  UNL     1      45.758  49.411  50.910  1.00  0.00     0.185 HD
HETATM    7  C10 UNL     1      43.903  48.912  50.212  1.00  0.00     0.691 A 
HETATM    8  N8  UNL     1      42.723  49.349  49.743  1.00  0.00    -0.023 N 
ATOM      9  H8  UNL     1      41.987  48.692  49.484  1.00  0.00     0.203 HD
ENDROOT
BRANCH   4  10
HETATM   10  C3  UNL     1      45.788  52.065  50.826  1.00  0.00     0.077 C 
BRANCH  10  11
HETATM   11  C4  UNL     1      46.950  51.856  49.914  1.00  0.00     0.009 C 
BRANCH  11  12
HETATM   12  C5  UNL     1      46.994  52.836  48.771  1.00  0.00     0.021 C 
BRANCH  12  13
HETATM   13  C6  UNL     1      46.970  52.102  47.430  1.00  0.00     0.139 C 
BRANCH  13  14
HETATM   14  N3  UNL     1      45.770  52.427  46.692  1.00  0.00    -0.251 N 
HETATM   15  C7  UNL     1      44.686  51.620  46.677  1.00  0.00     0.334 A 
HETATM   16  O1  UNL     1      44.724  50.559  47.322  1.00  0.00    -0.246 OA
HETATM   17  N4  UNL     1      43.582  51.940  45.987  1.00  0.00    -0.260 N 
HETATM   18  C8  UNL     1      43.500  53.062  45.285  1.00  0.00     0.332 A 
ATOM     19  H4  UNL     1      42.784  51.304  46.002  1.00  0.00     0.175 HD
HETATM   20  O2  UNL     1      42.443  53.346  44.638  1.00  0.00    -0.246 OA
HETATM   21  N5  UNL     1      44.560  53.890  45.278  1.00  0.00    -0.260 N 
HETATM   22  C9  UNL     1      45.670  53.573  45.970  1.00  0.00     0.334 A 
ATOM     23  H5  UNL     1      44.523  54.760  44.747  1.00  0.00     0.175 HD
HETATM   24  O3  UNL     1      46.671  54.335  45.975  1.00  0.00    -0.246 OA
ENDBRANCH  13  14
ENDBRANCH  12  13
ENDBRANCH  11  12
ENDBRANCH  10  11
ENDBRANCH   4  10
BRANCH   1  25
HETATM   25  N1  UNL     1      41.394  51.116  49.167  1.00  0.00    -0.234 N 
ATOM     26  H12 UNL     1      40.573  50.513  49.232  1.00  0.00     0.174 HD
ATOM     27  H11 UNL     1      41.318  52.045  48.753  1.00  0.00     0.174 HD
ENDBRANCH   1  25
BRANCH   7  28
HETATM   28  N7  UNL     1      44.131  47.652  50.345  1.00  0.00    -0.234 N 
ATOM     29  H72 UNL     1      44.955  47.225  49.921  1.00  0.00     0.174 HD
ATOM     30  H71 UNL     1      43.468  47.093  50.883  1.00  0.00     0.174 HD
ENDBRANCH   7  28
TORSDOF 7
ENDMDL
MODEL 4
REMARK VINA RESULT: -6.699294661      0.490      2.443
REMARK  7 active torsions:
REMARK  status: ('A' for Active; 'I' for Inactive)
REMARK    1  A    between atoms: N1_1  and  C1_4 
REMARK    2  A    between atoms: C2_7  and  C3_8 
REMARK    3  A    between atoms: C3_8  and  C4_9 
REMARK    4  A    between atoms: C4_9  and  C5_10 
REMARK    5  A    between atoms: C5_10  and  C6_11 
REMARK    6  A    between atoms: C6_11  and  N3_12 
REMARK    7  A    between atoms: C10_25  and  N7_26 
ROOT
HETATM    1  C1  UNL     1      42.408  50.380  49.670  1.00  0.00     0.691 A 
HETATM    2  N2  UNL     1      43.166  51.467  49.907  1.00  0.00    -0.180 N 
ATOM      3  H2  UNL     1      42.741  52.390  49.819  1.00  0.00     0.185 HD
HETATM    4  C2  UNL     1      44.470  51.380  50.256  1.00  0.00     0.113 A 
HETATM    5  N6  UNL     1      44.977  50.134  50.356  1.00  0.00    -0.180 N 
ATOM      6  H6  UNL     1      45.955  50.017  50.617  1.00  0.00     0.185 HD
HETATM    7  C10 UNL     1      44.230  49.041  50.122  1.00  0.00     0.691 A 
HETATM    8  N8  UNL     1      42.937  49.147  49.777  1.00  0.00    -0.023 N 
ATOM      9  H8  UNL     1      42.371  48.317  49.601  1.00  0.00     0.203 HD
ENDROOT
BRANCH   4  10
HETATM   10  C3  UNL     1      45.296  52.588  50.514  1.00  0.00     0.077 C 
BRANCH  10  11
HETATM   11  C4  UNL     1      46.635  52.388  49.887  1.00  0.00     0.009 C 
BRANCH  11  12
HETATM   12  C5  UNL     1      46.867  53.270  48.688  1.00  0.00     0.021 C 
BRANCH  12  13
HETATM   13  C6  UNL     1      46.845  52.445  47.400  1.00  0.00     0.139 C 
BRANCH  13  14
HETATM   14  N3  UNL     1      45.650  52.726  46.636  1.00  0.00    -0.251 N 
HETATM   15  C7  UNL     1      45.473  53.885  45.963  1.00  0.00     0.334 A 
HETATM   16  O1  UNL     1      46.374  54.740  46.004  1.00  0.00    -0.246 OA
HETATM   17  N4  UNL     1      44.358  54.126  45.260  1.00  0.00    -0.260 N 
HETATM   18  C8  UNL     1      43.373  53.241  45.191  1.00  0.00     0.332 A 
ATOM     19  H4  UNL     1      44.264  55.013  44.765  1.00  0.00     0.175 HD
HETATM   20  O2  UNL     1      42.324  53.491  44.518  1.00  0.00    -0.246 OA
HETATM   21  N5  UNL     1      43.514  52.076  45.848  1.00  0.00    -0.260 N 
HETATM   22  C9  UNL     1      44.633  51.830  46.555  1.00  0.00     0.334 A 
ATOM     23  H5  UNL     1      42.772  51.377  45.811  1.00  0.00     0.175 HD
HETATM   24  O3  UNL     1      44.782  50.746  47.176  1.00  0.00    -0.246 OA
ENDBRANCH  13  14
ENDBRANCH  12  13
ENDBRANCH  11  12
ENDBRANCH  10  11
ENDBRANCH   4  10
BRANCH   1  25
HETATM   25  N1  UNL     1      41.149  50.499  49.333  1.00  0.00    -0.234 N 
ATOM     26  H12 UNL     1      40.721  51.425  49.346  1.00  0.00     0.174 HD
ATOM     27  H11 UNL     1      40.600  49.683  49.062  1.00  0.00     0.174 HD
ENDBRANCH   1  25
BRANCH   7  28
HETATM   28  N7  UNL     1      44.785  47.885  50.238  1.00  0.00    -0.234 N 
ATOM     29  H72 UNL     1      45.801  47.798  50.275  1.00  0.00     0.174 HD
ATOM     30  H71 UNL     1      44.184  47.061  50.290  1.00  0.00     0.174 HD
ENDBRANCH   7  28
TORSDOF 7
ENDMDL
MODEL 5
REMARK VINA RESULT: -6.570619960      1.070      1.920
REMARK  7 active torsions:
REMARK  status: ('A' for Active; 'I' for Inactive)
REMARK    1  A    between atoms: N1_1  and  C1_4 
REMARK    2  A    between atoms: C2_7  and  C3_8 
REMARK    3  A    between atoms: C3_8  and  C4_9 
REMARK    4  A    between atoms: C4_9  and  C5_10 
REMARK    5  A    between atoms: C5_10  and  C6_11 
REMARK    6  A    between atoms: C6_11  and  N3_12 
REMARK    7  A    between atoms: C10_25  and  N7_26 
ROOT
HETATM    1  C1  UNL     1      43.842  50.755  51.141  1.00  0.00     0.691 A 
HETATM    2  N2  UNL     1      45.061  51.088  50.677  1.00  0.00    -0.180 N 
ATOM      3  H2  UNL     1      45.349  52.066  50.709  1.00  0.00     0.185 HD
HETATM    4  C2  UNL     1      45.918  50.173  50.168  1.00  0.00     0.113 A 
HETATM    5  N6  UNL     1      45.482  48.896  50.150  1.00  0.00    -0.180 N 
ATOM      6  H6  UNL     1      46.093  48.170  49.777  1.00  0.00     0.185 HD
HETATM    7  C10 UNL     1      44.267  48.552  50.612  1.00  0.00     0.691 A 
HETATM    8  N8  UNL     1      43.431  49.475  51.114  1.00  0.00    -0.023 N 
ATOM      9  H8  UNL     1      42.510  49.212  51.465  1.00  0.00     0.203 HD
ENDROOT
BRANCH   4  10
HETATM   10  C3  UNL     1      47.261  50.553  49.658  1.00  0.00     0.077 C 
BRANCH  10  11
HETATM   11  C4  UNL     1      47.447  52.019  49.862  1.00  0.00     0.009 C 
BRANCH  11  12
HETATM   12  C5  UNL     1      47.059  52.841  48.661  1.00  0.00     0.021 C 
BRANCH  12  13
HETATM   13  C6  UNL     1      46.894  51.950  47.429  1.00  0.00     0.139 C 
BRANCH  13  14
HETATM   14  N3  UNL     1      45.705  52.315  46.692  1.00  0.00    -0.251 N 
HETATM   15  C7  UNL     1      44.551  51.617  46.782  1.00  0.00     0.334 A 
HETATM   16  O1  UNL     1      44.513  50.625  47.527  1.00  0.00    -0.246 OA
HETATM   17  N4  UNL     1      43.459  51.973  46.090  1.00  0.00    -0.260 N 
HETATM   18  C8  UNL     1      43.458  53.025  45.283  1.00  0.00     0.332 A 
ATOM     19  H4  UNL     1      42.607  51.420  46.187  1.00  0.00     0.175 HD
HETATM   20  O2  UNL     1      42.411  53.344  44.636  1.00  0.00    -0.246 OA
HETATM   21  N5  UNL     1      44.589  53.743  45.169  1.00  0.00    -0.260 N 
HETATM   22  C9  UNL     1      45.687  53.390  45.862  1.00  0.00     0.334 A 
ATOM     23  H5  UNL     1      44.615  54.558  44.555  1.00  0.00     0.175 HD
HETATM   24  O3  UNL     1      46.754  54.051  45.767  1.00  0.00    -0.246 OA
ENDBRANCH  13  14
ENDBRANCH  12  13
ENDBRANCH  11  12
ENDBRANCH  10  11
ENDBRANCH   4  10
BRANCH   1  25
HETATM   25  N1  UNL     1      43.037  51.666  51.627  1.00  0.00    -0.234 N 
ATOM     26  H12 UNL     1      42.975  52.570  51.158  1.00  0.00     0.174 HD
ATOM     27  H11 UNL     1      42.479  51.480  52.460  1.00  0.00     0.174 HD
ENDBRANCH   1  25
BRANCH   7  28
HETATM   28  N7  UNL     1      43.923  47.312  50.561  1.00  0.00    -0.234 N 
ATOM     29  H72 UNL     1      44.610  46.576  50.723  1.00  0.00     0.174 HD
ATOM     30  H71 UNL     1      42.949  47.088  50.355  1.00  0.00     0.174 HD
ENDBRANCH   7  28
TORSDOF 7
ENDMDL
