MODEL 1
REMARK VINA RESULT: -6.948571689      0.000      0.000
REMARK  6 active torsions:
REMARK  status: ('A' for Active; 'I' for Inactive)
REMARK    1  A    between atoms: C2_3  and  O1_4 
REMARK    2  A    between atoms: C2_3  and  C3_6 
REMARK    3  A    between atoms: C2_3  and  C7_14 
REMARK    4  A    between atoms: C3_6  and  C4_7 
REMARK    5  A    between atoms: C4_7  and  C5_8 
REMARK    6  A    between atoms: C5_8  and  N2_9 
ROOT
HETATM    1  N1  UNL     1      43.179  49.826  52.578  1.00  0.00    -0.194 NA
HETATM    2  C1  UNL     1      43.636  50.014  51.513  1.00  0.00     0.103 C 
HETATM    3  C2  UNL     1      44.181  50.283  50.148  1.00  0.00     0.182 C 
ENDROOT
BRANCH   3   4
HETATM    4  O1  UNL     1      44.297  51.705  50.121  1.00  0.00    -0.371 OA
ATOM      5  H1  UNL     1      43.433  51.985  49.843  1.00  0.00     0.212 HD
ENDBRANCH   3   4
BRANCH   3   6
HETATM    6  C3  UNL     1      43.106  49.917  49.192  1.00  0.00     0.061 C 
BRANCH   6   7
HETATM    7  C4  UNL     1      42.050  50.995  49.044  1.00  0.00     0.024 C 
BRANCH   7   8
HETATM    8  C5  UNL     1      42.042  51.379  47.571  1.00  0.00     0.122 C 
BRANCH   8   9
HETATM    9  N2  UNL     1      43.367  51.638  47.079  1.00  0.00    -0.367 N 
HETATM   10  C6  UNL     1      43.535  51.987  45.860  1.00  0.00     0.196 C 
HETATM   11  N3  UNL     1      42.400  52.110  45.019  1.00  0.00    -0.067 NA
HETATM   12  N4  UNL     1      44.833  52.239  45.383  1.00  0.00    -0.067 NA
ATOM     13  H2  UNL     1      44.171  51.544  47.699  1.00  0.00     0.161 HD
ENDBRANCH   8   9
ENDBRANCH   7   8
ENDBRANCH   6   7
ENDBRANCH   3   6
BRANCH   3  14
HETATM   14  C7  UNL     1      45.501  49.737  49.923  1.00  0.00     0.100 A 
HETATM   15  C8  UNL     1      46.429  50.488  49.209  1.00  0.00     0.136 A 
HETATM   16  N5  UNL     1      46.074  51.783  48.757  1.00  0.00    -0.082 NA
HETATM   17  N6  UNL     1      47.662  50.017  48.955  1.00  0.00    -0.296 N 
HETATM   18  C9  UNL     1      48.068  48.812  49.368  1.00  0.00     0.328 A 
ATOM     19  H6  UNL     1      48.312  50.600  48.427  1.00  0.00     0.171 HD
HETATM   20  O2  UNL     1      49.238  48.375  49.122  1.00  0.00    -0.247 OA
HETATM   21  N7  UNL     1      47.206  48.054  50.059  1.00  0.00    -0.275 N 
HETATM   22  C10 UNL     1      45.938  48.505  50.337  1.00  0.00     0.263 A 
ATOM     23  H7  UNL     1      47.495  47.131  50.383  1.00  0.00     0.173 HD
HETATM   24  O3  UNL     1      45.160  47.770  50.984  1.00  0.00    -0.267 OA
ENDBRANCH   3  14
TORSDOF 6
ENDMDL
MODEL 2
REMARK VINA RESULT: -6.899283644      2.886      6.039
REMARK  6 active torsions:
REMARK  status: ('A' for Active; 'I' for Inactive)
REMARK    1  A    between atoms: C2_3  and  O1_4 
REMARK    2  A    between atoms: C2_3  and  C3_6 
REMARK    3  A    between atoms: C2_3  and  C7_14 
REMARK    4  A    between atoms: C3_6  and  C4_7 
REMARK    5  A    between atoms: C4_7  and  C5_8 
REMARK    6  A    between atoms: C5_8  and  N2_9 
ROOT
HETATM    1  N1  UNL     1      44.628  47.693  50.893  1.00  0.00    -0.194 NA
HETATM    2  C1  UNL     1      44.370  48.834  50.799  1.00  0.00     0.103 C 
HETATM    3  C2  UNL     1      44.060  50.294  50.720  1.00  0.00     0.182 C 
ENDROOT
BRANCH   3   4
HETATM    4  O1  UNL     1      45.338  50.904  50.900  1.00  0.00    -0.371 OA
ATOM      5  H1  UNL     1      45.850  50.543  50.187  1.00  0.00     0.212 HD
ENDBRANCH   3   4
BRANCH   3   6
HETATM    6  C3  UNL     1      43.254  50.613  51.926  1.00  0.00     0.061 C 
BRANCH   6   7
HETATM    7  C4  UNL     1      43.595  51.961  52.530  1.00  0.00     0.024 C 
BRANCH   7   8
HETATM    8  C5  UNL     1      42.538  52.229  53.591  1.00  0.00     0.122 C 
BRANCH   8   9
HETATM    9  N2  UNL     1      43.090  52.194  54.917  1.00  0.00    -0.367 N 
HETATM   10  C6  UNL     1      42.530  52.856  55.857  1.00  0.00     0.196 C 
HETATM   11  N3  UNL     1      41.369  53.615  55.563  1.00  0.00    -0.067 NA
HETATM   12  N4  UNL     1      43.074  52.818  57.152  1.00  0.00    -0.067 NA
ATOM     13  H2  UNL     1      43.926  51.642  55.108  1.00  0.00     0.161 HD
ENDBRANCH   8   9
ENDBRANCH   7   8
ENDBRANCH   6   7
ENDBRANCH   3   6
BRANCH   3  14
HETATM   14  C7  UNL     1      43.554  50.721  49.435  1.00  0.00     0.100 A 
HETATM   15  C8  UNL     1      44.442  50.855  48.372  1.00  0.00     0.136 A 
HETATM   16  N5  UNL     1      45.808  50.531  48.562  1.00  0.00    -0.082 NA
HETATM   17  N6  UNL     1      44.025  51.269  47.162  1.00  0.00    -0.296 N 
HETATM   18  C9  UNL     1      42.748  51.573  46.910  1.00  0.00     0.328 A 
ATOM     19  H6  UNL     1      44.709  51.355  46.410  1.00  0.00     0.171 HD
HETATM   20  O2  UNL     1      42.364  51.965  45.761  1.00  0.00    -0.247 OA
HETATM   21  N7  UNL     1      41.860  51.459  47.905  1.00  0.00    -0.275 N 
HETATM   22  C10 UNL     1      42.250  51.038  49.154  1.00  0.00     0.263 A 
ATOM     23  H7  UNL     1      40.880  51.687  47.734  1.00  0.00     0.173 HD
HETATM   24  O3  UNL     1      41.393  50.943  50.060  1.00  0.00    -0.267 OA
ENDBRANCH   3  14
TORSDOF 6
ENDMDL
MODEL 3
REMARK VINA RESULT: -6.842734436      2.942      4.612
REMARK  6 active torsions:
REMARK  status: ('A' for Active; 'I' for Inactive)
REMARK    1  A    between atoms: C2_3  and  O1_4 
REMARK    2  A    between atoms: C2_3  and  C3_6 
REMARK    3  A    between atoms: C2_3  and  C7_14 
REMARK    4  A    between atoms: C3_6  and  C4_7 
REMARK    5  A    between atoms: C4_7  and  C5_8 
REMARK    6  A    between atoms: C5_8  and  N2_9 
ROOT
HETATM    1  N1  UNL     1      44.407  48.063  51.322  1.00  0.00    -0.194 NA
HETATM    2  C1  UNL     1      43.959  49.148  51.311  1.00  0.00     0.103 C 
HETATM    3  C2  UNL     1      43.382  50.526  51.251  1.00  0.00     0.182 C 
ENDROOT
BRANCH   3   4
HETATM    4  O1  UNL     1      42.079  50.305  50.712  1.00  0.00    -0.371 OA
ATOM      5  H1  UNL     1      41.589  51.058  51.021  1.00  0.00     0.212 HD
ENDBRANCH   3   4
BRANCH   3   6
HETATM    6  C3  UNL     1      44.161  51.258  50.221  1.00  0.00     0.061 C 
BRANCH   6   7
HETATM    7  C4  UNL     1      44.204  50.539  48.886  1.00  0.00     0.024 C 
BRANCH   7   8
HETATM    8  C5  UNL     1      44.407  51.617  47.832  1.00  0.00     0.122 C 
BRANCH   8   9
HETATM    9  N2  UNL     1      43.278  51.723  46.950  1.00  0.00    -0.367 N 
HETATM   10  C6  UNL     1      43.457  52.026  45.720  1.00  0.00     0.196 C 
HETATM   11  N3  UNL     1      44.777  52.253  45.256  1.00  0.00    -0.067 NA
HETATM   12  N4  UNL     1      42.349  52.129  44.862  1.00  0.00    -0.067 NA
ATOM     13  H2  UNL     1      42.335  51.556  47.303  1.00  0.00     0.161 HD
ENDBRANCH   8   9
ENDBRANCH   7   8
ENDBRANCH   6   7
ENDBRANCH   3   6
BRANCH   3  14
HETATM   14  C7  UNL     1      43.215  51.150  52.544  1.00  0.00     0.100 A 
HETATM   15  C8  UNL     1      43.751  52.417  52.756  1.00  0.00     0.136 A 
HETATM   16  N5  UNL     1      44.408  53.079  51.691  1.00  0.00    -0.082 NA
HETATM   17  N6  UNL     1      43.641  53.031  53.947  1.00  0.00    -0.296 N 
HETATM   18  C9  UNL     1      43.018  52.470  54.988  1.00  0.00     0.328 A 
ATOM     19  H6  UNL     1      44.049  53.960  54.060  1.00  0.00     0.171 HD
HETATM   20  O2  UNL     1      42.920  53.062  56.111  1.00  0.00    -0.247 OA
HETATM   21  N7  UNL     1      42.487  51.251  54.829  1.00  0.00    -0.275 N 
HETATM   22  C10 UNL     1      42.580  50.594  53.625  1.00  0.00     0.263 A 
ATOM     23  H7  UNL     1      42.008  50.804  55.611  1.00  0.00     0.173 HD
HETATM   24  O3  UNL     1      42.073  49.456  53.513  1.00  0.00    -0.267 OA
ENDBRANCH   3  14
TORSDOF 6
ENDMDL
MODEL 4
REMARK VINA RESULT: -6.800403215      1.098      1.818
REMARK  6 active torsions:
REMARK  status: ('A' for Active; 'I' for Inactive)
REMARK    1  A    between atoms: C2_3  and  O1_4 
REMARK    2  A    between atoms: C2_3  and  C3_6 
REMARK    3  A    between atoms: C2_3  and  C7_14 
REMARK    4  A    between atoms: C3_6  and  C4_7 
REMARK    5  A    between atoms: C4_7  and  C5_8 
REMARK    6  A    between atoms: C5_8  and  N2_9 
ROOT
HETATM    1  N1  UNL     1      43.172  49.925  52.742  1.00  0.00    -0.194 NA
HETATM    2  C1  UNL     1      43.544  50.105  51.643  1.00  0.00     0.103 C 
HETATM    3  C2  UNL     1      43.980  50.360  50.236  1.00  0.00     0.182 C 
ENDROOT
BRANCH   3   4
HETATM    4  O1  UNL     1      44.007  51.784  50.160  1.00  0.00    -0.371 OA
ATOM      5  H1  UNL     1      43.134  52.000  49.857  1.00  0.00     0.212 HD
ENDBRANCH   3   4
BRANCH   3   6
HETATM    6  C3  UNL     1      42.868  49.900  49.367  1.00  0.00     0.061 C 
BRANCH   6   7
HETATM    7  C4  UNL     1      41.871  50.996  49.047  1.00  0.00     0.024 C 
BRANCH   7   8
HETATM    8  C5  UNL     1      41.959  51.223  47.545  1.00  0.00     0.122 C 
BRANCH   8   9
HETATM    9  N2  UNL     1      43.302  51.512  47.125  1.00  0.00    -0.367 N 
HETATM   10  C6  UNL     1      43.523  51.919  45.933  1.00  0.00     0.196 C 
HETATM   11  N3  UNL     1      42.425  52.074  45.048  1.00  0.00    -0.067 NA
HETATM   12  N4  UNL     1      44.838  52.200  45.527  1.00  0.00    -0.067 NA
ATOM     13  H2  UNL     1      44.078  51.394  47.777  1.00  0.00     0.161 HD
ENDBRANCH   8   9
ENDBRANCH   7   8
ENDBRANCH   6   7
ENDBRANCH   3   6
BRANCH   3  14
HETATM   14  C7  UNL     1      45.313  49.885  49.938  1.00  0.00     0.100 A 
HETATM   15  C8  UNL     1      45.690  48.617  50.369  1.00  0.00     0.136 A 
HETATM   16  N5  UNL     1      44.748  47.807  51.050  1.00  0.00    -0.082 NA
HETATM   17  N6  UNL     1      46.924  48.138  50.136  1.00  0.00    -0.296 N 
HETATM   18  C9  UNL     1      47.855  48.843  49.484  1.00  0.00     0.328 A 
ATOM     19  H6  UNL     1      47.159  47.204  50.470  1.00  0.00     0.171 HD
HETATM   20  O2  UNL     1      49.021  48.380  49.269  1.00  0.00    -0.247 OA
HETATM   21  N7  UNL     1      47.535  50.069  49.052  1.00  0.00    -0.275 N 
HETATM   22  C10 UNL     1      46.282  50.590  49.272  1.00  0.00     0.263 A 
ATOM     23  H7  UNL     1      48.231  50.625  48.553  1.00  0.00     0.173 HD
HETATM   24  O3  UNL     1      46.019  51.739  48.854  1.00  0.00    -0.267 OA
ENDBRANCH   3  14
TORSDOF 6
ENDMDL
MODEL 5
REMARK VINA RESULT: -6.759622383      2.885      6.015
REMARK  6 active torsions:
REMARK  status: ('A' for Active; 'I' for Inactive)
REMARK    1  A    between atoms: C2_3  and  O1_4 
REMARK    2  A    between atoms: C2_3  and  C3_6 
REMARK    3  A    between atoms: C2_3  and  C7_14 
REMARK    4  A    between atoms: C3_6  and  C4_7 
REMARK    5  A    between atoms: C4_7  and  C5_8 
REMARK    6  A    between atoms: C5_8  and  N2_9 
ROOT
HETATM    1  N1  UNL     1      44.577  48.361  51.068  1.00  0.00    -0.194 NA
HETATM    2  C1  UNL     1      44.261  49.462  50.812  1.00  0.00     0.103 C 
HETATM    3  C2  UNL     1      43.861  50.875  50.532  1.00  0.00     0.182 C 
ENDROOT
BRANCH   3   4
HETATM    4  O1  UNL     1      44.923  51.631  51.112  1.00  0.00    -0.371 OA
ATOM      5  H1  UNL     1      45.669  51.049  51.032  1.00  0.00     0.212 HD
ENDBRANCH   3   4
BRANCH   3   6
HETATM    6  C3  UNL     1      42.648  51.132  51.348  1.00  0.00     0.061 C 
BRANCH   6   7
HETATM    7  C4  UNL     1      42.853  50.849  52.823  1.00  0.00     0.024 C 
BRANCH   7   8
HETATM    8  C5  UNL     1      42.628  52.170  53.543  1.00  0.00     0.122 C 
BRANCH   8   9
HETATM    9  N2  UNL     1      43.109  52.130  54.897  1.00  0.00    -0.367 N 
HETATM   10  C6  UNL     1      42.515  52.808  55.804  1.00  0.00     0.196 C 
HETATM   11  N3  UNL     1      41.386  53.590  55.447  1.00  0.00    -0.067 NA
HETATM   12  N4  UNL     1      42.989  52.766  57.126  1.00  0.00    -0.067 NA
ATOM     13  H2  UNL     1      43.923  51.562  55.134  1.00  0.00     0.161 HD
ENDBRANCH   8   9
ENDBRANCH   7   8
ENDBRANCH   6   7
ENDBRANCH   3   6
BRANCH   3  14
HETATM   14  C7  UNL     1      43.813  51.205  49.125  1.00  0.00     0.100 A 
HETATM   15  C8  UNL     1      42.595  51.131  48.456  1.00  0.00     0.136 A 
HETATM   16  N5  UNL     1      41.428  50.776  49.176  1.00  0.00    -0.082 NA
HETATM   17  N6  UNL     1      42.501  51.407  47.143  1.00  0.00    -0.296 N 
HETATM   18  C9  UNL     1      43.560  51.765  46.409  1.00  0.00     0.328 A 
ATOM     19  H6  UNL     1      41.590  51.340  46.691  1.00  0.00     0.171 HD
HETATM   20  O2  UNL     1      43.460  52.024  45.167  1.00  0.00    -0.247 OA
HETATM   21  N7  UNL     1      44.752  51.848  47.013  1.00  0.00    -0.275 N 
HETATM   22  C10 UNL     1      44.885  51.574  48.353  1.00  0.00     0.263 A 
ATOM     23  H7  UNL     1      45.573  52.119  46.471  1.00  0.00     0.173 HD
HETATM   24  O3  UNL     1      46.013  51.662  48.883  1.00  0.00    -0.267 OA
ENDBRANCH   3  14
TORSDOF 6
ENDMDL
