MODEL 1
REMARK VINA RESULT: -6.130101903      0.000      0.000
REMARK  9 active torsions:
REMARK  status: ('A' for Active; 'I' for Inactive)
REMARK    1  A    between atoms: N1_1  and  C1_4 
REMARK    2  A    between atoms: C2_7  and  N3_8 
REMARK    3  A    between atoms: N3_8  and  O1_9 
REMARK    4  A    between atoms: N3_8  and  C3_11 
REMARK    5  A    between atoms: C4_13  and  N4_14 
REMARK    6  A    between atoms: N4_14  and  C5_16 
REMARK    7  A    between atoms: C5_16  and  N5_18 
REMARK    8  A    between atoms: N5_18  and  N6_20 
REMARK    9  A    between atoms: N6_20  and  C6_22 
ROOT
HETATM    1  C1  UNL     1      42.842  50.210  52.586  1.00  0.00     0.680 A 
HETATM    2  N2  UNL     1      43.376  49.482  51.589  1.00  0.00    -0.172 N 
ATOM      3  H2  UNL     1      43.148  48.492  51.495  1.00  0.00     0.186 HD
HETATM    4  C2  UNL     1      44.221  50.079  50.711  1.00  0.00     0.183 A 
HETATM    5  C4  UNL     1      44.541  51.418  50.826  1.00  0.00     0.151 A 
HETATM    6  C7  UNL     1      43.960  52.107  51.870  1.00  0.00     0.290 A 
HETATM    7  O4  UNL     1      44.219  53.316  52.012  1.00  0.00    -0.265 OA
HETATM    8  N7  UNL     1      43.120  51.516  52.743  1.00  0.00    -0.154 N 
ATOM      9  H7  UNL     1      42.704  52.049  53.507  1.00  0.00     0.187 HD
ENDROOT
BRANCH   5  10
HETATM   10  N4  UNL     1      45.411  52.034  49.910  1.00  0.00    -0.324 N 
ATOM     11  H4  UNL     1      46.416  51.920  50.049  1.00  0.00     0.168 HD
BRANCH  10  12
HETATM   12  C5  UNL     1      44.968  52.807  48.799  1.00  0.00     0.191 C 
HETATM   13  S1  UNL     1      45.866  54.101  48.320  1.00  0.00    -0.039 SA
BRANCH  12  14
HETATM   14  N5  UNL     1      43.781  52.470  48.119  1.00  0.00    -0.274 N 
ATOM     15  H5  UNL     1      42.891  52.707  48.557  1.00  0.00     0.189 HD
BRANCH  14  16
HETATM   16  N6  UNL     1      43.755  51.829  46.883  1.00  0.00    -0.275 N 
ATOM     17  H6  UNL     1      44.117  50.877  46.832  1.00  0.00     0.189 HD
BRANCH  16  18
HETATM   18  C6  UNL     1      43.261  52.413  45.696  1.00  0.00     0.368 C 
HETATM   19  O3  UNL     1      42.355  51.902  44.993  1.00  0.00    -0.282 OA
ENDBRANCH  16  18
ENDBRANCH  14  16
ENDBRANCH  12  14
ENDBRANCH  10  12
ENDBRANCH   5  10
BRANCH   4  20
HETATM   20  N3  UNL     1      44.803  49.330  49.651  1.00  0.00    -0.179 N 
BRANCH  20  21
HETATM   21  O1  UNL     1      44.371  49.521  48.490  1.00  0.00    -0.279 OA
ATOM     22  H1  UNL     1      44.469  50.387  48.115  1.00  0.00     0.245 HD
ENDBRANCH  20  21
BRANCH  20  23
HETATM   23  C3  UNL     1      45.827  48.399  49.848  1.00  0.00     0.383 C 
HETATM   24  O2  UNL     1      45.778  47.672  50.888  1.00  0.00    -0.281 OA
ENDBRANCH  20  23
ENDBRANCH   4  20
BRANCH   1  25
HETATM   25  N1  UNL     1      42.027  49.623  53.428  1.00  0.00    -0.234 N 
ATOM     26  H12 UNL     1      42.253  49.625  54.423  1.00  0.00     0.174 HD
ATOM     27  H11 UNL     1      41.185  49.177  53.064  1.00  0.00     0.174 HD
ENDBRANCH   1  25
TORSDOF 9
ENDMDL
MODEL 2
REMARK VINA RESULT: -6.108603063      2.424      5.464
REMARK  9 active torsions:
REMARK  status: ('A' for Active; 'I' for Inactive)
REMARK    1  A    between atoms: N1_1  and  C1_4 
REMARK    2  A    between atoms: C2_7  and  N3_8 
REMARK    3  A    between atoms: N3_8  and  O1_9 
REMARK    4  A    between atoms: N3_8  and  C3_11 
REMARK    5  A    between atoms: C4_13  and  N4_14 
REMARK    6  A    between atoms: N4_14  and  C5_16 
REMARK    7  A    between atoms: C5_16  and  N5_18 
REMARK    8  A    between atoms: N5_18  and  N6_20 
REMARK    9  A    between atoms: N6_20  and  C6_22 
ROOT
HETATM    1  C1  UNL     1      47.308  51.789  47.627  1.00  0.00     0.680 A 
HETATM    2  N2  UNL     1      46.253  52.276  46.949  1.00  0.00    -0.172 N 
ATOM      3  H2  UNL     1      46.365  52.607  45.991  1.00  0.00     0.186 HD
HETATM    4  C2  UNL     1      45.040  52.323  47.556  1.00  0.00     0.183 A 
HETATM    5  C4  UNL     1      44.873  51.880  48.853  1.00  0.00     0.151 A 
HETATM    6  C7  UNL     1      45.994  51.393  49.492  1.00  0.00     0.290 A 
HETATM    7  O4  UNL     1      45.890  50.983  50.662  1.00  0.00    -0.265 OA
HETATM    8  N7  UNL     1      47.200  51.345  48.892  1.00  0.00    -0.154 N 
ATOM      9  H7  UNL     1      48.014  50.981  49.387  1.00  0.00     0.187 HD
ENDROOT
BRANCH   5  10
HETATM   10  N4  UNL     1      43.613  51.924  49.475  1.00  0.00    -0.324 N 
ATOM     11  H4  UNL     1      43.303  52.811  49.873  1.00  0.00     0.168 HD
BRANCH  10  12
HETATM   12  C5  UNL     1      42.746  50.798  49.580  1.00  0.00     0.191 C 
HETATM   13  S1  UNL     1      41.382  50.754  48.661  1.00  0.00    -0.039 SA
BRANCH  12  14
HETATM   14  N5  UNL     1      43.052  49.738  50.457  1.00  0.00    -0.274 N 
ATOM     15  H5  UNL     1      42.778  49.828  51.435  1.00  0.00     0.189 HD
BRANCH  14  16
HETATM   16  N6  UNL     1      43.707  48.576  50.062  1.00  0.00    -0.275 N 
ATOM     17  H6  UNL     1      43.582  48.261  49.100  1.00  0.00     0.189 HD
BRANCH  16  18
HETATM   18  C6  UNL     1      44.535  47.803  50.907  1.00  0.00     0.368 C 
HETATM   19  O3  UNL     1      45.789  47.808  50.848  1.00  0.00    -0.282 OA
ENDBRANCH  16  18
ENDBRANCH  14  16
ENDBRANCH  12  14
ENDBRANCH  10  12
ENDBRANCH   5  10
BRANCH   4  20
HETATM   20  N3  UNL     1      43.910  52.838  46.863  1.00  0.00    -0.179 N 
BRANCH  20  21
HETATM   21  O1  UNL     1      43.379  53.885  47.299  1.00  0.00    -0.279 OA
ATOM     22  H1  UNL     1      42.482  53.837  47.606  1.00  0.00     0.245 HD
ENDBRANCH  20  21
BRANCH  20  23
HETATM   23  C3  UNL     1      43.370  52.229  45.725  1.00  0.00     0.383 C 
HETATM   24  O2  UNL     1      44.149  51.546  44.991  1.00  0.00    -0.281 OA
ENDBRANCH  20  23
ENDBRANCH   4  20
BRANCH   1  25
HETATM   25  N1  UNL     1      48.475  51.749  47.032  1.00  0.00    -0.234 N 
ATOM     26  H12 UNL     1      48.669  52.400  46.272  1.00  0.00     0.174 HD
ATOM     27  H11 UNL     1      49.162  51.062  47.346  1.00  0.00     0.174 HD
ENDBRANCH   1  25
TORSDOF 9
ENDMDL
MODEL 3
REMARK VINA RESULT: -6.097548887      2.334      4.726
REMARK  9 active torsions:
REMARK  status: ('A' for Active; 'I' for Inactive)
REMARK    1  A    between atoms: N1_1  and  C1_4 
REMARK    2  A    between atoms: C2_7  and  N3_8 
REMARK    3  A    between atoms: N3_8  and  O1_9 
REMARK    4  A    between atoms: N3_8  and  C3_11 
REMARK    5  A    between atoms: C4_13  and  N4_14 
REMARK    6  A    between atoms: N4_14  and  C5_16 
REMARK    7  A    between atoms: C5_16  and  N5_18 
REMARK    8  A    between atoms: N5_18  and  N6_20 
REMARK    9  A    between atoms: N6_20  and  C6_22 
ROOT
HETATM    1  C1  UNL     1      42.119  49.716  48.578  1.00  0.00     0.680 A 
HETATM    2  N2  UNL     1      42.104  50.696  47.656  1.00  0.00    -0.172 N 
ATOM      3  H2  UNL     1      41.449  50.659  46.875  1.00  0.00     0.186 HD
HETATM    4  C2  UNL     1      42.971  51.733  47.777  1.00  0.00     0.183 A 
HETATM    5  C4  UNL     1      43.866  51.797  48.828  1.00  0.00     0.151 A 
HETATM    6  C7  UNL     1      43.830  50.760  49.737  1.00  0.00     0.290 A 
HETATM    7  O4  UNL     1      44.618  50.776  50.700  1.00  0.00    -0.265 OA
HETATM    8  N7  UNL     1      42.970  49.729  49.619  1.00  0.00    -0.154 N 
ATOM      9  H7  UNL     1      42.964  48.975  50.305  1.00  0.00     0.187 HD
ENDROOT
BRANCH   5  10
HETATM   10  N4  UNL     1      44.758  52.876  48.953  1.00  0.00    -0.324 N 
ATOM     11  H4  UNL     1      44.369  53.812  49.072  1.00  0.00     0.168 HD
BRANCH  10  12
HETATM   12  C5  UNL     1      46.175  52.735  48.923  1.00  0.00     0.191 C 
HETATM   13  S1  UNL     1      46.895  52.205  47.542  1.00  0.00    -0.039 SA
BRANCH  12  14
HETATM   14  N5  UNL     1      46.950  53.046  50.059  1.00  0.00    -0.274 N 
ATOM     15  H5  UNL     1      47.314  53.994  50.148  1.00  0.00     0.189 HD
BRANCH  14  16
HETATM   16  N6  UNL     1      47.245  52.130  51.065  1.00  0.00    -0.275 N 
ATOM     17  H6  UNL     1      46.756  52.226  51.955  1.00  0.00     0.189 HD
BRANCH  16  18
HETATM   18  C6  UNL     1      48.176  51.076  50.932  1.00  0.00     0.368 C 
HETATM   19  O3  UNL     1      47.862  49.861  50.954  1.00  0.00    -0.282 OA
ENDBRANCH  16  18
ENDBRANCH  14  16
ENDBRANCH  12  14
ENDBRANCH  10  12
ENDBRANCH   5  10
BRANCH   4  20
HETATM   20  N3  UNL     1      42.979  52.779  46.814  1.00  0.00    -0.179 N 
BRANCH  20  21
HETATM   21  O1  UNL     1      42.412  53.856  47.110  1.00  0.00    -0.279 OA
ATOM     22  H1  UNL     1      41.732  54.177  46.530  1.00  0.00     0.245 HD
ENDBRANCH  20  21
BRANCH  20  23
HETATM   23  C3  UNL     1      43.589  52.658  45.561  1.00  0.00     0.383 C 
HETATM   24  O2  UNL     1      43.765  51.490  45.096  1.00  0.00    -0.281 OA
ENDBRANCH  20  23
ENDBRANCH   4  20
BRANCH   1  25
HETATM   25  N1  UNL     1      41.278  48.720  48.450  1.00  0.00    -0.234 N 
ATOM     26  H12 UNL     1      41.609  47.833  48.070  1.00  0.00     0.174 HD
ATOM     27  H11 UNL     1      40.308  48.858  48.737  1.00  0.00     0.174 HD
ENDBRANCH   1  25
TORSDOF 9
ENDMDL
MODEL 4
REMARK VINA RESULT: -6.071778897      2.006      4.679
REMARK  9 active torsions:
REMARK  status: ('A' for Active; 'I' for Inactive)
REMARK    1  A    between atoms: N1_1  and  C1_4 
REMARK    2  A    between atoms: C2_7  and  N3_8 
REMARK    3  A    between atoms: N3_8  and  O1_9 
REMARK    4  A    between atoms: N3_8  and  C3_11 
REMARK    5  A    between atoms: C4_13  and  N4_14 
REMARK    6  A    between atoms: N4_14  and  C5_16 
REMARK    7  A    between atoms: C5_16  and  N5_18 
REMARK    8  A    between atoms: N5_18  and  N6_20 
REMARK    9  A    between atoms: N6_20  and  C6_22 
ROOT
HETATM    1  C1  UNL     1      42.196  49.698  48.647  1.00  0.00     0.680 A 
HETATM    2  N2  UNL     1      42.404  50.744  47.827  1.00  0.00    -0.172 N 
ATOM      3  H2  UNL     1      41.690  51.022  47.154  1.00  0.00     0.186 HD
HETATM    4  C2  UNL     1      43.575  51.424  47.906  1.00  0.00     0.183 A 
HETATM    5  C4  UNL     1      44.553  51.061  48.811  1.00  0.00     0.151 A 
HETATM    6  C7  UNL     1      44.277  49.979  49.622  1.00  0.00     0.290 A 
HETATM    7  O4  UNL     1      45.129  49.615  50.452  1.00  0.00    -0.265 OA
HETATM    8  N7  UNL     1      43.114  49.301  49.546  1.00  0.00    -0.154 N 
ATOM      9  H7  UNL     1      42.935  48.505  50.156  1.00  0.00     0.187 HD
ENDROOT
BRANCH   5  10
HETATM   10  N4  UNL     1      45.762  51.772  48.894  1.00  0.00    -0.324 N 
ATOM     11  H4  UNL     1      46.488  51.573  48.205  1.00  0.00     0.168 HD
BRANCH  10  12
HETATM   12  C5  UNL     1      46.031  52.758  49.888  1.00  0.00     0.191 C 
HETATM   13  S1  UNL     1      46.925  54.077  49.481  1.00  0.00    -0.039 SA
BRANCH  12  14
HETATM   14  N5  UNL     1      45.538  52.605  51.200  1.00  0.00    -0.274 N 
ATOM     15  H5  UNL     1      46.115  52.104  51.875  1.00  0.00     0.189 HD
BRANCH  14  16
HETATM   16  N6  UNL     1      44.308  53.099  51.623  1.00  0.00    -0.275 N 
ATOM     17  H6  UNL     1      43.872  53.834  51.066  1.00  0.00     0.189 HD
BRANCH  16  18
HETATM   18  C6  UNL     1      43.623  52.647  52.773  1.00  0.00     0.368 C 
HETATM   19  O3  UNL     1      43.863  53.060  53.933  1.00  0.00    -0.282 OA
ENDBRANCH  16  18
ENDBRANCH  14  16
ENDBRANCH  12  14
ENDBRANCH  10  12
ENDBRANCH   5  10
BRANCH   4  20
HETATM   20  N3  UNL     1      43.823  52.531  47.048  1.00  0.00    -0.179 N 
BRANCH  20  21
HETATM   21  O1  UNL     1      43.660  53.684  47.512  1.00  0.00    -0.279 OA
ATOM     22  H1  UNL     1      42.836  53.879  47.943  1.00  0.00     0.245 HD
ENDBRANCH  20  21
BRANCH  20  23
HETATM   23  C3  UNL     1      44.236  52.389  45.720  1.00  0.00     0.383 C 
HETATM   24  O2  UNL     1      43.704  51.468  45.027  1.00  0.00    -0.281 OA
ENDBRANCH  20  23
ENDBRANCH   4  20
BRANCH   1  25
HETATM   25  N1  UNL     1      41.061  49.048  48.562  1.00  0.00    -0.234 N 
ATOM     26  H12 UNL     1      40.438  49.027  49.369  1.00  0.00     0.174 HD
ATOM     27  H11 UNL     1      40.831  48.577  47.687  1.00  0.00     0.174 HD
ENDBRANCH   1  25
TORSDOF 9
ENDMDL
MODEL 5
REMARK VINA RESULT: -6.046204239      2.645      4.610
REMARK  9 active torsions:
REMARK  status: ('A' for Active; 'I' for Inactive)
REMARK    1  A    between atoms: N1_1  and  C1_4 
REMARK    2  A    between atoms: C2_7  and  N3_8 
REMARK    3  A    between atoms: N3_8  and  O1_9 
REMARK    4  A    between atoms: N3_8  and  C3_11 
REMARK    5  A    between atoms: C4_13  and  N4_14 
REMARK    6  A    between atoms: N4_14  and  C5_16 
REMARK    7  A    between atoms: C5_16  and  N5_18 
REMARK    8  A    between atoms: N5_18  and  N6_20 
REMARK    9  A    between atoms: N6_20  and  C6_22 
ROOT
HETATM    1  C1  UNL     1      48.003  48.674  49.135  1.00  0.00     0.680 A 
HETATM    2  N2  UNL     1      47.481  49.611  48.322  1.00  0.00    -0.172 N 
ATOM      3  H2  UNL     1      48.065  50.074  47.627  1.00  0.00     0.186 HD
HETATM    4  C2  UNL     1      46.168  49.933  48.440  1.00  0.00     0.183 A 
HETATM    5  C4  UNL     1      45.362  49.316  49.378  1.00  0.00     0.151 A 
HETATM    6  C7  UNL     1      45.960  48.366  50.179  1.00  0.00     0.290 A 
HETATM    7  O4  UNL     1      45.272  47.784  51.039  1.00  0.00    -0.265 OA
HETATM    8  N7  UNL     1      47.264  48.044  50.065  1.00  0.00    -0.154 N 
ATOM      9  H7  UNL     1      47.681  47.337  50.670  1.00  0.00     0.187 HD
ENDROOT
BRANCH   5  10
HETATM   10  N4  UNL     1      44.002  49.648  49.493  1.00  0.00    -0.324 N 
ATOM     11  H4  UNL     1      43.334  49.160  48.894  1.00  0.00     0.168 HD
BRANCH  10  12
HETATM   12  C5  UNL     1      43.502  50.629  50.398  1.00  0.00     0.191 C 
HETATM   13  S1  UNL     1      44.560  51.673  51.105  1.00  0.00    -0.039 SA
BRANCH  12  14
HETATM   14  N5  UNL     1      42.124  50.704  50.683  1.00  0.00    -0.274 N 
ATOM     15  H5  UNL     1      41.841  50.924  51.638  1.00  0.00     0.189 HD
BRANCH  14  16
HETATM   16  N6  UNL     1      41.128  50.495  49.733  1.00  0.00    -0.275 N 
ATOM     17  H6  UNL     1      40.374  49.850  49.968  1.00  0.00     0.189 HD
BRANCH  16  18
HETATM   18  C6  UNL     1      41.095  51.119  48.466  1.00  0.00     0.368 C 
HETATM   19  O3  UNL     1      41.704  50.682  47.459  1.00  0.00    -0.282 OA
ENDBRANCH  16  18
ENDBRANCH  14  16
ENDBRANCH  12  14
ENDBRANCH  10  12
ENDBRANCH   5  10
BRANCH   4  20
HETATM   20  N3  UNL     1      45.592  50.923  47.597  1.00  0.00    -0.179 N 
BRANCH  20  21
HETATM   21  O1  UNL     1      44.529  50.640  46.997  1.00  0.00    -0.279 OA
ATOM     22  H1  UNL     1      43.710  50.743  47.467  1.00  0.00     0.245 HD
ENDBRANCH  20  21
BRANCH  20  23
HETATM   23  C3  UNL     1      46.157  52.189  47.411  1.00  0.00     0.383 C 
HETATM   24  O2  UNL     1      47.224  52.268  46.726  1.00  0.00    -0.281 OA
ENDBRANCH  20  23
ENDBRANCH   4  20
BRANCH   1  25
HETATM   25  N1  UNL     1      49.272  48.371  49.012  1.00  0.00    -0.234 N 
ATOM     26  H12 UNL     1      49.974  49.090  49.185  1.00  0.00     0.174 HD
ATOM     27  H11 UNL     1      49.524  47.419  48.745  1.00  0.00     0.174 HD
ENDBRANCH   1  25
TORSDOF 9
ENDMDL
