MODEL 1
REMARK VINA RESULT: -6.598182544      0.000      0.000
REMARK  16 active torsions:
REMARK  status: ('A' for Active; 'I' for Inactive)
REMARK    1  A    between atoms: O1_1  and  C1_3 
REMARK    2  A    between atoms: C1_3  and  C2_4 
REMARK    3  A    between atoms: C3_5  and  O2_6 
REMARK    4  A    between atoms: C4_8  and  O3_9 
REMARK    5  A    between atoms: C5_11  and  O4_12 
REMARK    6  A    between atoms: N1_15  and  C7_16 
REMARK    7  A    between atoms: C7_16  and  C8_17 
REMARK    8  A    between atoms: C8_17  and  C9_18 
REMARK    9  A    between atoms: C9_18  and  C10_19 
REMARK   10  A    between atoms: C10_19  and  C11_20 
REMARK   11  A    between atoms: C11_20  and  C12_21 
REMARK   12  A    between atoms: C12_21  and  O5_22 
REMARK   13  A    between atoms: O5_22  and  C13_23 
REMARK   14  A    between atoms: C13_23  and  C14_24 
REMARK   15  A    between atoms: C15_25  and  C16_26 
REMARK   16  A    between atoms: C16_26  and  N2_27 
ROOT
HETATM    1  C7  UNL     1      72.550   8.428  10.774  1.00  0.00     0.064 C 
ENDROOT
BRANCH   1   2
HETATM    2  N1  UNL     1      72.053   7.553  11.741  1.00  0.00    -0.362 N 
HETATM    3  C2  UNL     1      70.717   7.149  11.727  1.00  0.00     0.143 C 
HETATM    4  C3  UNL     1      70.499   5.653  11.727  1.00  0.00     0.175 C 
HETATM    5  C4  UNL     1      71.795   4.878  11.710  1.00  0.00     0.182 C 
HETATM    6  C5  UNL     1      72.820   5.422  12.681  1.00  0.00     0.188 C 
HETATM    7  C6  UNL     1      72.892   6.917  12.662  1.00  0.00     0.098 C 
BRANCH   3   8
HETATM    8  C1  UNL     1      69.900   7.712  10.582  1.00  0.00     0.192 C 
BRANCH   8   9
HETATM    9  O1  UNL     1      69.451   8.984  10.971  1.00  0.00    -0.399 OA
ATOM     10  H1  UNL     1      69.585   9.570  10.235  1.00  0.00     0.209 HD
ENDBRANCH   8   9
ENDBRANCH   3   8
BRANCH   4  11
HETATM   11  O2  UNL     1      69.759   5.229  12.845  1.00  0.00    -0.391 OA
ATOM     12  H2  UNL     1      70.313   5.069  13.599  1.00  0.00     0.210 HD
ENDBRANCH   4  11
BRANCH   5  13
HETATM   13  O3  UNL     1      71.500   3.556  12.052  1.00  0.00    -0.390 OA
ATOM     14  H3  UNL     1      70.555   3.480  12.115  1.00  0.00     0.210 HD
ENDBRANCH   5  13
BRANCH   6  15
HETATM   15  O4  UNL     1      72.482   4.944  13.944  1.00  0.00    -0.388 OA
ATOM     16  H4  UNL     1      72.251   4.027  13.844  1.00  0.00     0.210 HD
ENDBRANCH   6  15
ENDBRANCH   1   2
BRANCH   1  17
HETATM   17  C8  UNL     1      73.171   7.762   9.594  1.00  0.00     0.044 C 
BRANCH  17  18
HETATM   18  C9  UNL     1      73.190   8.739   8.440  1.00  0.00     0.005 C 
BRANCH  18  19
HETATM   19  C10 UNL     1      73.026  10.168   8.835  1.00  0.00     0.002 C 
BRANCH  19  20
HETATM   20  C11 UNL     1      74.342  10.937   8.772  1.00  0.00     0.026 C 
BRANCH  20  21
HETATM   21  C12 UNL     1      74.337  11.890   9.940  1.00  0.00     0.168 C 
BRANCH  21  22
HETATM   22  O5  UNL     1      73.157  11.986  10.615  1.00  0.00    -0.387 OA
BRANCH  22  23
HETATM   23  C13 UNL     1      73.296  12.203  12.001  1.00  0.00     0.194 C 
BRANCH  23  24
HETATM   24  C14 UNL     1      72.358  11.398  12.796  1.00  0.00    -0.003 C 
HETATM   25  C15 UNL     1      71.108  11.690  13.008  1.00  0.00     0.001 C 
BRANCH  25  26
HETATM   26  C16 UNL     1      70.389  12.864  12.505  1.00  0.00     0.299 C 
BRANCH  26  27
HETATM   27  N2  UNL     1      69.877  13.734  13.545  1.00  0.00     0.091 N 
HETATM   28  C17 UNL     1      70.867  14.561  14.147  1.00  0.00     0.272 C 
HETATM   29  C18 UNL     1      70.741  14.649  15.650  1.00  0.00     0.030 C 
HETATM   30  C19 UNL     1      69.286  14.905  15.982  1.00  0.00     0.003 C 
HETATM   31  C20 UNL     1      68.398  13.775  15.501  1.00  0.00     0.030 C 
HETATM   32  C21 UNL     1      69.124  12.938  14.458  1.00  0.00     0.272 C 
ENDBRANCH  26  27
ENDBRANCH  25  26
ENDBRANCH  23  24
ENDBRANCH  22  23
ENDBRANCH  21  22
ENDBRANCH  20  21
ENDBRANCH  19  20
ENDBRANCH  18  19
ENDBRANCH  17  18
ENDBRANCH   1  17
TORSDOF 16
ENDMDL
MODEL 2
REMARK VINA RESULT: -6.505430291      4.063      7.157
REMARK  16 active torsions:
REMARK  status: ('A' for Active; 'I' for Inactive)
REMARK    1  A    between atoms: O1_1  and  C1_3 
REMARK    2  A    between atoms: C1_3  and  C2_4 
REMARK    3  A    between atoms: C3_5  and  O2_6 
REMARK    4  A    between atoms: C4_8  and  O3_9 
REMARK    5  A    between atoms: C5_11  and  O4_12 
REMARK    6  A    between atoms: N1_15  and  C7_16 
REMARK    7  A    between atoms: C7_16  and  C8_17 
REMARK    8  A    between atoms: C8_17  and  C9_18 
REMARK    9  A    between atoms: C9_18  and  C10_19 
REMARK   10  A    between atoms: C10_19  and  C11_20 
REMARK   11  A    between atoms: C11_20  and  C12_21 
REMARK   12  A    between atoms: C12_21  and  O5_22 
REMARK   13  A    between atoms: O5_22  and  C13_23 
REMARK   14  A    between atoms: C13_23  and  C14_24 
REMARK   15  A    between atoms: C15_25  and  C16_26 
REMARK   16  A    between atoms: C16_26  and  N2_27 
ROOT
HETATM    1  C7  UNL     1      72.782   8.273  10.690  1.00  0.00     0.064 C 
ENDROOT
BRANCH   1   2
HETATM    2  N1  UNL     1      72.193   7.474  11.671  1.00  0.00    -0.362 N 
HETATM    3  C2  UNL     1      70.826   7.194  11.644  1.00  0.00     0.143 C 
HETATM    4  C3  UNL     1      70.472   5.725  11.679  1.00  0.00     0.175 C 
HETATM    5  C4  UNL     1      71.691   4.834  11.704  1.00  0.00     0.182 C 
HETATM    6  C5  UNL     1      72.748   5.308  12.678  1.00  0.00     0.188 C 
HETATM    7  C6  UNL     1      72.957   6.789  12.621  1.00  0.00     0.098 C 
BRANCH   3   8
HETATM    8  C1  UNL     1      70.081   7.798  10.471  1.00  0.00     0.192 C 
BRANCH   8   9
HETATM    9  O1  UNL     1      69.444   8.961  10.932  1.00  0.00    -0.399 OA
ATOM     10  H1  UNL     1      68.513   8.777  10.975  1.00  0.00     0.209 HD
ENDBRANCH   8   9
ENDBRANCH   3   8
BRANCH   4  11
HETATM   11  O2  UNL     1      69.679   5.400  12.795  1.00  0.00    -0.391 OA
ATOM     12  H2  UNL     1      69.615   4.462  12.924  1.00  0.00     0.210 HD
ENDBRANCH   4  11
BRANCH   5  13
HETATM   13  O3  UNL     1      71.270   3.555  12.075  1.00  0.00    -0.390 OA
ATOM     14  H3  UNL     1      72.032   3.082  12.387  1.00  0.00     0.210 HD
ENDBRANCH   5  13
BRANCH   6  15
HETATM   15  O4  UNL     1      72.348   4.897  13.947  1.00  0.00    -0.388 OA
ATOM     16  H4  UNL     1      72.700   4.025  14.083  1.00  0.00     0.210 HD
ENDBRANCH   6  15
ENDBRANCH   1   2
BRANCH   1  17
HETATM   17  C8  UNL     1      73.210   7.540   9.465  1.00  0.00     0.044 C 
BRANCH  17  18
HETATM   18  C9  UNL     1      73.403   8.537   8.345  1.00  0.00     0.005 C 
BRANCH  18  19
HETATM   19  C10 UNL     1      72.809   9.881   8.604  1.00  0.00     0.002 C 
BRANCH  19  20
HETATM   20  C11 UNL     1      73.799  11.009   8.332  1.00  0.00     0.026 C 
BRANCH  20  21
HETATM   21  C12 UNL     1      75.095  10.354   7.928  1.00  0.00     0.168 C 
BRANCH  21  22
HETATM   22  O5  UNL     1      76.150  11.199   7.751  1.00  0.00    -0.387 OA
BRANCH  22  23
HETATM   23  C13 UNL     1      76.912  10.943   6.592  1.00  0.00     0.194 C 
BRANCH  23  24
HETATM   24  C14 UNL     1      76.086  10.868   5.379  1.00  0.00    -0.003 C 
HETATM   25  C15 UNL     1      76.135   9.918   4.492  1.00  0.00     0.001 C 
BRANCH  25  26
HETATM   26  C16 UNL     1      77.010   8.743   4.520  1.00  0.00     0.299 C 
BRANCH  26  27
HETATM   27  N2  UNL     1      76.324   7.501   4.818  1.00  0.00     0.091 N 
HETATM   28  C17 UNL     1      75.028   7.402   4.238  1.00  0.00     0.272 C 
HETATM   29  C18 UNL     1      73.994   6.827   5.176  1.00  0.00     0.030 C 
HETATM   30  C19 UNL     1      74.590   5.597   5.829  1.00  0.00     0.003 C 
HETATM   31  C20 UNL     1      75.823   5.940   6.641  1.00  0.00     0.030 C 
HETATM   32  C21 UNL     1      76.367   7.299   6.229  1.00  0.00     0.272 C 
ENDBRANCH  26  27
ENDBRANCH  25  26
ENDBRANCH  23  24
ENDBRANCH  22  23
ENDBRANCH  21  22
ENDBRANCH  20  21
ENDBRANCH  19  20
ENDBRANCH  18  19
ENDBRANCH  17  18
ENDBRANCH   1  17
TORSDOF 16
ENDMDL
MODEL 3
REMARK VINA RESULT: -6.489064627      3.169      8.230
REMARK  16 active torsions:
REMARK  status: ('A' for Active; 'I' for Inactive)
REMARK    1  A    between atoms: O1_1  and  C1_3 
REMARK    2  A    between atoms: C1_3  and  C2_4 
REMARK    3  A    between atoms: C3_5  and  O2_6 
REMARK    4  A    between atoms: C4_8  and  O3_9 
REMARK    5  A    between atoms: C5_11  and  O4_12 
REMARK    6  A    between atoms: N1_15  and  C7_16 
REMARK    7  A    between atoms: C7_16  and  C8_17 
REMARK    8  A    between atoms: C8_17  and  C9_18 
REMARK    9  A    between atoms: C9_18  and  C10_19 
REMARK   10  A    between atoms: C10_19  and  C11_20 
REMARK   11  A    between atoms: C11_20  and  C12_21 
REMARK   12  A    between atoms: C12_21  and  O5_22 
REMARK   13  A    between atoms: O5_22  and  C13_23 
REMARK   14  A    between atoms: C13_23  and  C14_24 
REMARK   15  A    between atoms: C15_25  and  C16_26 
REMARK   16  A    between atoms: C16_26  and  N2_27 
ROOT
HETATM    1  C7  UNL     1      71.483  15.507  14.039  1.00  0.00     0.064 C 
ENDROOT
BRANCH   1   2
HETATM    2  N1  UNL     1      70.156  15.363  14.446  1.00  0.00    -0.362 N 
HETATM    3  C2  UNL     1      69.539  14.111  14.456  1.00  0.00     0.143 C 
HETATM    4  C3  UNL     1      68.919  13.712  15.776  1.00  0.00     0.175 C 
HETATM    5  C4  UNL     1      69.122  14.753  16.851  1.00  0.00     0.182 C 
HETATM    6  C5  UNL     1      68.855  16.161  16.366  1.00  0.00     0.188 C 
HETATM    7  C6  UNL     1      69.438  16.421  15.012  1.00  0.00     0.098 C 
BRANCH   3   8
HETATM    8  C1  UNL     1      70.430  12.964  14.025  1.00  0.00     0.192 C 
BRANCH   8   9
HETATM    9  O1  UNL     1      69.678  11.783  14.134  1.00  0.00    -0.399 OA
ATOM     10  H1  UNL     1      68.771  12.007  13.964  1.00  0.00     0.209 HD
ENDBRANCH   8   9
ENDBRANCH   3   8
BRANCH   4  11
HETATM   11  O2  UNL     1      67.537  13.478  15.660  1.00  0.00    -0.391 OA
ATOM     12  H2  UNL     1      67.126  13.348  16.506  1.00  0.00     0.210 HD
ENDBRANCH   4  11
BRANCH   5  13
HETATM   13  O3  UNL     1      68.243  14.457  17.895  1.00  0.00    -0.390 OA
ATOM     14  H3  UNL     1      68.762  14.329  18.680  1.00  0.00     0.210 HD
ENDBRANCH   5  13
BRANCH   6  15
HETATM   15  O4  UNL     1      67.474  16.341  16.369  1.00  0.00    -0.388 OA
ATOM     16  H4  UNL     1      67.219  16.527  17.266  1.00  0.00     0.210 HD
ENDBRANCH   6  15
ENDBRANCH   1   2
BRANCH   1  17
HETATM   17  C8  UNL     1      71.666  16.273  12.773  1.00  0.00     0.044 C 
BRANCH  17  18
HETATM   18  C9  UNL     1      72.229  15.345  11.722  1.00  0.00     0.005 C 
BRANCH  18  19
HETATM   19  C10 UNL     1      73.321  14.450  12.205  1.00  0.00     0.002 C 
BRANCH  19  20
HETATM   20  C11 UNL     1      73.683  13.379  11.181  1.00  0.00     0.026 C 
BRANCH  20  21
HETATM   21  C12 UNL     1      73.022  12.106  11.642  1.00  0.00     0.168 C 
BRANCH  21  22
HETATM   22  O5  UNL     1      71.894  11.750  10.964  1.00  0.00    -0.387 OA
BRANCH  22  23
HETATM   23  C13 UNL     1      71.367  10.494  11.329  1.00  0.00     0.194 C 
BRANCH  23  24
HETATM   24  C14 UNL     1      70.920   9.711  10.168  1.00  0.00    -0.003 C 
HETATM   25  C15 UNL     1      71.500   8.638   9.716  1.00  0.00     0.001 C 
BRANCH  25  26
HETATM   26  C16 UNL     1      72.700   7.999  10.262  1.00  0.00     0.299 C 
BRANCH  26  27
HETATM   27  N2  UNL     1      72.453   6.715  10.889  1.00  0.00     0.091 N 
HETATM   28  C17 UNL     1      71.173   6.165  10.597  1.00  0.00     0.272 C 
HETATM   29  C18 UNL     1      70.493   5.557  11.800  1.00  0.00     0.030 C 
HETATM   30  C19 UNL     1      71.505   4.689  12.519  1.00  0.00     0.003 C 
HETATM   31  C20 UNL     1      72.688   5.502  13.007  1.00  0.00     0.030 C 
HETATM   32  C21 UNL     1      72.751   6.835  12.279  1.00  0.00     0.272 C 
ENDBRANCH  26  27
ENDBRANCH  25  26
ENDBRANCH  23  24
ENDBRANCH  22  23
ENDBRANCH  21  22
ENDBRANCH  20  21
ENDBRANCH  19  20
ENDBRANCH  18  19
ENDBRANCH  17  18
ENDBRANCH   1  17
TORSDOF 16
ENDMDL
MODEL 4
REMARK VINA RESULT: -6.460380714      1.181      1.859
REMARK  16 active torsions:
REMARK  status: ('A' for Active; 'I' for Inactive)
REMARK    1  A    between atoms: O1_1  and  C1_3 
REMARK    2  A    between atoms: C1_3  and  C2_4 
REMARK    3  A    between atoms: C3_5  and  O2_6 
REMARK    4  A    between atoms: C4_8  and  O3_9 
REMARK    5  A    between atoms: C5_11  and  O4_12 
REMARK    6  A    between atoms: N1_15  and  C7_16 
REMARK    7  A    between atoms: C7_16  and  C8_17 
REMARK    8  A    between atoms: C8_17  and  C9_18 
REMARK    9  A    between atoms: C9_18  and  C10_19 
REMARK   10  A    between atoms: C10_19  and  C11_20 
REMARK   11  A    between atoms: C11_20  and  C12_21 
REMARK   12  A    between atoms: C12_21  and  O5_22 
REMARK   13  A    between atoms: O5_22  and  C13_23 
REMARK   14  A    between atoms: C13_23  and  C14_24 
REMARK   15  A    between atoms: C15_25  and  C16_26 
REMARK   16  A    between atoms: C16_26  and  N2_27 
ROOT
HETATM    1  C7  UNL     1      72.764   8.310  10.690  1.00  0.00     0.064 C 
ENDROOT
BRANCH   1   2
HETATM    2  N1  UNL     1      72.176   7.502  11.664  1.00  0.00    -0.362 N 
HETATM    3  C2  UNL     1      70.813   7.201  11.622  1.00  0.00     0.143 C 
HETATM    4  C3  UNL     1      70.481   5.727  11.653  1.00  0.00     0.175 C 
HETATM    5  C4  UNL     1      71.713   4.855  11.690  1.00  0.00     0.182 C 
HETATM    6  C5  UNL     1      72.752   5.343  12.677  1.00  0.00     0.188 C 
HETATM    7  C6  UNL     1      72.939   6.827  12.623  1.00  0.00     0.098 C 
BRANCH   3   8
HETATM    8  C1  UNL     1      70.072   7.794  10.441  1.00  0.00     0.192 C 
BRANCH   8   9
HETATM    9  O1  UNL     1      69.403   8.940  10.898  1.00  0.00    -0.399 OA
ATOM     10  H1  UNL     1      69.980   9.682  10.758  1.00  0.00     0.209 HD
ENDBRANCH   8   9
ENDBRANCH   3   8
BRANCH   4  11
HETATM   11  O2  UNL     1      69.681   5.390  12.759  1.00  0.00    -0.391 OA
ATOM     12  H2  UNL     1      69.220   6.144  13.108  1.00  0.00     0.210 HD
ENDBRANCH   4  11
BRANCH   5  13
HETATM   13  O3  UNL     1      71.308   3.569  12.057  1.00  0.00    -0.390 OA
ATOM     14  H3  UNL     1      71.251   3.049  11.264  1.00  0.00     0.210 HD
ENDBRANCH   5  13
BRANCH   6  15
HETATM   15  O4  UNL     1      72.345   4.926  13.941  1.00  0.00    -0.388 OA
ATOM     16  H4  UNL     1      72.728   4.070  14.090  1.00  0.00     0.210 HD
ENDBRANCH   6  15
ENDBRANCH   1   2
BRANCH   1  17
HETATM   17  C8  UNL     1      73.183   7.590   9.454  1.00  0.00     0.044 C 
BRANCH  17  18
HETATM   18  C9  UNL     1      73.169   8.563   8.298  1.00  0.00     0.005 C 
BRANCH  18  19
HETATM   19  C10 UNL     1      72.882   9.976   8.680  1.00  0.00     0.002 C 
BRANCH  19  20
HETATM   20  C11 UNL     1      73.921  10.945   8.126  1.00  0.00     0.026 C 
BRANCH  20  21
HETATM   21  C12 UNL     1      75.139  10.814   9.003  1.00  0.00     0.168 C 
BRANCH  21  22
HETATM   22  O5  UNL     1      75.793  11.978   9.279  1.00  0.00    -0.387 OA
BRANCH  22  23
HETATM   23  C13 UNL     1      75.699  12.392  10.624  1.00  0.00     0.194 C 
BRANCH  23  24
HETATM   24  C14 UNL     1      74.771  13.518  10.804  1.00  0.00    -0.003 C 
HETATM   25  C15 UNL     1      73.545  13.422  11.227  1.00  0.00     0.001 C 
BRANCH  25  26
HETATM   26  C16 UNL     1      72.846  12.191  11.607  1.00  0.00     0.299 C 
BRANCH  26  27
HETATM   27  N2  UNL     1      71.540  12.410  12.197  1.00  0.00     0.091 N 
HETATM   28  C17 UNL     1      71.424  13.638  12.907  1.00  0.00     0.272 C 
HETATM   29  C18 UNL     1      70.689  13.503  14.220  1.00  0.00     0.030 C 
HETATM   30  C19 UNL     1      69.436  12.690  13.972  1.00  0.00     0.003 C 
HETATM   31  C20 UNL     1      69.766  11.298  13.472  1.00  0.00     0.030 C 
HETATM   32  C21 UNL     1      71.192  11.247  12.946  1.00  0.00     0.272 C 
ENDBRANCH  26  27
ENDBRANCH  25  26
ENDBRANCH  23  24
ENDBRANCH  22  23
ENDBRANCH  21  22
ENDBRANCH  20  21
ENDBRANCH  19  20
ENDBRANCH  18  19
ENDBRANCH  17  18
ENDBRANCH   1  17
TORSDOF 16
ENDMDL
MODEL 5
REMARK VINA RESULT: -6.413353635      3.504      7.018
REMARK  16 active torsions:
REMARK  status: ('A' for Active; 'I' for Inactive)
REMARK    1  A    between atoms: O1_1  and  C1_3 
REMARK    2  A    between atoms: C1_3  and  C2_4 
REMARK    3  A    between atoms: C3_5  and  O2_6 
REMARK    4  A    between atoms: C4_8  and  O3_9 
REMARK    5  A    between atoms: C5_11  and  O4_12 
REMARK    6  A    between atoms: N1_15  and  C7_16 
REMARK    7  A    between atoms: C7_16  and  C8_17 
REMARK    8  A    between atoms: C8_17  and  C9_18 
REMARK    9  A    between atoms: C9_18  and  C10_19 
REMARK   10  A    between atoms: C10_19  and  C11_20 
REMARK   11  A    between atoms: C11_20  and  C12_21 
REMARK   12  A    between atoms: C12_21  and  O5_22 
REMARK   13  A    between atoms: O5_22  and  C13_23 
REMARK   14  A    between atoms: C13_23  and  C14_24 
REMARK   15  A    between atoms: C15_25  and  C16_26 
REMARK   16  A    between atoms: C16_26  and  N2_27 
ROOT
HETATM    1  C7  UNL     1      73.740   8.065   9.010  1.00  0.00     0.064 C 
ENDROOT
BRANCH   1   2
HETATM    2  N1  UNL     1      72.450   8.564   9.198  1.00  0.00    -0.362 N 
HETATM    3  C2  UNL     1      71.519   7.873   9.976  1.00  0.00     0.143 C 
HETATM    4  C3  UNL     1      70.894   8.678  11.093  1.00  0.00     0.175 C 
HETATM    5  C4  UNL     1      71.435  10.086  11.167  1.00  0.00     0.182 C 
HETATM    6  C5  UNL     1      71.531  10.753   9.812  1.00  0.00     0.188 C 
HETATM    7  C6  UNL     1      72.081   9.840   8.762  1.00  0.00     0.098 C 
BRANCH   3   8
HETATM    8  C1  UNL     1      72.040   6.593  10.596  1.00  0.00     0.192 C 
BRANCH   8   9
HETATM    9  O1  UNL     1      71.280   6.345  11.750  1.00  0.00    -0.399 OA
ATOM     10  H1  UNL     1      71.669   6.843  12.459  1.00  0.00     0.209 HD
ENDBRANCH   8   9
ENDBRANCH   3   8
BRANCH   4  11
HETATM   11  O2  UNL     1      69.496   8.761  10.965  1.00  0.00    -0.391 OA
ATOM     12  H2  UNL     1      69.101   7.909  10.825  1.00  0.00     0.210 HD
ENDBRANCH   4  11
BRANCH   5  13
HETATM   13  O3  UNL     1      70.573  10.826  11.980  1.00  0.00    -0.390 OA
ATOM     14  H3  UNL     1      71.105  11.412  12.504  1.00  0.00     0.210 HD
ENDBRANCH   5  13
BRANCH   6  15
HETATM   15  O4  UNL     1      70.253  11.198   9.484  1.00  0.00    -0.388 OA
ATOM     16  H4  UNL     1      70.025  10.801   8.651  1.00  0.00     0.210 HD
ENDBRANCH   6  15
ENDBRANCH   1   2
BRANCH   1  17
HETATM   17  C8  UNL     1      74.210   8.074   7.596  1.00  0.00     0.044 C 
BRANCH  17  18
HETATM   18  C9  UNL     1      75.362   7.105   7.461  1.00  0.00     0.005 C 
BRANCH  18  19
HETATM   19  C10 UNL     1      75.214   6.116   6.354  1.00  0.00     0.002 C 
BRANCH  19  20
HETATM   20  C11 UNL     1      74.168   6.549   5.331  1.00  0.00     0.026 C 
BRANCH  20  21
HETATM   21  C12 UNL     1      74.920   6.914   4.078  1.00  0.00     0.168 C 
BRANCH  21  22
HETATM   22  O5  UNL     1      74.835   8.222   3.701  1.00  0.00    -0.387 OA
BRANCH  22  23
HETATM   23  C13 UNL     1      76.062   8.793   3.304  1.00  0.00     0.194 C 
BRANCH  23  24
HETATM   24  C14 UNL     1      77.044   8.837   4.397  1.00  0.00    -0.003 C 
HETATM   25  C15 UNL     1      77.083   9.733   5.339  1.00  0.00     0.001 C 
BRANCH  25  26
HETATM   26  C16 UNL     1      76.169  10.867   5.502  1.00  0.00     0.299 C 
BRANCH  26  27
HETATM   27  N2  UNL     1      75.640  11.012   6.845  1.00  0.00     0.091 N 
HETATM   28  C17 UNL     1      74.855  12.184   7.034  1.00  0.00     0.272 C 
HETATM   29  C18 UNL     1      75.138  12.889   8.339  1.00  0.00     0.030 C 
HETATM   30  C19 UNL     1      75.159  11.847   9.438  1.00  0.00     0.003 C 
HETATM   31  C20 UNL     1      76.251  10.821   9.211  1.00  0.00     0.030 C 
HETATM   32  C21 UNL     1      76.719  10.856   7.765  1.00  0.00     0.272 C 
ENDBRANCH  26  27
ENDBRANCH  25  26
ENDBRANCH  23  24
ENDBRANCH  22  23
ENDBRANCH  21  22
ENDBRANCH  20  21
ENDBRANCH  19  20
ENDBRANCH  18  19
ENDBRANCH  17  18
ENDBRANCH   1  17
TORSDOF 16
ENDMDL
