MODEL 1
REMARK VINA RESULT: -6.111636660      0.000      0.000
REMARK  16 active torsions:
REMARK  status: ('A' for Active; 'I' for Inactive)
REMARK    1  A    between atoms: C3_3  and  C4_4 
REMARK    2  A    between atoms: C4_4  and  C5_5 
REMARK    3  A    between atoms: C5_5  and  C6_6 
REMARK    4  A    between atoms: C6_6  and  C7_7 
REMARK    5  A    between atoms: C7_7  and  C8_8 
REMARK    6  A    between atoms: C11_11  and  C12_12 
REMARK    7  A    between atoms: C12_12  and  C13_13 
REMARK    8  A    between atoms: C13_13  and  C14_14 
REMARK    9  A    between atoms: C14_14  and  C15_15 
REMARK   10  A    between atoms: C15_15  and  O1_16 
REMARK   11  A    between atoms: O1_16  and  C16_17 
REMARK   12  A    between atoms: C17_19  and  C18_20 
REMARK   13  A    between atoms: C18_20  and  O3_21 
REMARK   14  A    between atoms: C19_23  and  O4_24 
REMARK   15  A    between atoms: C20_26  and  O5_27 
REMARK   16  A    between atoms: C21_29  and  O6_30 
ROOT
HETATM    1  C1  UNL     1      68.279  13.603  15.389  1.00  0.00     0.012 C 
HETATM    2  C2  UNL     1      68.729  14.218  16.328  1.00  0.00    -0.117 C 
HETATM    3  C3  UNL     1      69.289  14.980  17.465  1.00  0.00     0.093 C 
ENDROOT
BRANCH   3   4
HETATM    4  C4  UNL     1      68.142  15.691  18.176  1.00  0.00     0.012 C 
BRANCH   4   5
HETATM    5  C5  UNL     1      68.319  17.185  17.955  1.00  0.00     0.001 C 
BRANCH   5   6
HETATM    6  C6  UNL     1      67.471  17.651  16.797  1.00  0.00     0.005 C 
BRANCH   6   7
HETATM    7  C7  UNL     1      68.386  18.405  15.845  1.00  0.00     0.038 C 
BRANCH   7   8
HETATM    8  C8  UNL     1      68.942  17.516  14.799  1.00  0.00    -0.058 A 
HETATM    9  C9  UNL     1      68.130  17.007  13.812  1.00  0.00     0.007 A 
HETATM   10  C10 UNL     1      68.709  16.182  12.862  1.00  0.00     0.007 A 
HETATM   11  C11 UNL     1      70.030  15.832  12.829  1.00  0.00    -0.058 A 
HETATM   12  C22 UNL     1      70.821  16.374  13.857  1.00  0.00     0.007 A 
HETATM   13  C23 UNL     1      70.284  17.200  14.820  1.00  0.00     0.007 A 
BRANCH  11  14
HETATM   14  C12 UNL     1      70.674  14.957  11.821  1.00  0.00     0.038 C 
BRANCH  14  15
HETATM   15  C13 UNL     1      70.172  13.558  11.996  1.00  0.00     0.007 C 
BRANCH  15  16
HETATM   16  C14 UNL     1      70.984  12.682  12.888  1.00  0.00     0.027 C 
BRANCH  16  17
HETATM   17  C15 UNL     1      70.296  11.407  13.313  1.00  0.00     0.171 C 
BRANCH  17  18
HETATM   18  O1  UNL     1      70.516  10.481  12.290  1.00  0.00    -0.359 OA
BRANCH  18  19
HETATM   19  C16 UNL     1      71.846  10.301  12.007  1.00  0.00     0.291 C 
HETATM   20  O2  UNL     1      72.255   9.089  12.488  1.00  0.00    -0.348 OA
HETATM   21  C17 UNL     1      71.791   8.008  11.748  1.00  0.00     0.179 C 
HETATM   22  C19 UNL     1      72.221   8.082  10.301  1.00  0.00     0.180 C 
HETATM   23  C20 UNL     1      71.680   9.348   9.700  1.00  0.00     0.183 C 
HETATM   24  C21 UNL     1      72.193  10.514  10.552  1.00  0.00     0.204 C 
BRANCH  21  25
HETATM   25  C18 UNL     1      72.162   6.690  12.391  1.00  0.00     0.198 C 
BRANCH  25  26
HETATM   26  O3  UNL     1      73.357   6.874  13.083  1.00  0.00    -0.398 OA
ATOM     27  H3  UNL     1      73.270   7.657  13.612  1.00  0.00     0.209 HD
ENDBRANCH  25  26
ENDBRANCH  21  25
BRANCH  22  28
HETATM   28  O4  UNL     1      73.581   8.014  10.126  1.00  0.00    -0.390 OA
ATOM     29  H4  UNL     1      74.051   8.744  10.511  1.00  0.00     0.210 HD
ENDBRANCH  22  28
BRANCH  23  30
HETATM   30  O5  UNL     1      70.285   9.295   9.768  1.00  0.00    -0.390 OA
ATOM     31  H5  UNL     1      69.990   8.600   9.192  1.00  0.00     0.210 HD
ENDBRANCH  23  30
BRANCH  24  32
HETATM   32  O6  UNL     1      73.578  10.566  10.417  1.00  0.00    -0.388 OA
ATOM     33  H6  UNL     1      73.820  10.216   9.568  1.00  0.00     0.210 HD
ENDBRANCH  24  32
ENDBRANCH  18  19
ENDBRANCH  17  18
ENDBRANCH  16  17
ENDBRANCH  15  16
ENDBRANCH  14  15
ENDBRANCH  11  14
ENDBRANCH   7   8
ENDBRANCH   6   7
ENDBRANCH   5   6
ENDBRANCH   4   5
ENDBRANCH   3   4
TORSDOF 16
ENDMDL
MODEL 2
REMARK VINA RESULT: -5.946187182      6.796      9.123
REMARK  16 active torsions:
REMARK  status: ('A' for Active; 'I' for Inactive)
REMARK    1  A    between atoms: C3_3  and  C4_4 
REMARK    2  A    between atoms: C4_4  and  C5_5 
REMARK    3  A    between atoms: C5_5  and  C6_6 
REMARK    4  A    between atoms: C6_6  and  C7_7 
REMARK    5  A    between atoms: C7_7  and  C8_8 
REMARK    6  A    between atoms: C11_11  and  C12_12 
REMARK    7  A    between atoms: C12_12  and  C13_13 
REMARK    8  A    between atoms: C13_13  and  C14_14 
REMARK    9  A    between atoms: C14_14  and  C15_15 
REMARK   10  A    between atoms: C15_15  and  O1_16 
REMARK   11  A    between atoms: O1_16  and  C16_17 
REMARK   12  A    between atoms: C17_19  and  C18_20 
REMARK   13  A    between atoms: C18_20  and  O3_21 
REMARK   14  A    between atoms: C19_23  and  O4_24 
REMARK   15  A    between atoms: C20_26  and  O5_27 
REMARK   16  A    between atoms: C21_29  and  O6_30 
ROOT
HETATM    1  C1  UNL     1      73.046   7.430  12.830  1.00  0.00     0.012 C 
HETATM    2  C2  UNL     1      72.743   6.258  12.813  1.00  0.00    -0.117 C 
HETATM    3  C3  UNL     1      72.368   4.828  12.809  1.00  0.00     0.093 C 
ENDROOT
BRANCH   3   4
HETATM    4  C4  UNL     1      71.258   4.627  11.782  1.00  0.00     0.012 C 
BRANCH   4   5
HETATM    5  C5  UNL     1      70.368   5.859  11.818  1.00  0.00     0.001 C 
BRANCH   5   6
HETATM    6  C6  UNL     1      70.229   6.450  10.437  1.00  0.00     0.005 C 
BRANCH   6   7
HETATM    7  C7  UNL     1      70.051   7.952  10.607  1.00  0.00     0.038 C 
BRANCH   7   8
HETATM    8  C8  UNL     1      71.177   8.708  10.013  1.00  0.00    -0.058 A 
HETATM    9  C9  UNL     1      72.249   8.045   9.462  1.00  0.00     0.007 A 
HETATM   10  C10 UNL     1      73.271   8.808   8.923  1.00  0.00     0.007 A 
HETATM   11  C11 UNL     1      73.297  10.175   8.894  1.00  0.00    -0.058 A 
HETATM   12  C22 UNL     1      72.182  10.809   9.468  1.00  0.00     0.007 A 
HETATM   13  C23 UNL     1      71.144  10.086  10.015  1.00  0.00     0.007 A 
BRANCH  11  14
HETATM   14  C12 UNL     1      74.374  11.014   8.316  1.00  0.00     0.038 C 
BRANCH  14  15
HETATM   15  C13 UNL     1      75.248  10.158   7.453  1.00  0.00     0.007 C 
BRANCH  15  16
HETATM   16  C14 UNL     1      76.264  10.881   6.635  1.00  0.00     0.027 C 
BRANCH  16  17
HETATM   17  C15 UNL     1      76.637  10.194   5.345  1.00  0.00     0.171 C 
BRANCH  17  18
HETATM   18  O1  UNL     1      75.568   9.355   5.021  1.00  0.00    -0.359 OA
BRANCH  18  19
HETATM   19  C16 UNL     1      75.940   8.287   4.243  1.00  0.00     0.291 C 
HETATM   20  O2  UNL     1      76.860   7.533   4.915  1.00  0.00    -0.348 OA
HETATM   21  C17 UNL     1      76.319   6.785   5.954  1.00  0.00     0.179 C 
HETATM   22  C19 UNL     1      75.235   5.847   5.476  1.00  0.00     0.180 C 
HETATM   23  C20 UNL     1      74.141   6.656   4.840  1.00  0.00     0.183 C 
HETATM   24  C21 UNL     1      74.776   7.482   3.716  1.00  0.00     0.204 C 
BRANCH  21  25
HETATM   25  C18 UNL     1      77.392   6.068   6.745  1.00  0.00     0.198 C 
BRANCH  25  26
HETATM   26  O3  UNL     1      76.780   5.047   7.467  1.00  0.00    -0.398 OA
ATOM     27  H3  UNL     1      77.174   4.225   7.201  1.00  0.00     0.209 HD
ENDBRANCH  25  26
ENDBRANCH  21  25
BRANCH  22  28
HETATM   28  O4  UNL     1      75.683   4.885   4.605  1.00  0.00    -0.390 OA
ATOM     29  H4  UNL     1      75.061   4.671   3.920  1.00  0.00     0.210 HD
ENDBRANCH  22  28
BRANCH  23  30
HETATM   30  O5  UNL     1      73.618   7.512   5.813  1.00  0.00    -0.390 OA
ATOM     31  H5  UNL     1      73.310   8.298   5.378  1.00  0.00     0.210 HD
ENDBRANCH  23  30
BRANCH  24  32
HETATM   32  O6  UNL     1      75.237   6.598   2.744  1.00  0.00    -0.388 OA
ATOM     33  H6  UNL     1      74.743   5.789   2.802  1.00  0.00     0.210 HD
ENDBRANCH  24  32
ENDBRANCH  18  19
ENDBRANCH  17  18
ENDBRANCH  16  17
ENDBRANCH  15  16
ENDBRANCH  14  15
ENDBRANCH  11  14
ENDBRANCH   7   8
ENDBRANCH   6   7
ENDBRANCH   5   6
ENDBRANCH   4   5
ENDBRANCH   3   4
TORSDOF 16
ENDMDL
MODEL 3
REMARK VINA RESULT: -5.920933702      7.426      9.469
REMARK  16 active torsions:
REMARK  status: ('A' for Active; 'I' for Inactive)
REMARK    1  A    between atoms: C3_3  and  C4_4 
REMARK    2  A    between atoms: C4_4  and  C5_5 
REMARK    3  A    between atoms: C5_5  and  C6_6 
REMARK    4  A    between atoms: C6_6  and  C7_7 
REMARK    5  A    between atoms: C7_7  and  C8_8 
REMARK    6  A    between atoms: C11_11  and  C12_12 
REMARK    7  A    between atoms: C12_12  and  C13_13 
REMARK    8  A    between atoms: C13_13  and  C14_14 
REMARK    9  A    between atoms: C14_14  and  C15_15 
REMARK   10  A    between atoms: C15_15  and  O1_16 
REMARK   11  A    between atoms: O1_16  and  C16_17 
REMARK   12  A    between atoms: C17_19  and  C18_20 
REMARK   13  A    between atoms: C18_20  and  O3_21 
REMARK   14  A    between atoms: C19_23  and  O4_24 
REMARK   15  A    between atoms: C20_26  and  O5_27 
REMARK   16  A    between atoms: C21_29  and  O6_30 
ROOT
HETATM    1  C1  UNL     1      73.150   5.285  13.493  1.00  0.00     0.012 C 
HETATM    2  C2  UNL     1      72.277   4.845  12.780  1.00  0.00    -0.117 C 
HETATM    3  C3  UNL     1      71.199   4.307  11.923  1.00  0.00     0.093 C 
ENDROOT
BRANCH   3   4
HETATM    4  C4  UNL     1      70.913   5.322  10.821  1.00  0.00     0.012 C 
BRANCH   4   5
HETATM    5  C5  UNL     1      70.500   6.624  11.489  1.00  0.00     0.001 C 
BRANCH   5   6
HETATM    6  C6  UNL     1      71.030   7.805  10.714  1.00  0.00     0.005 C 
BRANCH   6   7
HETATM    7  C7  UNL     1      72.351   7.378  10.092  1.00  0.00     0.038 C 
BRANCH   7   8
HETATM    8  C8  UNL     1      73.041   8.513   9.437  1.00  0.00    -0.058 A 
HETATM    9  C9  UNL     1      74.335   8.378   8.990  1.00  0.00     0.007 A 
HETATM   10  C10 UNL     1      74.927   9.475   8.386  1.00  0.00     0.007 A 
HETATM   11  C11 UNL     1      74.322  10.687   8.200  1.00  0.00    -0.058 A 
HETATM   12  C22 UNL     1      73.002  10.779   8.673  1.00  0.00     0.007 A 
HETATM   13  C23 UNL     1      72.377   9.711   9.279  1.00  0.00     0.007 A 
BRANCH  11  14
HETATM   14  C12 UNL     1      74.930  11.873   7.551  1.00  0.00     0.038 C 
BRANCH  14  15
HETATM   15  C13 UNL     1      76.120  11.436   6.754  1.00  0.00     0.007 C 
BRANCH  15  16
HETATM   16  C14 UNL     1      75.999  11.573   5.275  1.00  0.00     0.027 C 
BRANCH  16  17
HETATM   17  C15 UNL     1      76.532  10.401   4.489  1.00  0.00     0.171 C 
BRANCH  17  18
HETATM   18  O1  UNL     1      75.644   9.344   4.705  1.00  0.00    -0.359 OA
BRANCH  18  19
HETATM   19  C16 UNL     1      76.047   8.175   4.111  1.00  0.00     0.291 C 
HETATM   20  O2  UNL     1      76.968   7.553   4.907  1.00  0.00    -0.348 OA
HETATM   21  C17 UNL     1      76.421   6.969   6.044  1.00  0.00     0.179 C 
HETATM   22  C19 UNL     1      75.360   5.947   5.705  1.00  0.00     0.180 C 
HETATM   23  C20 UNL     1      74.265   6.625   4.933  1.00  0.00     0.183 C 
HETATM   24  C21 UNL     1      74.906   7.274   3.701  1.00  0.00     0.204 C 
BRANCH  21  25
HETATM   25  C18 UNL     1      77.491   6.407   6.953  1.00  0.00     0.198 C 
BRANCH  25  26
HETATM   26  O3  UNL     1      76.913   5.402   7.724  1.00  0.00    -0.398 OA
ATOM     27  H3  UNL     1      77.429   5.308   8.515  1.00  0.00     0.209 HD
ENDBRANCH  25  26
ENDBRANCH  21  25
BRANCH  22  28
HETATM   28  O4  UNL     1      75.840   4.868   5.003  1.00  0.00    -0.390 OA
ATOM     29  H4  UNL     1      75.193   4.462   4.439  1.00  0.00     0.210 HD
ENDBRANCH  22  28
BRANCH  23  30
HETATM   30  O5  UNL     1      73.711   7.614   5.751  1.00  0.00    -0.390 OA
ATOM     31  H5  UNL     1      73.264   8.239   5.192  1.00  0.00     0.210 HD
ENDBRANCH  23  30
BRANCH  24  32
HETATM   32  O6  UNL     1      75.398   6.257   2.889  1.00  0.00    -0.388 OA
ATOM     33  H6  UNL     1      74.690   5.659   2.677  1.00  0.00     0.210 HD
ENDBRANCH  24  32
ENDBRANCH  18  19
ENDBRANCH  17  18
ENDBRANCH  16  17
ENDBRANCH  15  16
ENDBRANCH  14  15
ENDBRANCH  11  14
ENDBRANCH   7   8
ENDBRANCH   6   7
ENDBRANCH   5   6
ENDBRANCH   4   5
ENDBRANCH   3   4
TORSDOF 16
ENDMDL
MODEL 4
REMARK VINA RESULT: -5.918337998      1.492      2.203
REMARK  16 active torsions:
REMARK  status: ('A' for Active; 'I' for Inactive)
REMARK    1  A    between atoms: C3_3  and  C4_4 
REMARK    2  A    between atoms: C4_4  and  C5_5 
REMARK    3  A    between atoms: C5_5  and  C6_6 
REMARK    4  A    between atoms: C6_6  and  C7_7 
REMARK    5  A    between atoms: C7_7  and  C8_8 
REMARK    6  A    between atoms: C11_11  and  C12_12 
REMARK    7  A    between atoms: C12_12  and  C13_13 
REMARK    8  A    between atoms: C13_13  and  C14_14 
REMARK    9  A    between atoms: C14_14  and  C15_15 
REMARK   10  A    between atoms: C15_15  and  O1_16 
REMARK   11  A    between atoms: O1_16  and  C16_17 
REMARK   12  A    between atoms: C17_19  and  C18_20 
REMARK   13  A    between atoms: C18_20  and  O3_21 
REMARK   14  A    between atoms: C19_23  and  O4_24 
REMARK   15  A    between atoms: C20_26  and  O5_27 
REMARK   16  A    between atoms: C21_29  and  O6_30 
ROOT
HETATM    1  C1  UNL     1      72.713  15.987  17.795  1.00  0.00     0.012 C 
HETATM    2  C2  UNL     1      71.939  15.558  18.621  1.00  0.00    -0.117 C 
HETATM    3  C3  UNL     1      71.006  15.025  19.637  1.00  0.00     0.093 C 
ENDROOT
BRANCH   3   4
HETATM    4  C4  UNL     1      70.427  16.200  20.419  1.00  0.00     0.012 C 
BRANCH   4   5
HETATM    5  C5  UNL     1      69.521  16.978  19.478  1.00  0.00     0.001 C 
BRANCH   5   6
HETATM    6  C6  UNL     1      68.304  16.161  19.123  1.00  0.00     0.005 C 
BRANCH   6   7
HETATM    7  C7  UNL     1      67.914  16.530  17.699  1.00  0.00     0.038 C 
BRANCH   7   8
HETATM    8  C8  UNL     1      68.807  15.893  16.704  1.00  0.00    -0.058 A 
HETATM    9  C9  UNL     1      68.943  14.524  16.665  1.00  0.00     0.007 A 
HETATM   10  C10 UNL     1      69.793  13.988  15.712  1.00  0.00     0.007 A 
HETATM   11  C11 UNL     1      70.509  14.715  14.803  1.00  0.00    -0.058 A 
HETATM   12  C22 UNL     1      70.339  16.108  14.880  1.00  0.00     0.007 A 
HETATM   13  C23 UNL     1      69.503  16.681  15.814  1.00  0.00     0.007 A 
BRANCH  11  14
HETATM   14  C12 UNL     1      71.418  14.166  13.769  1.00  0.00     0.038 C 
BRANCH  14  15
HETATM   15  C13 UNL     1      70.647  13.964  12.501  1.00  0.00     0.007 C 
BRANCH  15  16
HETATM   16  C14 UNL     1      70.337  12.550  12.145  1.00  0.00     0.027 C 
BRANCH  16  17
HETATM   17  C15 UNL     1      70.842  11.528  13.133  1.00  0.00     0.171 C 
BRANCH  17  18
HETATM   18  O1  UNL     1      70.807  10.295  12.476  1.00  0.00    -0.359 OA
BRANCH  18  19
HETATM   19  C16 UNL     1      72.030   9.918  11.979  1.00  0.00     0.291 C 
HETATM   20  O2  UNL     1      72.360   8.685  12.468  1.00  0.00    -0.348 OA
HETATM   21  C17 UNL     1      71.634   7.645  11.899  1.00  0.00     0.179 C 
HETATM   22  C19 UNL     1      71.800   7.589  10.398  1.00  0.00     0.180 C 
HETATM   23  C20 UNL     1      71.327   8.888   9.811  1.00  0.00     0.183 C 
HETATM   24  C21 UNL     1      72.131  10.011  10.475  1.00  0.00     0.204 C 
BRANCH  21  25
HETATM   25  C18 UNL     1      71.944   6.320  12.562  1.00  0.00     0.198 C 
BRANCH  25  26
HETATM   26  O3  UNL     1      73.216   6.410  13.121  1.00  0.00    -0.398 OA
ATOM     27  H3  UNL     1      73.117   6.456  14.065  1.00  0.00     0.209 HD
ENDBRANCH  25  26
ENDBRANCH  21  25
BRANCH  22  28
HETATM   28  O4  UNL     1      73.086   7.325   9.995  1.00  0.00    -0.390 OA
ATOM     29  H4  UNL     1      73.224   6.423   9.730  1.00  0.00     0.210 HD
ENDBRANCH  22  28
BRANCH  23  30
HETATM   30  O5  UNL     1      69.972   9.033  10.124  1.00  0.00    -0.390 OA
ATOM     31  H5  UNL     1      69.545   9.454   9.387  1.00  0.00     0.210 HD
ENDBRANCH  23  30
BRANCH  24  32
HETATM   32  O6  UNL     1      73.463   9.863  10.099  1.00  0.00    -0.388 OA
ATOM     33  H6  UNL     1      73.505   9.694   9.165  1.00  0.00     0.210 HD
ENDBRANCH  24  32
ENDBRANCH  18  19
ENDBRANCH  17  18
ENDBRANCH  16  17
ENDBRANCH  15  16
ENDBRANCH  14  15
ENDBRANCH  11  14
ENDBRANCH   7   8
ENDBRANCH   6   7
ENDBRANCH   5   6
ENDBRANCH   4   5
ENDBRANCH   3   4
TORSDOF 16
ENDMDL
MODEL 5
REMARK VINA RESULT: -5.812624021      5.485     11.217
REMARK  16 active torsions:
REMARK  status: ('A' for Active; 'I' for Inactive)
REMARK    1  A    between atoms: C3_3  and  C4_4 
REMARK    2  A    between atoms: C4_4  and  C5_5 
REMARK    3  A    between atoms: C5_5  and  C6_6 
REMARK    4  A    between atoms: C6_6  and  C7_7 
REMARK    5  A    between atoms: C7_7  and  C8_8 
REMARK    6  A    between atoms: C11_11  and  C12_12 
REMARK    7  A    between atoms: C12_12  and  C13_13 
REMARK    8  A    between atoms: C13_13  and  C14_14 
REMARK    9  A    between atoms: C14_14  and  C15_15 
REMARK   10  A    between atoms: C15_15  and  O1_16 
REMARK   11  A    between atoms: O1_16  and  C16_17 
REMARK   12  A    between atoms: C17_19  and  C18_20 
REMARK   13  A    between atoms: C18_20  and  O3_21 
REMARK   14  A    between atoms: C19_23  and  O4_24 
REMARK   15  A    between atoms: C20_26  and  O5_27 
REMARK   16  A    between atoms: C21_29  and  O6_30 
ROOT
HETATM    1  C1  UNL     1      74.560   7.523   7.453  1.00  0.00     0.012 C 
HETATM    2  C2  UNL     1      74.612   6.682   6.584  1.00  0.00    -0.117 C 
HETATM    3  C3  UNL     1      74.681   5.668   5.512  1.00  0.00     0.093 C 
ENDROOT
BRANCH   3   4
HETATM    4  C4  UNL     1      75.732   4.632   5.898  1.00  0.00     0.012 C 
BRANCH   4   5
HETATM    5  C5  UNL     1      76.732   4.541   4.756  1.00  0.00     0.001 C 
BRANCH   5   6
HETATM    6  C6  UNL     1      78.030   5.209   5.136  1.00  0.00     0.005 C 
BRANCH   6   7
HETATM    7  C7  UNL     1      78.273   6.325   4.132  1.00  0.00     0.038 C 
BRANCH   7   8
HETATM    8  C8  UNL     1      77.661   7.601   4.570  1.00  0.00    -0.058 A 
HETATM    9  C9  UNL     1      78.029   8.176   5.764  1.00  0.00     0.007 A 
HETATM   10  C10 UNL     1      77.422   9.370   6.119  1.00  0.00     0.007 A 
HETATM   11  C11 UNL     1      76.481  10.022   5.372  1.00  0.00    -0.058 A 
HETATM   12  C22 UNL     1      76.136   9.397   4.161  1.00  0.00     0.007 A 
HETATM   13  C23 UNL     1      76.717   8.210   3.771  1.00  0.00     0.007 A 
BRANCH  11  14
HETATM   14  C12 UNL     1      75.822  11.302   5.725  1.00  0.00     0.038 C 
BRANCH  14  15
HETATM   15  C13 UNL     1      75.686  11.385   7.213  1.00  0.00     0.007 C 
BRANCH  15  16
HETATM   16  C14 UNL     1      74.300  11.260   7.748  1.00  0.00     0.027 C 
BRANCH  16  17
HETATM   17  C15 UNL     1      74.201  11.304   9.254  1.00  0.00     0.171 C 
BRANCH  17  18
HETATM   18  O1  UNL     1      73.695  10.064   9.651  1.00  0.00    -0.359 OA
BRANCH  18  19
HETATM   19  C16 UNL     1      72.373   9.895   9.324  1.00  0.00     0.291 C 
HETATM   20  O2  UNL     1      72.027   8.583   9.490  1.00  0.00    -0.348 OA
HETATM   21  C17 UNL     1      71.907   8.199  10.820  1.00  0.00     0.179 C 
HETATM   22  C19 UNL     1      70.885   9.029  11.563  1.00  0.00     0.180 C 
HETATM   23  C20 UNL     1      71.301  10.470  11.510  1.00  0.00     0.183 C 
HETATM   24  C21 UNL     1      71.443  10.852  10.032  1.00  0.00     0.204 C 
BRANCH  21  25
HETATM   25  C18 UNL     1      71.649   6.714  10.952  1.00  0.00     0.198 C 
BRANCH  25  26
HETATM   26  O3  UNL     1      70.438   6.434  10.326  1.00  0.00    -0.398 OA
ATOM     27  H3  UNL     1      70.062   5.670  10.747  1.00  0.00     0.209 HD
ENDBRANCH  25  26
ENDBRANCH  21  25
BRANCH  22  28
HETATM   28  O4  UNL     1      69.606   8.884  11.084  1.00  0.00    -0.390 OA
ATOM     29  H4  UNL     1      69.195   8.066  11.338  1.00  0.00     0.210 HD
ENDBRANCH  22  28
BRANCH  23  30
HETATM   30  O5  UNL     1      72.541  10.584  12.145  1.00  0.00    -0.390 OA
ATOM     31  H5  UNL     1      72.495  11.317  12.747  1.00  0.00     0.210 HD
ENDBRANCH  23  30
BRANCH  24  32
HETATM   32  O6  UNL     1      70.182  10.777   9.448  1.00  0.00    -0.388 OA
ATOM     33  H6  UNL     1      69.828   9.906   9.585  1.00  0.00     0.210 HD
ENDBRANCH  24  32
ENDBRANCH  18  19
ENDBRANCH  17  18
ENDBRANCH  16  17
ENDBRANCH  15  16
ENDBRANCH  14  15
ENDBRANCH  11  14
ENDBRANCH   7   8
ENDBRANCH   6   7
ENDBRANCH   5   6
ENDBRANCH   4   5
ENDBRANCH   3   4
TORSDOF 16
ENDMDL
