MODEL 1
REMARK VINA RESULT: -6.729749015      0.000      0.000
REMARK  14 active torsions:
REMARK  status: ('A' for Active; 'I' for Inactive)
REMARK    1  A    between atoms: C7_7  and  C8_8 
REMARK    2  A    between atoms: C8_8  and  C9_9 
REMARK    3  A    between atoms: C9_9  and  C10_10 
REMARK    4  A    between atoms: C10_10  and  O1_11 
REMARK    5  A    between atoms: O1_11  and  C11_12 
REMARK    6  A    between atoms: C11_12  and  C12_13 
REMARK    7  A    between atoms: C12_13  and  O2_14 
REMARK    8  A    between atoms: O2_14  and  C13_15 
REMARK    9  A    between atoms: C13_15  and  O3_16 
REMARK   10  A    between atoms: O3_16  and  C14_17 
REMARK   11  A    between atoms: C14_17  and  C15_18 
REMARK   12  A    between atoms: C15_18  and  N1_19 
REMARK   13  A    between atoms: N1_19  and  C16_21 
REMARK   14  A    between atoms: C17_24  and  N3_25 
REMARK       I    between atoms: N3_25  and  C18_27 
ROOT
HETATM    1  C14 UNL     1      70.137  12.765  12.760  1.00  0.00     0.190 C 
ENDROOT
BRANCH   1   2
HETATM    2  O3  UNL     1      70.610  14.010  12.468  1.00  0.00    -0.365 OA
BRANCH   2   3
HETATM    3  C13 UNL     1      71.929  13.998  12.046  1.00  0.00     0.337 C 
BRANCH   3   4
HETATM    4  O2  UNL     1      72.661  13.354  13.027  1.00  0.00    -0.365 OA
BRANCH   4   5
HETATM    5  C12 UNL     1      73.548  12.475  12.441  1.00  0.00     0.196 C 
BRANCH   5   6
HETATM    6  C11 UNL     1      73.694  12.610  10.961  1.00  0.00     0.193 C 
BRANCH   6   7
HETATM    7  O1  UNL     1      73.577  11.434  10.252  1.00  0.00    -0.389 OA
BRANCH   7   8
HETATM    8  C10 UNL     1      72.348  10.822  10.328  1.00  0.00     0.168 C 
BRANCH   8   9
HETATM    9  C9  UNL     1      72.526   9.345  10.556  1.00  0.00     0.031 C 
BRANCH   9  10
HETATM   10  C8  UNL     1      71.852   8.955  11.836  1.00  0.00     0.041 C 
BRANCH  10  11
HETATM   11  C7  UNL     1      71.798   7.493  11.970  1.00  0.00    -0.052 A 
HETATM   12  C2  UNL     1      70.821   6.782  11.321  1.00  0.00    -0.056 A 
HETATM   13  C1  UNL     1      69.785   7.401  10.468  1.00  0.00     0.049 C 
HETATM   14  C3  UNL     1      70.764   5.398  11.438  1.00  0.00     0.007 A 
HETATM   15  C4  UNL     1      71.704   4.754  12.215  1.00  0.00     0.001 A 
HETATM   16  C5  UNL     1      72.700   5.459  12.878  1.00  0.00     0.001 A 
HETATM   17  C6  UNL     1      72.726   6.837  12.739  1.00  0.00     0.007 A 
ENDBRANCH  10  11
ENDBRANCH   9  10
ENDBRANCH   8   9
ENDBRANCH   7   8
ENDBRANCH   6   7
ENDBRANCH   5   6
ENDBRANCH   4   5
ENDBRANCH   3   4
ENDBRANCH   2   3
ENDBRANCH   1   2
BRANCH   1  18
HETATM   18  C15 UNL     1      69.414  12.629  14.070  1.00  0.00     0.148 C 
BRANCH  18  19
HETATM   19  N1  UNL     1      70.099  13.459  15.024  1.00  0.00    -0.367 N 
ATOM     20  H1  UNL     1      71.109  13.400  15.151  1.00  0.00     0.161 HD
BRANCH  19  21
HETATM   21  C16 UNL     1      69.368  14.298  15.724  1.00  0.00     0.176 A 
HETATM   22  N2  UNL     1      69.289  14.431  17.051  1.00  0.00    -0.168 N 
HETATM   23  C17 UNL     1      68.488  15.336  17.538  1.00  0.00     0.693 A 
ATOM     24  H2  UNL     1      69.842  13.837  17.668  1.00  0.00     0.186 HD
HETATM   25  N6  UNL     1      67.788  16.085  16.673  1.00  0.00    -0.157 N 
HETATM   26  S1  UNL     1      68.277  15.492  15.179  1.00  0.00     0.039 SA
ATOM     27  H6  UNL     1      67.122  16.831  16.874  1.00  0.00     0.193 HD
BRANCH  23  28
HETATM   28  N3  UNL     1      68.318  15.568  18.830  1.00  0.00    -0.163 N 
HETATM   29  C18 UNL     1      69.450  15.675  19.646  1.00  0.00     0.200 C 
HETATM   30  N4  UNL     1      69.999  16.820  19.835  1.00  0.00    -0.373 N 
HETATM   31  N5  UNL     1      69.990  14.535  20.262  1.00  0.00    -0.063 NA
ATOM     32  H42 UNL     1      69.606  17.648  19.387  1.00  0.00     0.158 HD
ATOM     33  H41 UNL     1      70.824  16.898  20.429  1.00  0.00     0.158 HD
ATOM     34  H3  UNL     1      67.382  15.666  19.223  1.00  0.00     0.187 HD
ENDBRANCH  23  28
ENDBRANCH  19  21
ENDBRANCH  18  19
ENDBRANCH   1  18
TORSDOF 14
ENDMDL
MODEL 2
REMARK VINA RESULT: -6.710357757      2.051      2.609
REMARK  14 active torsions:
REMARK  status: ('A' for Active; 'I' for Inactive)
REMARK    1  A    between atoms: C7_7  and  C8_8 
REMARK    2  A    between atoms: C8_8  and  C9_9 
REMARK    3  A    between atoms: C9_9  and  C10_10 
REMARK    4  A    between atoms: C10_10  and  O1_11 
REMARK    5  A    between atoms: O1_11  and  C11_12 
REMARK    6  A    between atoms: C11_12  and  C12_13 
REMARK    7  A    between atoms: C12_13  and  O2_14 
REMARK    8  A    between atoms: O2_14  and  C13_15 
REMARK    9  A    between atoms: C13_15  and  O3_16 
REMARK   10  A    between atoms: O3_16  and  C14_17 
REMARK   11  A    between atoms: C14_17  and  C15_18 
REMARK   12  A    between atoms: C15_18  and  N1_19 
REMARK   13  A    between atoms: N1_19  and  C16_21 
REMARK   14  A    between atoms: C17_24  and  N3_25 
REMARK       I    between atoms: N3_25  and  C18_27 
ROOT
HETATM    1  C14 UNL     1      69.378  16.991  10.965  1.00  0.00     0.190 C 
ENDROOT
BRANCH   1   2
HETATM    2  O3  UNL     1      68.646  15.847  10.848  1.00  0.00    -0.365 OA
BRANCH   2   3
HETATM    3  C13 UNL     1      69.416  14.749  10.504  1.00  0.00     0.337 C 
BRANCH   3   4
HETATM    4  O2  UNL     1      70.361  14.591  11.503  1.00  0.00    -0.365 OA
BRANCH   4   5
HETATM    5  C12 UNL     1      69.940  13.622  12.390  1.00  0.00     0.196 C 
BRANCH   5   6
HETATM    6  C11 UNL     1      71.026  12.790  12.987  1.00  0.00     0.193 C 
BRANCH   6   7
HETATM    7  O1  UNL     1      70.608  11.614  13.571  1.00  0.00    -0.389 OA
BRANCH   7   8
HETATM    8  C10 UNL     1      70.601  10.516  12.744  1.00  0.00     0.168 C 
BRANCH   8   9
HETATM    9  C9  UNL     1      71.950   9.851  12.765  1.00  0.00     0.031 C 
BRANCH   9  10
HETATM   10  C8  UNL     1      72.117   9.026  11.525  1.00  0.00     0.041 C 
BRANCH  10  11
HETATM   11  C7  UNL     1      71.919   7.601  11.820  1.00  0.00    -0.052 A 
HETATM   12  C2  UNL     1      70.840   6.936  11.294  1.00  0.00    -0.056 A 
HETATM   13  C1  UNL     1      69.831   7.573  10.421  1.00  0.00     0.049 C 
HETATM   14  C3  UNL     1      70.646   5.587  11.564  1.00  0.00     0.007 A 
HETATM   15  C4  UNL     1      71.554   4.929  12.367  1.00  0.00     0.001 A 
HETATM   16  C5  UNL     1      72.651   5.587  12.907  1.00  0.00     0.001 A 
HETATM   17  C6  UNL     1      72.813   6.931  12.617  1.00  0.00     0.007 A 
ENDBRANCH  10  11
ENDBRANCH   9  10
ENDBRANCH   8   9
ENDBRANCH   7   8
ENDBRANCH   6   7
ENDBRANCH   5   6
ENDBRANCH   4   5
ENDBRANCH   3   4
ENDBRANCH   2   3
ENDBRANCH   1   2
BRANCH   1  18
HETATM   18  C15 UNL     1      69.155  17.787  12.219  1.00  0.00     0.148 C 
BRANCH  18  19
HETATM   19  N1  UNL     1      69.898  17.146  13.270  1.00  0.00    -0.367 N 
ATOM     20  H1  UNL     1      70.890  16.930  13.164  1.00  0.00     0.161 HD
BRANCH  19  21
HETATM   21  C16 UNL     1      69.247  16.850  14.372  1.00  0.00     0.176 A 
HETATM   22  N2  UNL     1      69.656  16.959  15.640  1.00  0.00    -0.168 N 
HETATM   23  C17 UNL     1      68.839  16.601  16.589  1.00  0.00     0.693 A 
ATOM     24  H2  UNL     1      70.586  17.315  15.859  1.00  0.00     0.186 HD
HETATM   25  N6  UNL     1      67.629  16.142  16.236  1.00  0.00    -0.157 N 
HETATM   26  S1  UNL     1      67.669  16.225  14.559  1.00  0.00     0.039 SA
ATOM     27  H6  UNL     1      66.871  15.822  16.838  1.00  0.00     0.193 HD
BRANCH  23  28
HETATM   28  N3  UNL     1      69.121  16.659  17.881  1.00  0.00    -0.163 N 
HETATM   29  C18 UNL     1      69.465  15.476  18.546  1.00  0.00     0.200 C 
HETATM   30  N4  UNL     1      70.694  15.113  18.615  1.00  0.00    -0.373 N 
HETATM   31  N5  UNL     1      68.470  14.682  19.139  1.00  0.00    -0.063 NA
ATOM     32  H42 UNL     1      71.416  15.690  18.184  1.00  0.00     0.158 HD
ATOM     33  H41 UNL     1      70.944  14.251  19.099  1.00  0.00     0.158 HD
ATOM     34  H3  UNL     1      69.088  17.547  18.382  1.00  0.00     0.187 HD
ENDBRANCH  23  28
ENDBRANCH  19  21
ENDBRANCH  18  19
ENDBRANCH   1  18
TORSDOF 14
ENDMDL
MODEL 3
REMARK VINA RESULT: -6.541374557      6.731      8.649
REMARK  14 active torsions:
REMARK  status: ('A' for Active; 'I' for Inactive)
REMARK    1  A    between atoms: C7_7  and  C8_8 
REMARK    2  A    between atoms: C8_8  and  C9_9 
REMARK    3  A    between atoms: C9_9  and  C10_10 
REMARK    4  A    between atoms: C10_10  and  O1_11 
REMARK    5  A    between atoms: O1_11  and  C11_12 
REMARK    6  A    between atoms: C11_12  and  C12_13 
REMARK    7  A    between atoms: C12_13  and  O2_14 
REMARK    8  A    between atoms: O2_14  and  C13_15 
REMARK    9  A    between atoms: C13_15  and  O3_16 
REMARK   10  A    between atoms: O3_16  and  C14_17 
REMARK   11  A    between atoms: C14_17  and  C15_18 
REMARK   12  A    between atoms: C15_18  and  N1_19 
REMARK   13  A    between atoms: N1_19  and  C16_21 
REMARK   14  A    between atoms: C17_24  and  N3_25 
REMARK       I    between atoms: N3_25  and  C18_27 
ROOT
HETATM    1  C14 UNL     1      75.629   8.304   4.887  1.00  0.00     0.190 C 
ENDROOT
BRANCH   1   2
HETATM    2  O3  UNL     1      74.934   7.724   5.908  1.00  0.00    -0.365 OA
BRANCH   2   3
HETATM    3  C13 UNL     1      75.759   7.145   6.857  1.00  0.00     0.337 C 
BRANCH   3   4
HETATM    4  O2  UNL     1      75.332   7.599   8.093  1.00  0.00    -0.365 OA
BRANCH   4   5
HETATM    5  C12 UNL     1      73.959   7.733   8.087  1.00  0.00     0.196 C 
BRANCH   5   6
HETATM    6  C11 UNL     1      73.418   8.789   8.995  1.00  0.00     0.193 C 
BRANCH   6   7
HETATM    7  O1  UNL     1      72.166   9.257   8.666  1.00  0.00    -0.389 OA
BRANCH   7   8
HETATM    8  C10 UNL     1      71.556  10.031   9.626  1.00  0.00     0.168 C 
BRANCH   8   9
HETATM    9  C9  UNL     1      72.192   9.778  10.966  1.00  0.00     0.031 C 
BRANCH   9  10
HETATM   10  C8  UNL     1      71.202   9.105  11.867  1.00  0.00     0.041 C 
BRANCH  10  11
HETATM   11  C7  UNL     1      71.458   7.660  11.934  1.00  0.00    -0.052 A 
HETATM   12  C2  UNL     1      70.653   6.789  11.245  1.00  0.00    -0.056 A 
HETATM   13  C1  UNL     1      69.509   7.215  10.411  1.00  0.00     0.049 C 
HETATM   14  C3  UNL     1      70.890   5.420  11.299  1.00  0.00     0.007 A 
HETATM   15  C4  UNL     1      71.945   4.954  12.053  1.00  0.00     0.001 A 
HETATM   16  C5  UNL     1      72.770   5.823  12.757  1.00  0.00     0.001 A 
HETATM   17  C6  UNL     1      72.504   7.180  12.680  1.00  0.00     0.007 A 
ENDBRANCH  10  11
ENDBRANCH   9  10
ENDBRANCH   8   9
ENDBRANCH   7   8
ENDBRANCH   6   7
ENDBRANCH   5   6
ENDBRANCH   4   5
ENDBRANCH   3   4
ENDBRANCH   2   3
ENDBRANCH   1   2
BRANCH   1  18
HETATM   18  C15 UNL     1      76.548   9.427   5.274  1.00  0.00     0.148 C 
BRANCH  18  19
HETATM   19  N1  UNL     1      75.726  10.568   5.573  1.00  0.00    -0.367 N 
ATOM     20  H1  UNL     1      75.218  11.063   4.839  1.00  0.00     0.161 HD
BRANCH  19  21
HETATM   21  C16 UNL     1      75.656  10.946   6.829  1.00  0.00     0.176 A 
HETATM   22  N2  UNL     1      76.437  10.591   7.854  1.00  0.00    -0.168 N 
HETATM   23  C17 UNL     1      76.183  11.090   9.030  1.00  0.00     0.693 A 
ATOM     24  H2  UNL     1      77.214   9.945   7.718  1.00  0.00     0.186 HD
HETATM   25  N6  UNL     1      75.147  11.935   9.144  1.00  0.00    -0.157 N 
HETATM   26  S1  UNL     1      74.548  12.009   7.576  1.00  0.00     0.039 SA
ATOM     27  H6  UNL     1      74.807  12.415   9.977  1.00  0.00     0.193 HD
BRANCH  23  28
HETATM   28  N3  UNL     1      76.877  10.820  10.124  1.00  0.00    -0.163 N 
HETATM   29  C18 UNL     1      78.085  11.495  10.334  1.00  0.00     0.200 C 
HETATM   30  N4  UNL     1      78.097  12.604  10.980  1.00  0.00    -0.373 N 
HETATM   31  N5  UNL     1      79.288  10.965   9.841  1.00  0.00    -0.063 NA
ATOM     32  H42 UNL     1      77.223  12.988  11.339  1.00  0.00     0.158 HD
ATOM     33  H41 UNL     1      78.977  13.096  11.133  1.00  0.00     0.158 HD
ATOM     34  H3  UNL     1      76.540  10.134  10.800  1.00  0.00     0.187 HD
ENDBRANCH  23  28
ENDBRANCH  19  21
ENDBRANCH  18  19
ENDBRANCH   1  18
TORSDOF 14
ENDMDL
MODEL 4
REMARK VINA RESULT: -6.476838184      9.241     12.580
REMARK  14 active torsions:
REMARK  status: ('A' for Active; 'I' for Inactive)
REMARK    1  A    between atoms: C7_7  and  C8_8 
REMARK    2  A    between atoms: C8_8  and  C9_9 
REMARK    3  A    between atoms: C9_9  and  C10_10 
REMARK    4  A    between atoms: C10_10  and  O1_11 
REMARK    5  A    between atoms: O1_11  and  C11_12 
REMARK    6  A    between atoms: C11_12  and  C12_13 
REMARK    7  A    between atoms: C12_13  and  O2_14 
REMARK    8  A    between atoms: O2_14  and  C13_15 
REMARK    9  A    between atoms: C13_15  and  O3_16 
REMARK   10  A    between atoms: O3_16  and  C14_17 
REMARK   11  A    between atoms: C14_17  and  C15_18 
REMARK   12  A    between atoms: C15_18  and  N1_19 
REMARK   13  A    between atoms: N1_19  and  C16_21 
REMARK   14  A    between atoms: C17_24  and  N3_25 
REMARK       I    between atoms: N3_25  and  C18_27 
ROOT
HETATM    1  C14 UNL     1      76.808   7.399   7.115  1.00  0.00     0.190 C 
ENDROOT
BRANCH   1   2
HETATM    2  O3  UNL     1      75.724   6.855   7.739  1.00  0.00    -0.365 OA
BRANCH   2   3
HETATM    3  C13 UNL     1      74.626   6.736   6.904  1.00  0.00     0.337 C 
BRANCH   3   4
HETATM    4  O2  UNL     1      73.824   7.839   7.133  1.00  0.00    -0.365 OA
BRANCH   4   5
HETATM    5  C12 UNL     1      73.502   7.906   8.474  1.00  0.00     0.196 C 
BRANCH   5   6
HETATM    6  C11 UNL     1      73.214   9.276   8.993  1.00  0.00     0.193 C 
BRANCH   6   7
HETATM    7  O1  UNL     1      71.918   9.708   8.817  1.00  0.00    -0.389 OA
BRANCH   7   8
HETATM    8  C10 UNL     1      71.414  10.485   9.833  1.00  0.00     0.168 C 
BRANCH   8   9
HETATM    9  C9  UNL     1      72.059  10.102  11.137  1.00  0.00     0.031 C 
BRANCH   9  10
HETATM   10  C8  UNL     1      71.078   9.332  11.969  1.00  0.00     0.041 C 
BRANCH  10  11
HETATM   11  C7  UNL     1      71.385   7.896  11.937  1.00  0.00    -0.052 A 
HETATM   12  C2  UNL     1      70.607   7.046  11.193  1.00  0.00    -0.056 A 
HETATM   13  C1  UNL     1      69.444   7.487  10.394  1.00  0.00     0.049 C 
HETATM   14  C3  UNL     1      70.891   5.686  11.153  1.00  0.00     0.007 A 
HETATM   15  C4  UNL     1      71.966   5.207  11.871  1.00  0.00     0.001 A 
HETATM   16  C5  UNL     1      72.764   6.054  12.629  1.00  0.00     0.001 A 
HETATM   17  C6  UNL     1      72.451   7.403  12.646  1.00  0.00     0.007 A 
ENDBRANCH  10  11
ENDBRANCH   9  10
ENDBRANCH   8   9
ENDBRANCH   7   8
ENDBRANCH   6   7
ENDBRANCH   5   6
ENDBRANCH   4   5
ENDBRANCH   3   4
ENDBRANCH   2   3
ENDBRANCH   1   2
BRANCH   1  18
HETATM   18  C15 UNL     1      77.982   6.482   6.922  1.00  0.00     0.148 C 
BRANCH  18  19
HETATM   19  N1  UNL     1      77.570   5.168   7.334  1.00  0.00    -0.367 N 
ATOM     20  H1  UNL     1      77.326   4.967   8.304  1.00  0.00     0.161 HD
BRANCH  19  21
HETATM   21  C16 UNL     1      77.519   4.236   6.408  1.00  0.00     0.176 A 
HETATM   22  N2  UNL     1      77.888   2.955   6.491  1.00  0.00    -0.168 N 
HETATM   23  C17 UNL     1      77.753   2.200   5.437  1.00  0.00     0.693 A 
ATOM     24  H2  UNL     1      78.266   2.576   7.359  1.00  0.00     0.186 HD
HETATM   25  N6  UNL     1      77.250   2.758   4.326  1.00  0.00    -0.157 N 
HETATM   26  S1  UNL     1      76.974   4.348   4.794  1.00  0.00     0.039 SA
ATOM     27  H6  UNL     1      77.076   2.323   3.420  1.00  0.00     0.193 HD
BRANCH  23  28
HETATM   28  N3  UNL     1      78.080   0.918   5.388  1.00  0.00    -0.163 N 
HETATM   29  C18 UNL     1      77.439   0.029   6.258  1.00  0.00     0.200 C 
HETATM   30  N4  UNL     1      76.356  -0.556   5.894  1.00  0.00    -0.373 N 
HETATM   31  N5  UNL     1      77.974  -0.226   7.531  1.00  0.00    -0.063 NA
ATOM     32  H42 UNL     1      75.968  -0.370   4.970  1.00  0.00     0.158 HD
ATOM     33  H41 UNL     1      75.889  -1.204   6.529  1.00  0.00     0.158 HD
ATOM     34  H3  UNL     1      78.784   0.585   4.729  1.00  0.00     0.187 HD
ENDBRANCH  23  28
ENDBRANCH  19  21
ENDBRANCH  18  19
ENDBRANCH   1  18
TORSDOF 14
ENDMDL
MODEL 5
REMARK VINA RESULT: -6.383985439      8.102     11.236
REMARK  14 active torsions:
REMARK  status: ('A' for Active; 'I' for Inactive)
REMARK    1  A    between atoms: C7_7  and  C8_8 
REMARK    2  A    between atoms: C8_8  and  C9_9 
REMARK    3  A    between atoms: C9_9  and  C10_10 
REMARK    4  A    between atoms: C10_10  and  O1_11 
REMARK    5  A    between atoms: O1_11  and  C11_12 
REMARK    6  A    between atoms: C11_12  and  C12_13 
REMARK    7  A    between atoms: C12_13  and  O2_14 
REMARK    8  A    between atoms: O2_14  and  C13_15 
REMARK    9  A    between atoms: C13_15  and  O3_16 
REMARK   10  A    between atoms: O3_16  and  C14_17 
REMARK   11  A    between atoms: C14_17  and  C15_18 
REMARK   12  A    between atoms: C15_18  and  N1_19 
REMARK   13  A    between atoms: N1_19  and  C16_21 
REMARK   14  A    between atoms: C17_24  and  N3_25 
REMARK       I    between atoms: N3_25  and  C18_27 
ROOT
HETATM    1  C14 UNL     1      73.549   7.888   8.380  1.00  0.00     0.190 C 
ENDROOT
BRANCH   1   2
HETATM    2  O3  UNL     1      73.028   9.147   8.313  1.00  0.00    -0.365 OA
BRANCH   2   3
HETATM    3  C13 UNL     1      73.960  10.129   8.604  1.00  0.00     0.337 C 
BRANCH   3   4
HETATM    4  O2  UNL     1      73.267  11.186   9.169  1.00  0.00    -0.365 OA
BRANCH   4   5
HETATM    5  C12 UNL     1      74.041  11.774  10.148  1.00  0.00     0.196 C 
BRANCH   5   6
HETATM    6  C11 UNL     1      73.279  12.454  11.239  1.00  0.00     0.193 C 
BRANCH   6   7
HETATM    7  O1  UNL     1      72.142  11.797  11.655  1.00  0.00    -0.389 OA
BRANCH   7   8
HETATM    8  C10 UNL     1      72.269  11.084  12.823  1.00  0.00     0.168 C 
BRANCH   8   9
HETATM    9  C9  UNL     1      71.521   9.783  12.712  1.00  0.00     0.031 C 
BRANCH   9  10
HETATM   10  C8  UNL     1      72.114   8.961  11.608  1.00  0.00     0.041 C 
BRANCH  10  11
HETATM   11  C7  UNL     1      71.924   7.528  11.867  1.00  0.00    -0.052 A 
HETATM   12  C2  UNL     1      70.872   6.861  11.292  1.00  0.00    -0.056 A 
HETATM   13  C1  UNL     1      69.884   7.503  10.399  1.00  0.00     0.049 C 
HETATM   14  C3  UNL     1      70.686   5.505  11.530  1.00  0.00     0.007 A 
HETATM   15  C4  UNL     1      71.574   4.841  12.349  1.00  0.00     0.001 A 
HETATM   16  C5  UNL     1      72.644   5.502  12.939  1.00  0.00     0.001 A 
HETATM   17  C6  UNL     1      72.799   6.853  12.681  1.00  0.00     0.007 A 
ENDBRANCH  10  11
ENDBRANCH   9  10
ENDBRANCH   8   9
ENDBRANCH   7   8
ENDBRANCH   6   7
ENDBRANCH   5   6
ENDBRANCH   4   5
ENDBRANCH   3   4
ENDBRANCH   2   3
ENDBRANCH   1   2
BRANCH   1  18
HETATM   18  C15 UNL     1      74.754   7.631   7.521  1.00  0.00     0.148 C 
BRANCH  18  19
HETATM   19  N1  UNL     1      74.284   7.402   6.182  1.00  0.00    -0.367 N 
ATOM     20  H1  UNL     1      73.499   7.927   5.797  1.00  0.00     0.161 HD
BRANCH  19  21
HETATM   21  C16 UNL     1      74.908   6.486   5.474  1.00  0.00     0.176 A 
HETATM   22  N2  UNL     1      75.132   5.204   5.777  1.00  0.00    -0.168 N 
HETATM   23  C17 UNL     1      75.782   4.468   4.921  1.00  0.00     0.693 A 
ATOM     24  H2  UNL     1      74.802   4.811   6.658  1.00  0.00     0.186 HD
HETATM   25  N6  UNL     1      76.189   5.044   3.779  1.00  0.00    -0.157 N 
HETATM   26  S1  UNL     1      75.643   6.625   3.939  1.00  0.00     0.039 SA
ATOM     27  H6  UNL     1      76.704   4.625   3.005  1.00  0.00     0.193 HD
BRANCH  23  28
HETATM   28  N3  UNL     1      76.069   3.188   5.099  1.00  0.00    -0.163 N 
HETATM   29  C18 UNL     1      77.401   2.827   5.336  1.00  0.00     0.200 C 
HETATM   30  N4  UNL     1      77.847   2.771   6.538  1.00  0.00    -0.373 N 
HETATM   31  N5  UNL     1      78.254   2.526   4.262  1.00  0.00    -0.063 NA
ATOM     32  H42 UNL     1      77.227   2.990   7.317  1.00  0.00     0.158 HD
ATOM     33  H41 UNL     1      78.817   2.508   6.710  1.00  0.00     0.158 HD
ATOM     34  H3  UNL     1      75.336   2.481   5.066  1.00  0.00     0.187 HD
ENDBRANCH  23  28
ENDBRANCH  19  21
ENDBRANCH  18  19
ENDBRANCH   1  18
TORSDOF 14
ENDMDL
