MODEL 1
REMARK VINA RESULT: -6.756719546      0.000      0.000
REMARK  6 active torsions:
REMARK  status: ('A' for Active; 'I' for Inactive)
REMARK    1  A    between atoms: C3_6  and  C4_7 
REMARK    2  A    between atoms: C4_7  and  N2_8 
REMARK    3  A    between atoms: N2_8  and  C5_11 
REMARK    4  A    between atoms: C5_11  and  C6_12 
REMARK    5  A    between atoms: C6_12  and  N3_13 
REMARK    6  A    between atoms: N3_13  and  C7_15 
ROOT
HETATM    1  N2  UNL     1      35.468  41.675  -3.112  1.00  0.00    -0.072 N 
ATOM      2  H21 UNL     1      34.817  42.330  -3.544  1.00  0.00     0.277 HD
ATOM      3  H22 UNL     1      34.942  40.814  -3.263  1.00  0.00     0.277 HD
ENDROOT
BRANCH   1   4
HETATM    4  C4  UNL     1      35.651  41.953  -1.693  1.00  0.00     0.265 C 
BRANCH   4   5
HETATM    5  C3  UNL     1      36.799  42.915  -1.550  1.00  0.00     0.211 C 
HETATM    6  N1  UNL     1      36.372  44.308  -1.576  1.00  0.00    -0.069 N 
HETATM    7  C2  UNL     1      37.557  45.010  -1.122  1.00  0.00     0.233 C 
ATOM      8  H12 UNL     1      35.526  44.506  -1.042  1.00  0.00     0.277 HD
ATOM      9  H11 UNL     1      36.002  44.626  -2.471  1.00  0.00     0.277 HD
HETATM   10  C1  UNL     1      38.182  44.117  -0.050  1.00  0.00     0.029 C 
HETATM   11  C10 UNL     1      37.379  42.837  -0.126  1.00  0.00     0.036 C 
ENDBRANCH   4   5
ENDBRANCH   1   4
BRANCH   1  12
HETATM   12  C5  UNL     1      36.743  41.652  -3.802  1.00  0.00     0.252 C 
BRANCH  12  13
HETATM   13  C6  UNL     1      36.603  42.312  -5.133  1.00  0.00     0.150 C 
BRANCH  13  14
HETATM   14  N3  UNL     1      35.218  42.694  -5.345  1.00  0.00    -0.361 N 
ATOM     15  H3  UNL     1      34.633  42.966  -4.556  1.00  0.00     0.162 HD
BRANCH  14  16
HETATM   16  C7  UNL     1      34.678  42.685  -6.682  1.00  0.00     0.171 C 
HETATM   17  N4  UNL     1      33.501  43.108  -6.988  1.00  0.00    -0.361 N 
HETATM   18  C8  UNL     1      33.248  42.968  -8.398  1.00  0.00     0.142 C 
ATOM     19  H4  UNL     1      32.835  43.491  -6.318  1.00  0.00     0.162 HD
HETATM   20  C9  UNL     1      34.530  42.490  -8.964  1.00  0.00     0.142 C 
HETATM   21  N5  UNL     1      35.357  42.217  -7.819  1.00  0.00    -0.361 N 
ATOM     22  H5  UNL     1      36.272  41.766  -7.830  1.00  0.00     0.162 HD
ENDBRANCH  14  16
ENDBRANCH  13  14
ENDBRANCH  12  13
ENDBRANCH   1  12
TORSDOF 6
ENDMDL
MODEL 2
REMARK VINA RESULT: -6.318613581      1.020      1.145
REMARK  6 active torsions:
REMARK  status: ('A' for Active; 'I' for Inactive)
REMARK    1  A    between atoms: C3_6  and  C4_7 
REMARK    2  A    between atoms: C4_7  and  N2_8 
REMARK    3  A    between atoms: N2_8  and  C5_11 
REMARK    4  A    between atoms: C5_11  and  C6_12 
REMARK    5  A    between atoms: C6_12  and  N3_13 
REMARK    6  A    between atoms: N3_13  and  C7_15 
ROOT
HETATM    1  N2  UNL     1      35.419  41.734  -3.002  1.00  0.00    -0.072 N 
ATOM      2  H21 UNL     1      34.800  42.417  -3.440  1.00  0.00     0.277 HD
ATOM      3  H22 UNL     1      34.854  40.898  -3.148  1.00  0.00     0.277 HD
ENDROOT
BRANCH   1   4
HETATM    4  C4  UNL     1      35.614  42.013  -1.585  1.00  0.00     0.265 C 
BRANCH   4   5
HETATM    5  C3  UNL     1      36.796  42.935  -1.449  1.00  0.00     0.211 C 
HETATM    6  N1  UNL     1      36.417  44.342  -1.464  1.00  0.00    -0.069 N 
HETATM    7  C2  UNL     1      37.629  45.001  -1.018  1.00  0.00     0.233 C 
ATOM      8  H12 UNL     1      35.583  44.566  -0.921  1.00  0.00     0.277 HD
ATOM      9  H11 UNL     1      36.049  44.677  -2.355  1.00  0.00     0.277 HD
HETATM   10  C1  UNL     1      38.233  44.082   0.044  1.00  0.00     0.029 C 
HETATM   11  C10 UNL     1      37.386  42.830  -0.030  1.00  0.00     0.036 C 
ENDBRANCH   4   5
ENDBRANCH   1   4
BRANCH   1  12
HETATM   12  C5  UNL     1      36.693  41.647  -3.691  1.00  0.00     0.252 C 
BRANCH  12  13
HETATM   13  C6  UNL     1      36.661  42.505  -4.911  1.00  0.00     0.150 C 
BRANCH  13  14
HETATM   14  N3  UNL     1      35.307  42.562  -5.433  1.00  0.00    -0.361 N 
ATOM     15  H3  UNL     1      34.609  43.159  -4.990  1.00  0.00     0.162 HD
BRANCH  14  16
HETATM   16  C7  UNL     1      34.958  41.765  -6.583  1.00  0.00     0.171 C 
HETATM   17  N4  UNL     1      34.347  40.633  -6.518  1.00  0.00    -0.361 N 
HETATM   18  C8  UNL     1      34.140  40.078  -7.830  1.00  0.00     0.142 C 
ATOM     19  H4  UNL     1      34.050  40.187  -5.651  1.00  0.00     0.162 HD
HETATM   20  C9  UNL     1      34.622  41.124  -8.761  1.00  0.00     0.142 C 
HETATM   21  N5  UNL     1      35.234  42.113  -7.915  1.00  0.00    -0.361 N 
ATOM     22  H5  UNL     1      35.771  42.923  -8.225  1.00  0.00     0.162 HD
ENDBRANCH  14  16
ENDBRANCH  13  14
ENDBRANCH  12  13
ENDBRANCH   1  12
TORSDOF 6
ENDMDL
MODEL 3
REMARK VINA RESULT: -6.127489582      1.105      1.584
REMARK  6 active torsions:
REMARK  status: ('A' for Active; 'I' for Inactive)
REMARK    1  A    between atoms: C3_6  and  C4_7 
REMARK    2  A    between atoms: C4_7  and  N2_8 
REMARK    3  A    between atoms: N2_8  and  C5_11 
REMARK    4  A    between atoms: C5_11  and  C6_12 
REMARK    5  A    between atoms: C6_12  and  N3_13 
REMARK    6  A    between atoms: N3_13  and  C7_15 
ROOT
HETATM    1  N2  UNL     1      36.514  43.092  -3.027  1.00  0.00    -0.072 N 
ATOM      2  H21 UNL     1      35.658  43.528  -3.371  1.00  0.00     0.277 HD
ATOM      3  H22 UNL     1      36.095  42.329  -2.496  1.00  0.00     0.277 HD
ENDROOT
BRANCH   1   4
HETATM    4  C4  UNL     1      37.270  43.995  -2.167  1.00  0.00     0.265 C 
BRANCH   4   5
HETATM    5  C3  UNL     1      37.074  43.555  -0.741  1.00  0.00     0.211 C 
HETATM    6  N1  UNL     1      36.878  42.117  -0.618  1.00  0.00    -0.069 N 
HETATM    7  C2  UNL     1      37.022  41.899   0.808  1.00  0.00     0.233 C 
ATOM      8  H12 UNL     1      37.492  41.550  -1.203  1.00  0.00     0.277 HD
ATOM      9  H11 UNL     1      36.007  41.767  -1.019  1.00  0.00     0.277 HD
HETATM   10  C1  UNL     1      38.123  42.857   1.263  1.00  0.00     0.029 C 
HETATM   11  C10 UNL     1      38.387  43.717   0.047  1.00  0.00     0.036 C 
ENDBRANCH   4   5
ENDBRANCH   1   4
BRANCH   1  12
HETATM   12  C5  UNL     1      37.339  42.601  -4.113  1.00  0.00     0.252 C 
BRANCH  12  13
HETATM   13  C6  UNL     1      36.483  41.903  -5.116  1.00  0.00     0.150 C 
BRANCH  13  14
HETATM   14  N3  UNL     1      35.290  42.690  -5.369  1.00  0.00    -0.361 N 
ATOM     15  H3  UNL     1      34.863  43.236  -4.620  1.00  0.00     0.162 HD
BRANCH  14  16
HETATM   16  C7  UNL     1      34.712  42.694  -6.691  1.00  0.00     0.171 C 
HETATM   17  N4  UNL     1      33.526  43.119  -6.958  1.00  0.00    -0.361 N 
HETATM   18  C8  UNL     1      33.233  42.993  -8.362  1.00  0.00     0.142 C 
ATOM     19  H4  UNL     1      32.878  43.495  -6.266  1.00  0.00     0.162 HD
HETATM   20  C9  UNL     1      34.499  42.522  -8.970  1.00  0.00     0.142 C 
HETATM   21  N5  UNL     1      35.358  42.239  -7.851  1.00  0.00    -0.361 N 
ATOM     22  H5  UNL     1      36.272  41.788  -7.893  1.00  0.00     0.162 HD
ENDBRANCH  14  16
ENDBRANCH  13  14
ENDBRANCH  12  13
ENDBRANCH   1  12
TORSDOF 6
ENDMDL
MODEL 4
REMARK VINA RESULT: -6.086598554      0.955      1.394
REMARK  6 active torsions:
REMARK  status: ('A' for Active; 'I' for Inactive)
REMARK    1  A    between atoms: C3_6  and  C4_7 
REMARK    2  A    between atoms: C4_7  and  N2_8 
REMARK    3  A    between atoms: N2_8  and  C5_11 
REMARK    4  A    between atoms: C5_11  and  C6_12 
REMARK    5  A    between atoms: C6_12  and  N3_13 
REMARK    6  A    between atoms: N3_13  and  C7_15 
ROOT
HETATM    1  N2  UNL     1      35.716  42.391  -3.906  1.00  0.00    -0.072 N 
ATOM      2  H21 UNL     1      35.858  43.396  -4.009  1.00  0.00     0.277 HD
ATOM      3  H22 UNL     1      34.703  42.367  -4.018  1.00  0.00     0.277 HD
ENDROOT
BRANCH   1   4
HETATM    4  C4  UNL     1      36.125  41.921  -2.588  1.00  0.00     0.265 C 
BRANCH   4   5
HETATM    5  C3  UNL     1      37.114  42.907  -2.027  1.00  0.00     0.211 C 
HETATM    6  N1  UNL     1      36.571  44.255  -1.929  1.00  0.00    -0.069 N 
HETATM    7  C2  UNL     1      37.551  44.932  -1.102  1.00  0.00     0.233 C 
ATOM      8  H12 UNL     1      35.612  44.306  -1.584  1.00  0.00     0.277 HD
ATOM      9  H11 UNL     1      36.380  44.706  -2.823  1.00  0.00     0.277 HD
HETATM   10  C1  UNL     1      38.006  43.899  -0.071  1.00  0.00     0.029 C 
HETATM   11  C10 UNL     1      37.368  42.609  -0.537  1.00  0.00     0.036 C 
ENDBRANCH   4   5
ENDBRANCH   1   4
BRANCH   1  12
HETATM   12  C5  UNL     1      36.390  41.645  -4.951  1.00  0.00     0.252 C 
BRANCH  12  13
HETATM   13  C6  UNL     1      35.416  41.302  -6.028  1.00  0.00     0.150 C 
BRANCH  13  14
HETATM   14  N3  UNL     1      34.486  42.402  -6.213  1.00  0.00    -0.361 N 
ATOM     15  H3  UNL     1      34.119  42.907  -5.407  1.00  0.00     0.162 HD
BRANCH  14  16
HETATM   16  C7  UNL     1      34.086  42.774  -7.548  1.00  0.00     0.171 C 
HETATM   17  N4  UNL     1      34.788  42.542  -8.602  1.00  0.00    -0.361 N 
HETATM   18  C8  UNL     1      34.127  43.031  -9.784  1.00  0.00     0.142 C 
ATOM     19  H4  UNL     1      35.693  42.074  -8.601  1.00  0.00     0.162 HD
HETATM   20  C9  UNL     1      32.810  43.511  -9.307  1.00  0.00     0.142 C 
HETATM   21  N5  UNL     1      32.889  43.431  -7.873  1.00  0.00    -0.361 N 
ATOM     22  H5  UNL     1      32.200  43.788  -7.211  1.00  0.00     0.162 HD
ENDBRANCH  14  16
ENDBRANCH  13  14
ENDBRANCH  12  13
ENDBRANCH   1  12
TORSDOF 6
ENDMDL
MODEL 5
REMARK VINA RESULT: -6.080796143      1.169      1.804
REMARK  6 active torsions:
REMARK  status: ('A' for Active; 'I' for Inactive)
REMARK    1  A    between atoms: C3_6  and  C4_7 
REMARK    2  A    between atoms: C4_7  and  N2_8 
REMARK    3  A    between atoms: N2_8  and  C5_11 
REMARK    4  A    between atoms: C5_11  and  C6_12 
REMARK    5  A    between atoms: C6_12  and  N3_13 
REMARK    6  A    between atoms: N3_13  and  C7_15 
ROOT
HETATM    1  N2  UNL     1      36.394  42.845  -3.227  1.00  0.00    -0.072 N 
ATOM      2  H21 UNL     1      35.457  43.239  -3.320  1.00  0.00     0.277 HD
ATOM      3  H22 UNL     1      36.155  42.002  -2.705  1.00  0.00     0.277 HD
ENDROOT
BRANCH   1   4
HETATM    4  C4  UNL     1      37.274  43.721  -2.463  1.00  0.00     0.265 C 
BRANCH   4   5
HETATM    5  C3  UNL     1      37.698  42.987  -1.220  1.00  0.00     0.211 C 
HETATM    6  N1  UNL     1      38.177  43.882  -0.174  1.00  0.00    -0.069 N 
HETATM    7  C2  UNL     1      38.226  43.015   0.987  1.00  0.00     0.233 C 
ATOM      8  H12 UNL     1      37.625  44.731  -0.052  1.00  0.00     0.277 HD
ATOM      9  H11 UNL     1      39.051  44.361  -0.388  1.00  0.00     0.277 HD
HETATM   10  C1  UNL     1      37.016  42.088   0.862  1.00  0.00     0.029 C 
HETATM   11  C10 UNL     1      36.468  42.385  -0.516  1.00  0.00     0.036 C 
ENDBRANCH   4   5
ENDBRANCH   1   4
BRANCH   1  12
HETATM   12  C5  UNL     1      36.974  42.531  -4.519  1.00  0.00     0.252 C 
BRANCH  12  13
HETATM   13  C6  UNL     1      35.980  41.785  -5.345  1.00  0.00     0.150 C 
BRANCH  13  14
HETATM   14  N3  UNL     1      34.861  42.654  -5.664  1.00  0.00    -0.361 N 
ATOM     15  H3  UNL     1      34.397  43.187  -4.929  1.00  0.00     0.162 HD
BRANCH  14  16
HETATM   16  C7  UNL     1      34.412  42.756  -7.031  1.00  0.00     0.171 C 
HETATM   17  N4  UNL     1      35.095  42.356  -8.047  1.00  0.00    -0.361 N 
HETATM   18  C8  UNL     1      34.385  42.593  -9.276  1.00  0.00     0.142 C 
ATOM     19  H4  UNL     1      36.019  41.929  -7.988  1.00  0.00     0.162 HD
HETATM   20  C9  UNL     1      33.062  43.108  -8.854  1.00  0.00     0.142 C 
HETATM   21  N5  UNL     1      33.182  43.299  -7.433  1.00  0.00    -0.361 N 
ATOM     22  H5  UNL     1      32.496  43.749  -6.826  1.00  0.00     0.162 HD
ENDBRANCH  14  16
ENDBRANCH  13  14
ENDBRANCH  12  13
ENDBRANCH   1  12
TORSDOF 6
ENDMDL
