MODEL 1
REMARK VINA RESULT: -6.235271239      0.000      0.000
REMARK  8 active torsions:
REMARK  status: ('A' for Active; 'I' for Inactive)
REMARK    1  A    between atoms: N1_1  and  C1_4 
REMARK    2  A    between atoms: C3_11  and  N5_12 
REMARK    3  A    between atoms: N5_12  and  C4_14 
REMARK    4  A    between atoms: C4_14  and  C5_15 
REMARK    5  A    between atoms: C5_15  and  C6_16 
REMARK    6  A    between atoms: C6_16  and  C7_17 
REMARK    7  A    between atoms: C7_17  and  C8_18 
REMARK    8  A    between atoms: C8_18  and  N6_19 
ROOT
HETATM    1  C1  UNL     1      35.883  42.191  -4.890  1.00  0.00     0.692 A 
HETATM    2  N2  UNL     1      36.103  40.906  -5.209  1.00  0.00    -0.163 N 
ATOM      3  H2  UNL     1      36.751  40.352  -4.649  1.00  0.00     0.187 HD
HETATM    4  C2  UNL     1      35.476  40.337  -6.261  1.00  0.00     0.221 A 
HETATM    5  N3  UNL     1      35.679  38.990  -6.632  1.00  0.00    -0.062 NA
HETATM    6  N4  UNL     1      34.617  41.091  -6.995  1.00  0.00    -0.162 N 
ATOM      7  H4  UNL     1      34.142  40.666  -7.790  1.00  0.00     0.187 HD
HETATM    8  C3  UNL     1      34.374  42.382  -6.702  1.00  0.00     0.695 A 
HETATM    9  N7  UNL     1      35.027  42.896  -5.641  1.00  0.00    -0.023 N 
ATOM     10  H7  UNL     1      34.861  43.873  -5.398  1.00  0.00     0.203 HD
ENDROOT
BRANCH   8  11
HETATM   11  N5  UNL     1      33.556  43.099  -7.401  1.00  0.00    -0.225 N 
ATOM     12  H5  UNL     1      33.238  44.006  -7.058  1.00  0.00     0.177 HD
BRANCH  11  13
HETATM   13  C4  UNL     1      33.100  42.594  -8.676  1.00  0.00     0.138 C 
BRANCH  13  14
HETATM   14  C5  UNL     1      32.766  43.706  -9.642  1.00  0.00     0.020 C 
BRANCH  14  15
HETATM   15  C6  UNL     1      33.898  43.759 -10.677  1.00  0.00     0.003 C 
BRANCH  15  16
HETATM   16  C7  UNL     1      33.241  44.081 -12.000  1.00  0.00     0.027 C 
BRANCH  16  17
HETATM   17  C8  UNL     1      33.499  45.511 -12.420  1.00  0.00     0.229 C 
BRANCH  17  18
HETATM   18  N6  UNL     1      32.258  46.247 -12.264  1.00  0.00    -0.079 N 
ATOM     19  H63 UNL     1      31.875  46.183 -11.320  1.00  0.00     0.274 HD
ATOM     20  H62 UNL     1      32.392  47.258 -12.287  1.00  0.00     0.274 HD
ATOM     21  H61 UNL     1      31.610  45.916 -12.978  1.00  0.00     0.274 HD
ENDBRANCH  17  18
ENDBRANCH  16  17
ENDBRANCH  15  16
ENDBRANCH  14  15
ENDBRANCH  13  14
ENDBRANCH  11  13
ENDBRANCH   8  11
BRANCH   1  22
HETATM   22  N1  UNL     1      36.477  42.737  -3.888  1.00  0.00    -0.234 N 
ATOM     23  H12 UNL     1      36.886  42.162  -3.151  1.00  0.00     0.174 HD
ATOM     24  H11 UNL     1      36.551  43.752  -3.808  1.00  0.00     0.174 HD
ENDBRANCH   1  22
TORSDOF 8
ENDMDL
MODEL 2
REMARK VINA RESULT: -5.964528875      0.474      2.152
REMARK  8 active torsions:
REMARK  status: ('A' for Active; 'I' for Inactive)
REMARK    1  A    between atoms: N1_1  and  C1_4 
REMARK    2  A    between atoms: C3_11  and  N5_12 
REMARK    3  A    between atoms: N5_12  and  C4_14 
REMARK    4  A    between atoms: C4_14  and  C5_15 
REMARK    5  A    between atoms: C5_15  and  C6_16 
REMARK    6  A    between atoms: C6_16  and  C7_17 
REMARK    7  A    between atoms: C7_17  and  C8_18 
REMARK    8  A    between atoms: C8_18  and  N6_19 
ROOT
HETATM    1  C1  UNL     1      35.715  40.424  -6.264  1.00  0.00     0.692 A 
HETATM    2  N2  UNL     1      36.399  41.030  -5.280  1.00  0.00    -0.163 N 
ATOM      3  H2  UNL     1      37.123  40.515  -4.779  1.00  0.00     0.187 HD
HETATM    4  C2  UNL     1      36.139  42.312  -4.944  1.00  0.00     0.221 A 
HETATM    5  N3  UNL     1      36.833  42.986  -3.916  1.00  0.00    -0.062 NA
HETATM    6  N4  UNL     1      35.170  42.981  -5.622  1.00  0.00    -0.162 N 
ATOM      7  H4  UNL     1      34.970  43.949  -5.372  1.00  0.00     0.187 HD
HETATM    8  C3  UNL     1      34.466  42.403  -6.613  1.00  0.00     0.695 A 
HETATM    9  N7  UNL     1      34.769  41.123  -6.905  1.00  0.00    -0.023 N 
ATOM     10  H7  UNL     1      34.250  40.661  -7.652  1.00  0.00     0.203 HD
ENDROOT
BRANCH   8  11
HETATM   11  N5  UNL     1      33.544  43.040  -7.258  1.00  0.00    -0.225 N 
ATOM     12  H5  UNL     1      33.128  43.885  -6.867  1.00  0.00     0.177 HD
BRANCH  11  13
HETATM   13  C4  UNL     1      33.114  42.534  -8.541  1.00  0.00     0.138 C 
BRANCH  13  14
HETATM   14  C5  UNL     1      32.803  43.646  -9.517  1.00  0.00     0.020 C 
BRANCH  14  15
HETATM   15  C6  UNL     1      33.956  43.691 -10.529  1.00  0.00     0.003 C 
BRANCH  15  16
HETATM   16  C7  UNL     1      33.375  44.276 -11.797  1.00  0.00     0.027 C 
BRANCH  16  17
HETATM   17  C8  UNL     1      32.173  45.148 -11.512  1.00  0.00     0.229 C 
BRANCH  17  18
HETATM   18  N6  UNL     1      32.314  46.362 -12.297  1.00  0.00    -0.079 N 
ATOM     19  H63 UNL     1      33.193  46.848 -12.121  1.00  0.00     0.274 HD
ATOM     20  H62 UNL     1      32.457  46.178 -13.289  1.00  0.00     0.274 HD
ATOM     21  H61 UNL     1      31.496  46.944 -12.115  1.00  0.00     0.274 HD
ENDBRANCH  17  18
ENDBRANCH  16  17
ENDBRANCH  15  16
ENDBRANCH  14  15
ENDBRANCH  13  14
ENDBRANCH  11  13
ENDBRANCH   8  11
BRANCH   1  22
HETATM   22  N1  UNL     1      35.959  39.203  -6.587  1.00  0.00    -0.234 N 
ATOM     23  H12 UNL     1      35.254  38.480  -6.451  1.00  0.00     0.174 HD
ATOM     24  H11 UNL     1      36.859  38.934  -6.986  1.00  0.00     0.174 HD
ENDBRANCH   1  22
TORSDOF 8
ENDMDL
MODEL 3
REMARK VINA RESULT: -5.955916537      3.126      6.953
REMARK  8 active torsions:
REMARK  status: ('A' for Active; 'I' for Inactive)
REMARK    1  A    between atoms: N1_1  and  C1_4 
REMARK    2  A    between atoms: C3_11  and  N5_12 
REMARK    3  A    between atoms: N5_12  and  C4_14 
REMARK    4  A    between atoms: C4_14  and  C5_15 
REMARK    5  A    between atoms: C5_15  and  C6_16 
REMARK    6  A    between atoms: C6_16  and  C7_17 
REMARK    7  A    between atoms: C7_17  and  C8_18 
REMARK    8  A    between atoms: C8_18  and  N6_19 
ROOT
HETATM    1  C1  UNL     1      34.367  42.310  -6.747  1.00  0.00     0.692 A 
HETATM    2  N2  UNL     1      34.617  41.040  -7.101  1.00  0.00    -0.163 N 
ATOM      3  H2  UNL     1      34.175  40.654  -7.936  1.00  0.00     0.187 HD
HETATM    4  C2  UNL     1      35.444  40.266  -6.366  1.00  0.00     0.221 A 
HETATM    5  N3  UNL     1      35.733  38.925  -6.701  1.00  0.00    -0.062 NA
HETATM    6  N4  UNL     1      36.021  40.798  -5.257  1.00  0.00    -0.162 N 
ATOM      7  H4  UNL     1      36.647  40.218  -4.699  1.00  0.00     0.187 HD
HETATM    8  C3  UNL     1      35.793  42.068  -4.875  1.00  0.00     0.695 A 
HETATM    9  N7  UNL     1      34.959  42.793  -5.647  1.00  0.00    -0.023 N 
ATOM     10  H7  UNL     1      34.768  43.758  -5.379  1.00  0.00     0.203 HD
ENDROOT
BRANCH   8  11
HETATM   11  N5  UNL     1      36.343  42.574  -3.820  1.00  0.00    -0.225 N 
ATOM     12  H5  UNL     1      35.993  43.445  -3.419  1.00  0.00     0.177 HD
BRANCH  11  13
HETATM   13  C4  UNL     1      37.461  41.885  -3.217  1.00  0.00     0.138 C 
BRANCH  13  14
HETATM   14  C5  UNL     1      37.140  41.385  -1.828  1.00  0.00     0.020 C 
BRANCH  14  15
HETATM   15  C6  UNL     1      36.460  42.539  -1.080  1.00  0.00     0.003 C 
BRANCH  15  16
HETATM   16  C7  UNL     1      37.575  43.439  -0.597  1.00  0.00     0.027 C 
BRANCH  16  17
HETATM   17  C8  UNL     1      37.364  44.873  -1.031  1.00  0.00     0.229 C 
BRANCH  17  18
HETATM   18  N6  UNL     1      35.992  44.997  -1.489  1.00  0.00    -0.079 N 
ATOM     19  H63 UNL     1      35.701  44.222  -2.085  1.00  0.00     0.274 HD
ATOM     20  H62 UNL     1      35.312  44.857  -0.743  1.00  0.00     0.274 HD
ATOM     21  H61 UNL     1      35.899  45.905  -1.945  1.00  0.00     0.274 HD
ENDBRANCH  17  18
ENDBRANCH  16  17
ENDBRANCH  15  16
ENDBRANCH  14  15
ENDBRANCH  13  14
ENDBRANCH  11  13
ENDBRANCH   8  11
BRANCH   1  22
HETATM   22  N1  UNL     1      33.580  43.051  -7.445  1.00  0.00    -0.234 N 
ATOM     23  H12 UNL     1      33.390  42.829  -8.422  1.00  0.00     0.174 HD
ATOM     24  H11 UNL     1      33.132  43.873  -7.039  1.00  0.00     0.174 HD
ENDBRANCH   1  22
TORSDOF 8
ENDMDL
MODEL 4
REMARK VINA RESULT: -5.927794555      3.165      7.906
REMARK  8 active torsions:
REMARK  status: ('A' for Active; 'I' for Inactive)
REMARK    1  A    between atoms: N1_1  and  C1_4 
REMARK    2  A    between atoms: C3_11  and  N5_12 
REMARK    3  A    between atoms: N5_12  and  C4_14 
REMARK    4  A    between atoms: C4_14  and  C5_15 
REMARK    5  A    between atoms: C5_15  and  C6_16 
REMARK    6  A    between atoms: C6_16  and  C7_17 
REMARK    7  A    between atoms: C7_17  and  C8_18 
REMARK    8  A    between atoms: C8_18  and  N6_19 
ROOT
HETATM    1  C1  UNL     1      34.415  42.341  -6.670  1.00  0.00     0.692 A 
HETATM    2  N2  UNL     1      34.674  41.063  -6.992  1.00  0.00    -0.163 N 
ATOM      3  H2  UNL     1      34.231  40.651  -7.814  1.00  0.00     0.187 HD
HETATM    4  C2  UNL     1      35.513  40.317  -6.242  1.00  0.00     0.221 A 
HETATM    5  N3  UNL     1      35.812  38.970  -6.544  1.00  0.00    -0.062 NA
HETATM    6  N4  UNL     1      36.093  40.883  -5.152  1.00  0.00    -0.162 N 
ATOM      7  H4  UNL     1      36.727  40.323  -4.582  1.00  0.00     0.187 HD
HETATM    8  C3  UNL     1      35.854  42.160  -4.801  1.00  0.00     0.695 A 
HETATM    9  N7  UNL     1      35.009  42.857  -5.586  1.00  0.00    -0.023 N 
ATOM     10  H7  UNL     1      34.811  43.827  -5.342  1.00  0.00     0.203 HD
ENDROOT
BRANCH   8  11
HETATM   11  N5  UNL     1      36.407  42.698  -3.764  1.00  0.00    -0.225 N 
ATOM     12  H5  UNL     1      36.572  43.704  -3.727  1.00  0.00     0.177 HD
BRANCH  11  13
HETATM   13  C4  UNL     1      36.784  41.851  -2.655  1.00  0.00     0.138 C 
BRANCH  13  14
HETATM   14  C5  UNL     1      35.919  42.084  -1.439  1.00  0.00     0.020 C 
BRANCH  14  15
HETATM   15  C6  UNL     1      36.747  42.915  -0.450  1.00  0.00     0.003 C 
BRANCH  15  16
HETATM   16  C7  UNL     1      37.000  42.019   0.741  1.00  0.00     0.027 C 
BRANCH  16  17
HETATM   17  C8  UNL     1      38.121  42.545   1.609  1.00  0.00     0.229 C 
BRANCH  17  18
HETATM   18  N6  UNL     1      38.758  43.636   0.894  1.00  0.00    -0.079 N 
ATOM     19  H63 UNL     1      38.247  44.516   0.977  1.00  0.00     0.274 HD
ATOM     20  H62 UNL     1      39.627  43.943   1.330  1.00  0.00     0.274 HD
ATOM     21  H61 UNL     1      38.883  43.340  -0.074  1.00  0.00     0.274 HD
ENDBRANCH  17  18
ENDBRANCH  16  17
ENDBRANCH  15  16
ENDBRANCH  14  15
ENDBRANCH  13  14
ENDBRANCH  11  13
ENDBRANCH   8  11
BRANCH   1  22
HETATM   22  N1  UNL     1      33.617  43.056  -7.382  1.00  0.00    -0.234 N 
ATOM     23  H12 UNL     1      32.810  42.632  -7.840  1.00  0.00     0.174 HD
ATOM     24  H11 UNL     1      33.773  44.057  -7.502  1.00  0.00     0.174 HD
ENDBRANCH   1  22
TORSDOF 8
ENDMDL
MODEL 5
REMARK VINA RESULT: -5.911897461      2.509      6.802
REMARK  8 active torsions:
REMARK  status: ('A' for Active; 'I' for Inactive)
REMARK    1  A    between atoms: N1_1  and  C1_4 
REMARK    2  A    between atoms: C3_11  and  N5_12 
REMARK    3  A    between atoms: N5_12  and  C4_14 
REMARK    4  A    between atoms: C4_14  and  C5_15 
REMARK    5  A    between atoms: C5_15  and  C6_16 
REMARK    6  A    between atoms: C6_16  and  C7_17 
REMARK    7  A    between atoms: C7_17  and  C8_18 
REMARK    8  A    between atoms: C8_18  and  N6_19 
ROOT
HETATM    1  C1  UNL     1      35.049  41.014  -8.325  1.00  0.00     0.692 A 
HETATM    2  N2  UNL     1      34.052  41.761  -8.825  1.00  0.00    -0.163 N 
ATOM      3  H2  UNL     1      33.703  41.571  -9.765  1.00  0.00     0.187 HD
HETATM    4  C2  UNL     1      33.505  42.760  -8.100  1.00  0.00     0.221 A 
HETATM    5  N3  UNL     1      32.457  43.570  -8.587  1.00  0.00    -0.062 NA
HETATM    6  N4  UNL     1      33.984  42.998  -6.851  1.00  0.00    -0.162 N 
ATOM      7  H4  UNL     1      33.575  43.751  -6.300  1.00  0.00     0.187 HD
HETATM    8  C3  UNL     1      34.983  42.268  -6.320  1.00  0.00     0.695 A 
HETATM    9  N7  UNL     1      35.489  41.284  -7.089  1.00  0.00    -0.023 N 
ATOM     10  H7  UNL     1      36.247  40.716  -6.711  1.00  0.00     0.203 HD
ENDROOT
BRANCH   8  11
HETATM   11  N5  UNL     1      35.438  42.495  -5.132  1.00  0.00    -0.225 N 
ATOM     12  H5  UNL     1      35.033  43.231  -4.553  1.00  0.00     0.177 HD
BRANCH  11  13
HETATM   13  C4  UNL     1      36.529  41.687  -4.636  1.00  0.00     0.138 C 
BRANCH  13  14
HETATM   14  C5  UNL     1      37.756  42.513  -4.330  1.00  0.00     0.020 C 
BRANCH  14  15
HETATM   15  C6  UNL     1      37.993  42.423  -2.816  1.00  0.00     0.003 C 
BRANCH  15  16
HETATM   16  C7  UNL     1      37.354  43.656  -2.218  1.00  0.00     0.027 C 
BRANCH  16  17
HETATM   17  C8  UNL     1      36.538  43.323  -0.989  1.00  0.00     0.229 C 
BRANCH  17  18
HETATM   18  N6  UNL     1      35.330  42.650  -1.430  1.00  0.00    -0.079 N 
ATOM     19  H63 UNL     1      35.211  42.674  -2.444  1.00  0.00     0.274 HD
ATOM     20  H62 UNL     1      35.380  41.637  -1.325  1.00  0.00     0.274 HD
ATOM     21  H61 UNL     1      34.545  43.063  -0.928  1.00  0.00     0.274 HD
ENDBRANCH  17  18
ENDBRANCH  16  17
ENDBRANCH  15  16
ENDBRANCH  14  15
ENDBRANCH  13  14
ENDBRANCH  11  13
ENDBRANCH   8  11
BRANCH   1  22
HETATM   22  N1  UNL     1      35.573  40.060  -9.012  1.00  0.00    -0.234 N 
ATOM     23  H12 UNL     1      36.519  40.147  -9.382  1.00  0.00     0.174 HD
ATOM     24  H11 UNL     1      35.056  39.201  -9.200  1.00  0.00     0.174 HD
ENDBRANCH   1  22
TORSDOF 8
ENDMDL
