MODEL 1
REMARK VINA RESULT: -6.893579501      0.000      0.000
REMARK  5 active torsions:
REMARK  status: ('A' for Active; 'I' for Inactive)
REMARK       I    between atoms: C1_2  and  N1_4 
REMARK    1  A    between atoms: N1_4  and  C2_6 
REMARK    2  A    between atoms: C2_6  and  C3_7 
REMARK    3  A    between atoms: C4_9  and  O4_10 
REMARK    4  A    between atoms: C5_12  and  O5_13 
REMARK    5  A    between atoms: C6_15  and  O6_16 
ROOT
HETATM    1  C3  UNL     1      74.684  58.815  35.685  1.00  0.00     0.159 C 
HETATM    2  O3  UNL     1      74.081  59.772  36.399  1.00  0.00    -0.351 OA
HETATM    3  C4  UNL     1      74.432  60.027  37.663  1.00  0.00     0.288 C 
HETATM    4  C5  UNL     1      75.764  59.622  38.146  1.00  0.00     0.203 C 
HETATM    5  C6  UNL     1      76.444  58.544  37.353  1.00  0.00     0.168 C 
HETATM    6  C7  UNL     1      75.511  57.825  36.417  1.00  0.00     0.120 C 
HETATM    7  S1  UNL     1      76.568  56.963  35.190  1.00  0.00    -0.087 SA
ENDROOT
BRANCH   1   8
HETATM    8  C2  UNL     1      73.613  58.024  34.925  1.00  0.00     0.159 C 
BRANCH   8   9
HETATM    9  N1  UNL     1      72.664  57.472  35.890  1.00  0.00    -0.333 N 
HETATM   10  C1  UNL     1      72.509  56.071  35.969  1.00  0.00     0.283 C 
HETATM   11  O1  UNL     1      73.164  55.297  35.234  1.00  0.00    -0.630 OA
HETATM   12  O2  UNL     1      71.618  55.538  36.874  1.00  0.00    -0.630 OA
ATOM     13  H1  UNL     1      72.122  58.089  36.496  1.00  0.00     0.165 HD
ENDBRANCH   8   9
ENDBRANCH   1   8
BRANCH   3  14
HETATM   14  O4  UNL     1      73.453  59.463  38.518  1.00  0.00    -0.369 OA
ATOM     15  H4  UNL     1      73.877  59.212  39.330  1.00  0.00     0.212 HD
ENDBRANCH   3  14
BRANCH   5  16
HETATM   16  O6  UNL     1      77.034  57.571  38.165  1.00  0.00    -0.392 OA
ATOM     17  H6  UNL     1      77.255  56.780  37.686  1.00  0.00     0.210 HD
ENDBRANCH   5  16
BRANCH   4  18
HETATM   18  O5  UNL     1      75.692  59.173  39.471  1.00  0.00    -0.388 OA
ATOM     19  H5  UNL     1      76.507  59.346  39.927  1.00  0.00     0.210 HD
ENDBRANCH   4  18
TORSDOF 5
ENDMDL
MODEL 2
REMARK VINA RESULT: -6.588983361      1.602      1.632
REMARK  5 active torsions:
REMARK  status: ('A' for Active; 'I' for Inactive)
REMARK       I    between atoms: C1_2  and  N1_4 
REMARK    1  A    between atoms: N1_4  and  C2_6 
REMARK    2  A    between atoms: C2_6  and  C3_7 
REMARK    3  A    between atoms: C4_9  and  O4_10 
REMARK    4  A    between atoms: C5_12  and  O5_13 
REMARK    5  A    between atoms: C6_15  and  O6_16 
ROOT
HETATM    1  C3  UNL     1      74.443  58.478  35.735  1.00  0.00     0.159 C 
HETATM    2  O3  UNL     1      73.832  59.462  36.404  1.00  0.00    -0.351 OA
HETATM    3  C4  UNL     1      74.254  59.853  37.611  1.00  0.00     0.288 C 
HETATM    4  C5  UNL     1      75.639  59.569  38.026  1.00  0.00     0.203 C 
HETATM    5  C6  UNL     1      76.328  58.462  37.284  1.00  0.00     0.168 C 
HETATM    6  C7  UNL     1      75.378  57.608  36.487  1.00  0.00     0.120 C 
HETATM    7  S1  UNL     1      76.399  56.696  35.266  1.00  0.00    -0.087 SA
ENDROOT
BRANCH   1   8
HETATM    8  C2  UNL     1      73.373  57.561  35.131  1.00  0.00     0.159 C 
BRANCH   8   9
HETATM    9  N1  UNL     1      72.152  58.338  34.923  1.00  0.00    -0.333 N 
HETATM   10  C1  UNL     1      71.130  57.796  34.112  1.00  0.00     0.283 C 
HETATM   11  O1  UNL     1      71.249  56.672  33.572  1.00  0.00    -0.630 OA
HETATM   12  O2  UNL     1      69.975  58.516  33.908  1.00  0.00    -0.630 OA
ATOM     13  H1  UNL     1      72.040  59.255  35.355  1.00  0.00     0.165 HD
ENDBRANCH   8   9
ENDBRANCH   1   8
BRANCH   3  14
HETATM   14  O4  UNL     1      73.374  59.318  38.583  1.00  0.00    -0.369 OA
ATOM     15  H4  UNL     1      72.604  58.986  38.135  1.00  0.00     0.212 HD
ENDBRANCH   3  14
BRANCH   5  16
HETATM   16  O6  UNL     1      77.032  57.603  38.132  1.00  0.00    -0.392 OA
ATOM     17  H6  UNL     1      77.719  58.048  38.615  1.00  0.00     0.210 HD
ENDBRANCH   5  16
BRANCH   4  18
HETATM   18  O5  UNL     1      75.687  59.242  39.387  1.00  0.00    -0.388 OA
ATOM     19  H5  UNL     1      76.129  58.411  39.516  1.00  0.00     0.210 HD
ENDBRANCH   4  18
TORSDOF 5
ENDMDL
MODEL 3
REMARK VINA RESULT: -6.355724009      3.336      5.427
REMARK  5 active torsions:
REMARK  status: ('A' for Active; 'I' for Inactive)
REMARK       I    between atoms: C1_2  and  N1_4 
REMARK    1  A    between atoms: N1_4  and  C2_6 
REMARK    2  A    between atoms: C2_6  and  C3_7 
REMARK    3  A    between atoms: C4_9  and  O4_10 
REMARK    4  A    between atoms: C5_12  and  O5_13 
REMARK    5  A    between atoms: C6_15  and  O6_16 
ROOT
HETATM    1  C3  UNL     1      74.147  57.112  35.030  1.00  0.00     0.159 C 
HETATM    2  O3  UNL     1      74.503  58.356  34.690  1.00  0.00    -0.351 OA
HETATM    3  C4  UNL     1      74.168  58.880  33.507  1.00  0.00     0.288 C 
HETATM    4  C5  UNL     1      73.030  58.320  32.757  1.00  0.00     0.203 C 
HETATM    5  C6  UNL     1      72.630  56.923  33.129  1.00  0.00     0.168 C 
HETATM    6  C7  UNL     1      73.670  56.212  33.953  1.00  0.00     0.120 C 
HETATM    7  S1  UNL     1      72.823  54.791  34.746  1.00  0.00    -0.087 SA
ENDROOT
BRANCH   1   8
HETATM    8  C2  UNL     1      75.349  56.422  35.685  1.00  0.00     0.159 C 
BRANCH   8   9
HETATM    9  N1  UNL     1      76.428  56.325  34.703  1.00  0.00    -0.333 N 
HETATM   10  C1  UNL     1      77.646  56.990  34.962  1.00  0.00     0.283 C 
HETATM   11  O1  UNL     1      77.820  57.657  36.008  1.00  0.00    -0.630 OA
HETATM   12  O2  UNL     1      78.671  56.906  34.045  1.00  0.00    -0.630 OA
ATOM     13  H1  UNL     1      76.302  55.786  33.846  1.00  0.00     0.165 HD
ENDBRANCH   8   9
ENDBRANCH   1   8
BRANCH   3  14
HETATM   14  O4  UNL     1      75.313  58.856  32.673  1.00  0.00    -0.369 OA
ATOM     15  H4  UNL     1      75.250  59.582  32.062  1.00  0.00     0.212 HD
ENDBRANCH   3  14
BRANCH   5  16
HETATM   16  O6  UNL     1      72.379  56.120  32.012  1.00  0.00    -0.392 OA
ATOM     17  H6  UNL     1      72.559  55.201  32.175  1.00  0.00     0.210 HD
ENDBRANCH   5  16
BRANCH   4  18
HETATM   18  O5  UNL     1      73.300  58.317  31.383  1.00  0.00    -0.388 OA
ATOM     19  H5  UNL     1      73.719  57.504  31.126  1.00  0.00     0.210 HD
ENDBRANCH   4  18
TORSDOF 5
ENDMDL
MODEL 4
REMARK VINA RESULT: -6.299680246      1.746      1.950
REMARK  5 active torsions:
REMARK  status: ('A' for Active; 'I' for Inactive)
REMARK       I    between atoms: C1_2  and  N1_4 
REMARK    1  A    between atoms: N1_4  and  C2_6 
REMARK    2  A    between atoms: C2_6  and  C3_7 
REMARK    3  A    between atoms: C4_9  and  O4_10 
REMARK    4  A    between atoms: C5_12  and  O5_13 
REMARK    5  A    between atoms: C6_15  and  O6_16 
ROOT
HETATM    1  C3  UNL     1      74.025  57.308  36.165  1.00  0.00     0.159 C 
HETATM    2  O3  UNL     1      73.110  58.128  36.696  1.00  0.00    -0.351 OA
HETATM    3  C4  UNL     1      73.449  59.318  37.202  1.00  0.00     0.288 C 
HETATM    4  C5  UNL     1      74.706  59.960  36.778  1.00  0.00     0.203 C 
HETATM    5  C6  UNL     1      75.738  59.045  36.187  1.00  0.00     0.168 C 
HETATM    6  C7  UNL     1      75.453  57.590  36.448  1.00  0.00     0.120 C 
HETATM    7  S1  UNL     1      76.460  56.639  35.246  1.00  0.00    -0.087 SA
ENDROOT
BRANCH   1   8
HETATM    8  C2  UNL     1      73.748  55.883  36.659  1.00  0.00     0.159 C 
BRANCH   8   9
HETATM    9  N1  UNL     1      72.798  55.247  35.749  1.00  0.00    -0.333 N 
HETATM   10  C1  UNL     1      72.632  53.846  35.808  1.00  0.00     0.283 C 
HETATM   11  O1  UNL     1      73.278  53.143  36.618  1.00  0.00    -0.630 OA
HETATM   12  O2  UNL     1      71.740  53.234  34.956  1.00  0.00    -0.630 OA
ATOM     13  H1  UNL     1      72.264  55.805  35.082  1.00  0.00     0.165 HD
ENDBRANCH   8   9
ENDBRANCH   1   8
BRANCH   3  14
HETATM   14  O4  UNL     1      73.452  59.214  38.615  1.00  0.00    -0.369 OA
ATOM     15  H4  UNL     1      74.336  59.377  38.923  1.00  0.00     0.212 HD
ENDBRANCH   3  14
BRANCH   5  16
HETATM   16  O6  UNL     1      77.023  59.299  36.674  1.00  0.00    -0.392 OA
ATOM     17  H6  UNL     1      77.639  58.607  36.462  1.00  0.00     0.210 HD
ENDBRANCH   5  16
BRANCH   4  18
HETATM   18  O5  UNL     1      75.310  60.619  37.856  1.00  0.00    -0.388 OA
ATOM     19  H5  UNL     1      75.991  61.207  37.549  1.00  0.00     0.210 HD
ENDBRANCH   4  18
TORSDOF 5
ENDMDL
MODEL 5
REMARK VINA RESULT: -6.275321320      2.804      5.365
REMARK  5 active torsions:
REMARK  status: ('A' for Active; 'I' for Inactive)
REMARK       I    between atoms: C1_2  and  N1_4 
REMARK    1  A    between atoms: N1_4  and  C2_6 
REMARK    2  A    between atoms: C2_6  and  C3_7 
REMARK    3  A    between atoms: C4_9  and  O4_10 
REMARK    4  A    between atoms: C5_12  and  O5_13 
REMARK    5  A    between atoms: C6_15  and  O6_16 
ROOT
HETATM    1  C3  UNL     1      73.861  57.842  35.033  1.00  0.00     0.159 C 
HETATM    2  O3  UNL     1      73.486  58.569  33.975  1.00  0.00    -0.351 OA
HETATM    3  C4  UNL     1      72.910  58.005  32.909  1.00  0.00     0.288 C 
HETATM    4  C5  UNL     1      72.247  56.696  33.044  1.00  0.00     0.203 C 
HETATM    5  C6  UNL     1      72.667  55.873  34.226  1.00  0.00     0.168 C 
HETATM    6  C7  UNL     1      73.934  56.370  34.869  1.00  0.00     0.120 C 
HETATM    7  S1  UNL     1      73.996  55.622  36.543  1.00  0.00    -0.087 SA
ENDROOT
BRANCH   1   8
HETATM    8  C2  UNL     1      75.252  58.308  35.478  1.00  0.00     0.159 C 
BRANCH   8   9
HETATM    9  N1  UNL     1      76.241  57.817  34.521  1.00  0.00    -0.333 N 
HETATM   10  C1  UNL     1      77.492  57.373  35.002  1.00  0.00     0.283 C 
HETATM   11  O1  UNL     1      77.769  57.392  36.224  1.00  0.00    -0.630 OA
HETATM   12  O2  UNL     1      78.433  56.906  34.111  1.00  0.00    -0.630 OA
ATOM     13  H1  UNL     1      76.031  57.795  33.523  1.00  0.00     0.165 HD
ENDBRANCH   8   9
ENDBRANCH   1   8
BRANCH   3  14
HETATM   14  O4  UNL     1      73.878  57.914  31.878  1.00  0.00    -0.369 OA
ATOM     15  H4  UNL     1      73.505  57.411  31.163  1.00  0.00     0.212 HD
ENDBRANCH   3  14
BRANCH   5  16
HETATM   16  O6  UNL     1      72.879  54.530  33.898  1.00  0.00    -0.392 OA
ATOM     17  H6  UNL     1      73.712  54.387  33.464  1.00  0.00     0.210 HD
ENDBRANCH   5  16
BRANCH   4  18
HETATM   18  O5  UNL     1      72.462  55.914  31.902  1.00  0.00    -0.388 OA
ATOM     19  H5  UNL     1      73.170  55.298  32.048  1.00  0.00     0.210 HD
ENDBRANCH   4  18
TORSDOF 5
ENDMDL
