MODEL 1
REMARK VINA RESULT: -5.504605949      0.000      0.000
REMARK  6 active torsions:
REMARK  status: ('A' for Active; 'I' for Inactive)
REMARK    1  A    between atoms: N1_2  and  C2_4 
REMARK    2  A    between atoms: C3_5  and  C4_6 
REMARK    3  A    between atoms: C4_6  and  O1_7 
REMARK    4  A    between atoms: C5_10  and  S1_11 
REMARK    5  A    between atoms: C6_13  and  O3_14 
REMARK    6  A    between atoms: C7_16  and  O4_17 
ROOT
HETATM    1  C2  UNL     1      74.947  57.466  36.760  1.00  0.00     0.139 C 
HETATM    2  C3  UNL     1      75.836  58.372  35.895  1.00  0.00     0.171 C 
HETATM    3  O2  UNL     1      75.259  59.641  36.067  1.00  0.00    -0.362 OA
HETATM    4  C5  UNL     1      75.642  60.167  37.314  1.00  0.00     0.226 C 
HETATM    5  C6  UNL     1      75.027  59.313  38.404  1.00  0.00     0.188 C 
HETATM    6  C7  UNL     1      75.310  57.826  38.181  1.00  0.00     0.175 C 
ENDROOT
BRANCH   1   7
HETATM    7  N1  UNL     1      75.155  56.144  36.369  1.00  0.00    -0.416 N 
HETATM    8  C1  UNL     1      74.112  55.184  36.521  1.00  0.00     0.140 C 
ATOM      9  H1  UNL     1      76.053  55.864  35.975  1.00  0.00     0.153 HD
ENDBRANCH   1   7
BRANCH   2  10
HETATM   10  C4  UNL     1      75.660  58.105  34.407  1.00  0.00     0.198 C 
BRANCH  10  11
HETATM   11  O1  UNL     1      76.865  57.435  34.048  1.00  0.00    -0.398 OA
ATOM     12  H1  UNL     1      76.577  56.547  33.870  1.00  0.00     0.209 HD
ENDBRANCH  10  11
ENDBRANCH   2  10
BRANCH   6  13
HETATM   13  O4  UNL     1      76.672  57.634  38.322  1.00  0.00    -0.391 OA
ATOM     14  H4  UNL     1      77.108  58.337  37.855  1.00  0.00     0.210 HD
ENDBRANCH   6  13
BRANCH   5  15
HETATM   15  O3  UNL     1      73.647  59.538  38.513  1.00  0.00    -0.389 OA
ATOM     16  H3  UNL     1      73.323  60.060  37.788  1.00  0.00     0.210 HD
ENDBRANCH   5  15
BRANCH   4  17
HETATM   17  S1  UNL     1      74.923  61.831  37.343  1.00  0.00    -0.050 SA
HETATM   18  S2  UNL     1      73.435  62.003  35.836  1.00  0.00    -0.011 SA
ENDBRANCH   4  17
TORSDOF 6
ENDMDL
MODEL 2
REMARK VINA RESULT: -5.443217823      2.647      4.223
REMARK  6 active torsions:
REMARK  status: ('A' for Active; 'I' for Inactive)
REMARK    1  A    between atoms: N1_2  and  C2_4 
REMARK    2  A    between atoms: C3_5  and  C4_6 
REMARK    3  A    between atoms: C4_6  and  O1_7 
REMARK    4  A    between atoms: C5_10  and  S1_11 
REMARK    5  A    between atoms: C6_13  and  O3_14 
REMARK    6  A    between atoms: C7_16  and  O4_17 
ROOT
HETATM    1  C2  UNL     1      75.254  57.111  36.326  1.00  0.00     0.139 C 
HETATM    2  C3  UNL     1      74.081  57.708  37.117  1.00  0.00     0.171 C 
HETATM    3  O2  UNL     1      73.087  57.872  36.138  1.00  0.00    -0.362 OA
HETATM    4  C5  UNL     1      72.491  56.629  35.861  1.00  0.00     0.226 C 
HETATM    5  C6  UNL     1      73.527  55.733  35.213  1.00  0.00     0.188 C 
HETATM    6  C7  UNL     1      74.824  55.695  36.023  1.00  0.00     0.175 C 
ENDROOT
BRANCH   1   7
HETATM    7  N1  UNL     1      76.418  57.273  37.076  1.00  0.00    -0.416 N 
HETATM    8  C1  UNL     1      77.641  57.614  36.428  1.00  0.00     0.140 C 
ATOM      9  H1  UNL     1      76.394  57.147  38.088  1.00  0.00     0.153 HD
ENDBRANCH   1   7
BRANCH   2  10
HETATM   10  C4  UNL     1      74.358  59.133  37.577  1.00  0.00     0.198 C 
BRANCH  10  11
HETATM   11  O1  UNL     1      73.377  59.350  38.586  1.00  0.00    -0.398 OA
ATOM     12  H1  UNL     1      73.844  59.856  39.241  1.00  0.00     0.209 HD
ENDBRANCH  10  11
ENDBRANCH   2  10
BRANCH   6  13
HETATM   13  O4  UNL     1      74.545  55.081  37.230  1.00  0.00    -0.391 OA
ATOM     14  H4  UNL     1      73.972  54.344  37.049  1.00  0.00     0.210 HD
ENDBRANCH   6  13
BRANCH   5  15
HETATM   15  O3  UNL     1      73.786  56.124  33.891  1.00  0.00    -0.389 OA
ATOM     16  H3  UNL     1      73.548  55.441  33.275  1.00  0.00     0.210 HD
ENDBRANCH   5  15
BRANCH   4  17
HETATM   17  S1  UNL     1      71.171  57.014  34.680  1.00  0.00    -0.050 SA
HETATM   18  S2  UNL     1      71.376  59.013  33.992  1.00  0.00    -0.011 SA
ENDBRANCH   4  17
TORSDOF 6
ENDMDL
MODEL 3
REMARK VINA RESULT: -5.427871407      2.149      3.693
REMARK  6 active torsions:
REMARK  status: ('A' for Active; 'I' for Inactive)
REMARK    1  A    between atoms: N1_2  and  C2_4 
REMARK    2  A    between atoms: C3_5  and  C4_6 
REMARK    3  A    between atoms: C4_6  and  O1_7 
REMARK    4  A    between atoms: C5_10  and  S1_11 
REMARK    5  A    between atoms: C6_13  and  O3_14 
REMARK    6  A    between atoms: C7_16  and  O4_17 
ROOT
HETATM    1  C2  UNL     1      76.039  57.841  36.615  1.00  0.00     0.139 C 
HETATM    2  C3  UNL     1      74.921  58.514  37.424  1.00  0.00     0.171 C 
HETATM    3  O2  UNL     1      74.018  58.931  36.433  1.00  0.00    -0.362 OA
HETATM    4  C5  UNL     1      73.266  57.829  35.988  1.00  0.00     0.226 C 
HETATM    5  C6  UNL     1      74.198  56.866  35.280  1.00  0.00     0.188 C 
HETATM    6  C7  UNL     1      75.428  56.546  36.131  1.00  0.00     0.175 C 
ENDROOT
BRANCH   1   7
HETATM    7  N1  UNL     1      77.170  57.743  37.424  1.00  0.00    -0.416 N 
HETATM    8  C1  UNL     1      78.450  58.096  36.905  1.00  0.00     0.140 C 
ATOM      9  H1  UNL     1      77.082  57.420  38.387  1.00  0.00     0.153 HD
ENDBRANCH   1   7
BRANCH   2  10
HETATM   10  C4  UNL     1      75.374  59.822  38.059  1.00  0.00     0.198 C 
BRANCH  10  11
HETATM   11  O1  UNL     1      75.547  59.479  39.431  1.00  0.00    -0.398 OA
ATOM     12  H1  UNL     1      76.414  59.090  39.452  1.00  0.00     0.209 HD
ENDBRANCH  10  11
ENDBRANCH   2  10
BRANCH   6  13
HETATM   13  O4  UNL     1      74.997  55.850  37.245  1.00  0.00    -0.391 OA
ATOM     14  H4  UNL     1      74.230  55.350  36.989  1.00  0.00     0.210 HD
ENDBRANCH   6  13
BRANCH   5  15
HETATM   15  O3  UNL     1      74.584  57.358  34.025  1.00  0.00    -0.389 OA
ATOM     16  H3  UNL     1      73.849  57.744  33.563  1.00  0.00     0.210 HD
ENDBRANCH   5  15
BRANCH   4  17
HETATM   17  S1  UNL     1      72.083  58.535  34.810  1.00  0.00    -0.050 SA
HETATM   18  S2  UNL     1      72.394  60.629  34.638  1.00  0.00    -0.011 SA
ENDBRANCH   4  17
TORSDOF 6
ENDMDL
MODEL 4
REMARK VINA RESULT: -5.216700103      2.056      2.423
REMARK  6 active torsions:
REMARK  status: ('A' for Active; 'I' for Inactive)
REMARK    1  A    between atoms: N1_2  and  C2_4 
REMARK    2  A    between atoms: C3_5  and  C4_6 
REMARK    3  A    between atoms: C4_6  and  O1_7 
REMARK    4  A    between atoms: C5_10  and  S1_11 
REMARK    5  A    between atoms: C6_13  and  O3_14 
REMARK    6  A    between atoms: C7_16  and  O4_17 
ROOT
HETATM    1  C2  UNL     1      74.756  56.436  35.272  1.00  0.00     0.139 C 
HETATM    2  C3  UNL     1      76.191  56.656  35.771  1.00  0.00     0.171 C 
HETATM    3  O2  UNL     1      76.107  57.884  36.447  1.00  0.00    -0.362 OA
HETATM    4  C5  UNL     1      75.517  57.687  37.708  1.00  0.00     0.226 C 
HETATM    5  C6  UNL     1      74.077  57.260  37.503  1.00  0.00     0.188 C 
HETATM    6  C7  UNL     1      73.971  56.096  36.517  1.00  0.00     0.175 C 
ENDROOT
BRANCH   1   7
HETATM    7  N1  UNL     1      74.784  55.476  34.260  1.00  0.00    -0.416 N 
HETATM    8  C1  UNL     1      73.846  55.542  33.189  1.00  0.00     0.140 C 
ATOM      9  H1  UNL     1      75.476  54.727  34.287  1.00  0.00     0.153 HD
ENDBRANCH   1   7
BRANCH   2  10
HETATM   10  C4  UNL     1      77.160  56.948  34.634  1.00  0.00     0.198 C 
BRANCH  10  11
HETATM   11  O1  UNL     1      76.492  57.957  33.882  1.00  0.00    -0.398 OA
ATOM     12  H1  UNL     1      75.700  57.522  33.587  1.00  0.00     0.209 HD
ENDBRANCH  10  11
ENDBRANCH   2  10
BRANCH   6  13
HETATM   13  O4  UNL     1      74.574  54.997  37.100  1.00  0.00    -0.391 OA
ATOM     14  H4  UNL     1      75.221  55.321  37.717  1.00  0.00     0.210 HD
ENDBRANCH   6  13
BRANCH   5  15
HETATM   15  O3  UNL     1      73.281  58.335  37.081  1.00  0.00    -0.389 OA
ATOM     16  H3  UNL     1      72.360  58.098  37.064  1.00  0.00     0.210 HD
ENDBRANCH   5  15
BRANCH   4  17
HETATM   17  S1  UNL     1      75.579  59.318  38.497  1.00  0.00    -0.050 SA
HETATM   18  S2  UNL     1      75.508  60.840  37.018  1.00  0.00    -0.011 SA
ENDBRANCH   4  17
TORSDOF 6
ENDMDL
MODEL 5
REMARK VINA RESULT: -5.210224076      1.694      2.235
REMARK  6 active torsions:
REMARK  status: ('A' for Active; 'I' for Inactive)
REMARK    1  A    between atoms: N1_2  and  C2_4 
REMARK    2  A    between atoms: C3_5  and  C4_6 
REMARK    3  A    between atoms: C4_6  and  O1_7 
REMARK    4  A    between atoms: C5_10  and  S1_11 
REMARK    5  A    between atoms: C6_13  and  O3_14 
REMARK    6  A    between atoms: C7_16  and  O4_17 
ROOT
HETATM    1  C2  UNL     1      75.150  58.106  36.702  1.00  0.00     0.139 C 
HETATM    2  C3  UNL     1      76.324  58.825  37.384  1.00  0.00     0.171 C 
HETATM    3  O2  UNL     1      76.251  60.124  36.856  1.00  0.00    -0.362 OA
HETATM    4  C5  UNL     1      75.221  60.834  37.499  1.00  0.00     0.226 C 
HETATM    5  C6  UNL     1      73.896  60.195  37.133  1.00  0.00     0.188 C 
HETATM    6  C7  UNL     1      73.920  58.683  37.363  1.00  0.00     0.175 C 
ENDROOT
BRANCH   1   7
HETATM    7  N1  UNL     1      75.347  56.731  36.822  1.00  0.00    -0.416 N 
HETATM    8  C1  UNL     1      74.337  55.826  36.382  1.00  0.00     0.140 C 
ATOM      9  H1  UNL     1      76.214  56.373  37.223  1.00  0.00     0.153 HD
ENDBRANCH   1   7
BRANCH   2  10
HETATM   10  C4  UNL     1      77.674  58.323  36.891  1.00  0.00     0.198 C 
BRANCH  10  11
HETATM   11  O1  UNL     1      77.981  57.263  37.793  1.00  0.00    -0.398 OA
ATOM     12  H1  UNL     1      77.577  56.505  37.387  1.00  0.00     0.209 HD
ENDBRANCH  10  11
ENDBRANCH   2  10
BRANCH   6  13
HETATM   13  O4  UNL     1      74.041  58.468  38.723  1.00  0.00    -0.391 OA
ATOM     14  H4  UNL     1      74.635  59.126  39.064  1.00  0.00     0.210 HD
ENDBRANCH   6  13
BRANCH   5  15
HETATM   15  O3  UNL     1      73.536  60.484  35.809  1.00  0.00    -0.389 OA
ATOM     16  H3  UNL     1      72.828  59.924  35.513  1.00  0.00     0.210 HD
ENDBRANCH   5  15
BRANCH   4  17
HETATM   17  S1  UNL     1      75.321  62.505  36.802  1.00  0.00    -0.050 SA
HETATM   18  S2  UNL     1      75.334  63.942  38.366  1.00  0.00    -0.011 SA
ENDBRANCH   4  17
TORSDOF 6
ENDMDL
