MODEL 1
REMARK VINA RESULT: -7.339454970      0.000      0.000
REMARK  7 active torsions:
REMARK  status: ('A' for Active; 'I' for Inactive)
REMARK    1  A    between atoms: O1_1  and  C1_3 
REMARK    2  A    between atoms: C1_3  and  C2_4 
REMARK    3  A    between atoms: C3_6  and  C4_7 
REMARK    4  A    between atoms: C4_7  and  O3_8 
REMARK    5  A    between atoms: C5_10  and  O4_11 
REMARK    6  A    between atoms: C6_13  and  N1_14 
REMARK    7  A    between atoms: C9_17  and  O5_18 
ROOT
HETATM    1  C2  UNL     1      73.354  56.502  33.536  1.00  0.00     0.286 C 
HETATM    2  O2  UNL     1      72.611  55.502  34.110  1.00  0.00    -0.349 OA
HETATM    3  C3  UNL     1      73.366  54.605  34.864  1.00  0.00     0.181 C 
HETATM    4  C5  UNL     1      74.270  55.341  35.751  1.00  0.00     0.198 C 
HETATM    5  C6  UNL     1      73.888  56.819  35.719  1.00  0.00     0.261 C 
HETATM    6  O6  UNL     1      73.990  57.331  34.445  1.00  0.00    -0.332 OA
ENDROOT
BRANCH   5   7
HETATM    7  N1  UNL     1      74.757  57.537  36.640  1.00  0.00    -0.335 N 
HETATM    8  C7  UNL     1      76.091  57.638  36.505  1.00  0.00     0.096 A 
HETATM    9  C8  UNL     1      76.587  58.385  37.553  1.00  0.00     0.055 A 
HETATM   10  C9  UNL     1      75.533  58.757  38.356  1.00  0.00     0.082 A 
HETATM   11  C10 UNL     1      74.418  58.209  37.752  1.00  0.00     0.129 A 
BRANCH  10  12
HETATM   12  O5  UNL     1      75.590  59.524  39.528  1.00  0.00    -0.359 OA
ATOM     13  H5  UNL     1      74.938  59.569  40.217  1.00  0.00     0.217 HD
ENDBRANCH  10  12
ENDBRANCH   5   7
BRANCH   4  14
HETATM   14  O4  UNL     1      74.279  54.960  37.078  1.00  0.00    -0.388 OA
ATOM     15  H4  UNL     1      73.545  55.248  37.608  1.00  0.00     0.210 HD
ENDBRANCH   4  14
BRANCH   3  16
HETATM   16  C4  UNL     1      72.423  53.641  35.508  1.00  0.00     0.199 C 
BRANCH  16  17
HETATM   17  O3  UNL     1      71.665  52.898  34.649  1.00  0.00    -0.398 OA
ATOM     18  H3  UNL     1      70.931  52.442  35.042  1.00  0.00     0.209 HD
ENDBRANCH  16  17
ENDBRANCH   3  16
BRANCH   1  19
HETATM   19  C1  UNL     1      72.367  57.311  32.680  1.00  0.00     0.224 C 
BRANCH  19  20
HETATM   20  O1  UNL     1      71.206  56.570  32.613  1.00  0.00    -0.396 OA
ATOM     21  H1  UNL     1      71.091  56.327  31.702  1.00  0.00     0.209 HD
ENDBRANCH  19  20
ENDBRANCH   1  19
TORSDOF 7
ENDMDL
MODEL 2
REMARK VINA RESULT: -7.327329284      0.874      2.769
REMARK  7 active torsions:
REMARK  status: ('A' for Active; 'I' for Inactive)
REMARK    1  A    between atoms: O1_1  and  C1_3 
REMARK    2  A    between atoms: C1_3  and  C2_4 
REMARK    3  A    between atoms: C3_6  and  C4_7 
REMARK    4  A    between atoms: C4_7  and  O3_8 
REMARK    5  A    between atoms: C5_10  and  O4_11 
REMARK    6  A    between atoms: C6_13  and  N1_14 
REMARK    7  A    between atoms: C9_17  and  O5_18 
ROOT
HETATM    1  C2  UNL     1      72.300  54.938  35.678  1.00  0.00     0.286 C 
HETATM    2  O2  UNL     1      72.223  55.417  34.395  1.00  0.00    -0.349 OA
HETATM    3  C3  UNL     1      71.901  56.772  34.320  1.00  0.00     0.181 C 
HETATM    4  C5  UNL     1      72.736  57.531  35.255  1.00  0.00     0.198 C 
HETATM    5  C6  UNL     1      73.830  56.610  35.790  1.00  0.00     0.261 C 
HETATM    6  O6  UNL     1      73.291  55.526  36.446  1.00  0.00    -0.332 OA
ENDROOT
BRANCH   5   7
HETATM    7  N1  UNL     1      74.685  57.384  36.679  1.00  0.00    -0.335 N 
HETATM    8  C7  UNL     1      76.009  57.546  36.509  1.00  0.00     0.096 A 
HETATM    9  C8  UNL     1      76.493  58.333  37.533  1.00  0.00     0.055 A 
HETATM   10  C9  UNL     1      75.442  58.667  38.357  1.00  0.00     0.082 A 
HETATM   11  C10 UNL     1      74.341  58.057  37.789  1.00  0.00     0.129 A 
BRANCH  10  12
HETATM   12  O5  UNL     1      75.491  59.454  39.515  1.00  0.00    -0.359 OA
ATOM     13  H5  UNL     1      74.758  59.854  39.968  1.00  0.00     0.217 HD
ENDBRANCH  10  12
ENDBRANCH   5   7
BRANCH   4  14
HETATM   14  O4  UNL     1      73.367  58.650  34.749  1.00  0.00    -0.388 OA
ATOM     15  H4  UNL     1      73.861  59.175  35.368  1.00  0.00     0.210 HD
ENDBRANCH   4  14
BRANCH   3  16
HETATM   16  C4  UNL     1      71.953  57.177  32.883  1.00  0.00     0.199 C 
BRANCH  16  17
HETATM   17  O3  UNL     1      72.311  56.192  32.008  1.00  0.00    -0.398 OA
ATOM     18  H3  UNL     1      71.795  55.396  32.058  1.00  0.00     0.209 HD
ENDBRANCH  16  17
ENDBRANCH   3  16
BRANCH   1  19
HETATM   19  C1  UNL     1      72.561  53.430  35.540  1.00  0.00     0.224 C 
BRANCH  19  20
HETATM   20  O1  UNL     1      71.493  52.908  34.841  1.00  0.00    -0.396 OA
ATOM     21  H1  UNL     1      71.808  52.716  33.966  1.00  0.00     0.209 HD
ENDBRANCH  19  20
ENDBRANCH   1  19
TORSDOF 7
ENDMDL
MODEL 3
REMARK VINA RESULT: -7.230297998      2.111      5.559
REMARK  7 active torsions:
REMARK  status: ('A' for Active; 'I' for Inactive)
REMARK    1  A    between atoms: O1_1  and  C1_3 
REMARK    2  A    between atoms: C1_3  and  C2_4 
REMARK    3  A    between atoms: C3_6  and  C4_7 
REMARK    4  A    between atoms: C4_7  and  O3_8 
REMARK    5  A    between atoms: C5_10  and  O4_11 
REMARK    6  A    between atoms: C6_13  and  N1_14 
REMARK    7  A    between atoms: C9_17  and  O5_18 
ROOT
HETATM    1  C2  UNL     1      76.638  58.113  35.889  1.00  0.00     0.286 C 
HETATM    2  O2  UNL     1      75.939  58.972  36.699  1.00  0.00    -0.349 OA
HETATM    3  C3  UNL     1      74.664  59.277  36.225  1.00  0.00     0.181 C 
HETATM    4  C5  UNL     1      73.976  58.045  35.827  1.00  0.00     0.198 C 
HETATM    5  C6  UNL     1      74.798  56.851  36.306  1.00  0.00     0.261 C 
HETATM    6  O6  UNL     1      76.060  56.862  35.753  1.00  0.00    -0.332 OA
ENDROOT
BRANCH   5   7
HETATM    7  N1  UNL     1      74.085  55.633  35.951  1.00  0.00    -0.335 N 
HETATM    8  C7  UNL     1      73.636  54.729  36.839  1.00  0.00     0.096 A 
HETATM    9  C8  UNL     1      73.012  53.708  36.154  1.00  0.00     0.055 A 
HETATM   10  C9  UNL     1      73.075  53.987  34.808  1.00  0.00     0.082 A 
HETATM   11  C10 UNL     1      73.749  55.190  34.728  1.00  0.00     0.129 A 
BRANCH  10  12
HETATM   12  O5  UNL     1      72.564  53.213  33.757  1.00  0.00    -0.359 OA
ATOM     13  H5  UNL     1      71.724  53.316  33.325  1.00  0.00     0.217 HD
ENDBRANCH  10  12
ENDBRANCH   5   7
BRANCH   4  14
HETATM   14  O4  UNL     1      72.695  57.869  36.313  1.00  0.00    -0.388 OA
ATOM     15  H4  UNL     1      72.582  57.956  37.252  1.00  0.00     0.210 HD
ENDBRANCH   4  14
BRANCH   3  16
HETATM   16  C4  UNL     1      73.986  60.129  37.249  1.00  0.00     0.199 C 
BRANCH  16  17
HETATM   17  O3  UNL     1      73.594  59.481  38.385  1.00  0.00    -0.398 OA
ATOM     18  H3  UNL     1      73.492  60.031  39.153  1.00  0.00     0.209 HD
ENDBRANCH  16  17
ENDBRANCH   3  16
BRANCH   1  19
HETATM   19  C1  UNL     1      78.031  57.988  36.525  1.00  0.00     0.224 C 
BRANCH  19  20
HETATM   20  O1  UNL     1      77.861  57.310  37.713  1.00  0.00    -0.396 OA
ATOM     21  H1  UNL     1      78.160  57.891  38.403  1.00  0.00     0.209 HD
ENDBRANCH  19  20
ENDBRANCH   1  19
TORSDOF 7
ENDMDL
MODEL 4
REMARK VINA RESULT: -7.175317265      1.521      3.155
REMARK  7 active torsions:
REMARK  status: ('A' for Active; 'I' for Inactive)
REMARK    1  A    between atoms: O1_1  and  C1_3 
REMARK    2  A    between atoms: C1_3  and  C2_4 
REMARK    3  A    between atoms: C3_6  and  C4_7 
REMARK    4  A    between atoms: C4_7  and  O3_8 
REMARK    5  A    between atoms: C5_10  and  O4_11 
REMARK    6  A    between atoms: C6_13  and  N1_14 
REMARK    7  A    between atoms: C9_17  and  O5_18 
ROOT
HETATM    1  C2  UNL     1      72.700  54.760  35.666  1.00  0.00     0.286 C 
HETATM    2  O2  UNL     1      72.192  55.208  34.474  1.00  0.00    -0.349 OA
HETATM    3  C3  UNL     1      72.135  56.598  34.375  1.00  0.00     0.181 C 
HETATM    4  C5  UNL     1      73.410  57.178  34.804  1.00  0.00     0.198 C 
HETATM    5  C6  UNL     1      74.428  56.051  34.964  1.00  0.00     0.261 C 
HETATM    6  O6  UNL     1      74.012  55.134  35.902  1.00  0.00    -0.332 OA
ENDROOT
BRANCH   5   7
HETATM    7  N1  UNL     1      75.706  56.639  35.341  1.00  0.00    -0.335 N 
HETATM    8  C7  UNL     1      76.808  56.622  34.572  1.00  0.00     0.096 A 
HETATM    9  C8  UNL     1      77.826  57.267  35.241  1.00  0.00     0.055 A 
HETATM   10  C9  UNL     1      77.341  57.696  36.457  1.00  0.00     0.082 A 
HETATM   11  C10 UNL     1      76.023  57.285  36.475  1.00  0.00     0.129 A 
BRANCH  10  12
HETATM   12  O5  UNL     1      78.042  58.395  37.449  1.00  0.00    -0.359 OA
ATOM     13  H5  UNL     1      77.674  58.865  38.188  1.00  0.00     0.217 HD
ENDBRANCH  10  12
ENDBRANCH   5   7
BRANCH   4  14
HETATM   14  O4  UNL     1      73.977  58.113  33.962  1.00  0.00    -0.388 OA
ATOM     15  H4  UNL     1      74.191  58.956  34.345  1.00  0.00     0.210 HD
ENDBRANCH   4  14
BRANCH   3  16
HETATM   16  C4  UNL     1      71.664  56.941  32.999  1.00  0.00     0.199 C 
BRANCH  16  17
HETATM   17  O3  UNL     1      72.332  56.325  31.980  1.00  0.00    -0.398 OA
ATOM     18  H3  UNL     1      72.917  56.881  31.481  1.00  0.00     0.209 HD
ENDBRANCH  16  17
ENDBRANCH   3  16
BRANCH   1  19
HETATM   19  C1  UNL     1      72.586  53.229  35.613  1.00  0.00     0.224 C 
BRANCH  19  20
HETATM   20  O1  UNL     1      71.498  52.942  34.815  1.00  0.00    -0.396 OA
ATOM     21  H1  UNL     1      71.835  52.796  33.939  1.00  0.00     0.209 HD
ENDBRANCH  19  20
ENDBRANCH   1  19
TORSDOF 7
ENDMDL
MODEL 5
REMARK VINA RESULT: -6.997931074      2.110      5.514
REMARK  7 active torsions:
REMARK  status: ('A' for Active; 'I' for Inactive)
REMARK    1  A    between atoms: O1_1  and  C1_3 
REMARK    2  A    between atoms: C1_3  and  C2_4 
REMARK    3  A    between atoms: C3_6  and  C4_7 
REMARK    4  A    between atoms: C4_7  and  O3_8 
REMARK    5  A    between atoms: C5_10  and  O4_11 
REMARK    6  A    between atoms: C6_13  and  N1_14 
REMARK    7  A    between atoms: C9_17  and  O5_18 
ROOT
HETATM    1  C2  UNL     1      76.655  58.210  35.947  1.00  0.00     0.286 C 
HETATM    2  O2  UNL     1      75.894  58.935  36.829  1.00  0.00    -0.349 OA
HETATM    3  C3  UNL     1      74.661  59.331  36.313  1.00  0.00     0.181 C 
HETATM    4  C5  UNL     1      74.006  58.192  35.665  1.00  0.00     0.198 C 
HETATM    5  C6  UNL     1      74.786  56.924  36.004  1.00  0.00     0.261 C 
HETATM    6  O6  UNL     1      76.087  57.006  35.562  1.00  0.00    -0.332 OA
ENDROOT
BRANCH   5   7
HETATM    7  N1  UNL     1      74.102  55.790  35.399  1.00  0.00    -0.335 N 
HETATM    8  C7  UNL     1      74.202  55.444  34.104  1.00  0.00     0.096 A 
HETATM    9  C8  UNL     1      73.424  54.327  33.883  1.00  0.00     0.055 A 
HETATM   10  C9  UNL     1      72.827  53.972  35.072  1.00  0.00     0.082 A 
HETATM   11  C10 UNL     1      73.276  54.907  35.985  1.00  0.00     0.129 A 
BRANCH  10  12
HETATM   12  O5  UNL     1      71.957  52.896  35.295  1.00  0.00    -0.359 OA
ATOM     13  H5  UNL     1      71.640  52.273  34.653  1.00  0.00     0.217 HD
ENDBRANCH  10  12
ENDBRANCH   5   7
BRANCH   4  14
HETATM   14  O4  UNL     1      72.690  57.957  36.012  1.00  0.00    -0.388 OA
ATOM     15  H4  UNL     1      72.412  57.049  36.029  1.00  0.00     0.210 HD
ENDBRANCH   4  14
BRANCH   3  16
HETATM   16  C4  UNL     1      73.905  60.015  37.406  1.00  0.00     0.199 C 
BRANCH  16  17
HETATM   17  O3  UNL     1      73.610  59.238  38.489  1.00  0.00    -0.398 OA
ATOM     18  H3  UNL     1      74.125  58.445  38.574  1.00  0.00     0.209 HD
ENDBRANCH  16  17
ENDBRANCH   3  16
BRANCH   1  19
HETATM   19  C1  UNL     1      77.992  57.962  36.662  1.00  0.00     0.224 C 
BRANCH  19  20
HETATM   20  O1  UNL     1      77.690  57.343  37.856  1.00  0.00    -0.396 OA
ATOM     21  H1  UNL     1      76.946  57.806  38.222  1.00  0.00     0.209 HD
ENDBRANCH  19  20
ENDBRANCH   1  19
TORSDOF 7
ENDMDL
