MODEL 1
REMARK VINA RESULT: -5.435674716      0.000      0.000
REMARK  3 active torsions:
REMARK  status: ('A' for Active; 'I' for Inactive)
REMARK    1  A    between atoms: C2_2  and  N1_3 
REMARK    2  A    between atoms: N1_3  and  C3_5 
REMARK    3  A    between atoms: C3_5  and  C5_7 
ROOT
HETATM    1  C5  UNL     1     -22.292  15.576   9.188  1.00  0.00     0.033 C 
HETATM    2  C6  UNL     1     -23.464  14.662   9.334  1.00  0.00     0.008 C 
HETATM    3  C7  UNL     1     -23.182  13.431  10.155  1.00  0.00     0.002 C 
HETATM    4  C8  UNL     1     -22.765  12.268   9.270  1.00  0.00     0.027 C 
HETATM    5  C9  UNL     1     -21.301  12.418   8.892  1.00  0.00     0.232 C 
HETATM    6  N2  UNL     1     -21.180  13.635   8.137  1.00  0.00    -0.075 N 
ATOM      7  H21 UNL     1     -21.971  13.770   7.508  1.00  0.00     0.277 HD
ATOM      8  H22 UNL     1     -20.438  13.575   7.440  1.00  0.00     0.277 HD
HETATM    9  C10 UNL     1     -21.000  14.754   9.012  1.00  0.00     0.238 C 
ENDROOT
BRANCH   1  10
HETATM   10  C3  UNL     1     -22.019  16.372  10.455  1.00  0.00     0.082 C 
HETATM   11  C4  UNL     1     -20.555  16.142  10.765  1.00  0.00     0.032 C 
BRANCH  10  12
HETATM   12  N1  UNL     1     -22.369  17.719  10.271  1.00  0.00    -0.398 N 
ATOM     13  H1  UNL     1     -22.052  18.211   9.437  1.00  0.00     0.159 HD
BRANCH  12  14
HETATM   14  C2  UNL     1     -23.148  18.396  11.215  1.00  0.00     0.051 C 
HETATM   15  C1  UNL     1     -24.252  17.645  11.892  1.00  0.00     0.054 C 
ENDBRANCH  12  14
ENDBRANCH  10  12
ENDBRANCH   1  10
TORSDOF 3
ENDMDL
MODEL 2
REMARK VINA RESULT: -4.962879159      1.483      2.633
REMARK  3 active torsions:
REMARK  status: ('A' for Active; 'I' for Inactive)
REMARK    1  A    between atoms: C2_2  and  N1_3 
REMARK    2  A    between atoms: N1_3  and  C3_5 
REMARK    3  A    between atoms: C3_5  and  C5_7 
ROOT
HETATM    1  C5  UNL     1     -21.547  15.428   8.770  1.00  0.00     0.033 C 
HETATM    2  C6  UNL     1     -22.986  15.158   9.062  1.00  0.00     0.008 C 
HETATM    3  C7  UNL     1     -23.208  14.156  10.165  1.00  0.00     0.002 C 
HETATM    4  C8  UNL     1     -23.369  12.753   9.603  1.00  0.00     0.027 C 
HETATM    5  C9  UNL     1     -22.001  12.176   9.280  1.00  0.00     0.232 C 
HETATM    6  N2  UNL     1     -21.416  13.012   8.267  1.00  0.00    -0.075 N 
ATOM      7  H21 UNL     1     -22.107  13.316   7.582  1.00  0.00     0.277 HD
ATOM      8  H22 UNL     1     -20.807  12.482   7.645  1.00  0.00     0.277 HD
HETATM    9  C10 UNL     1     -20.735  14.121   8.862  1.00  0.00     0.238 C 
ENDROOT
BRANCH   1  10
HETATM   10  C3  UNL     1     -20.897  16.308   9.826  1.00  0.00     0.082 C 
HETATM   11  C4  UNL     1     -21.999  17.223  10.318  1.00  0.00     0.032 C 
BRANCH  10  12
HETATM   12  N1  UNL     1     -20.308  15.519  10.826  1.00  0.00    -0.398 N 
ATOM     13  H1  UNL     1     -20.774  14.664  11.130  1.00  0.00     0.159 HD
BRANCH  12  14
HETATM   14  C2  UNL     1     -19.092  15.885  11.411  1.00  0.00     0.051 C 
HETATM   15  C1  UNL     1     -18.044  16.503  10.538  1.00  0.00     0.054 C 
ENDBRANCH  12  14
ENDBRANCH  10  12
ENDBRANCH   1  10
TORSDOF 3
ENDMDL
MODEL 3
REMARK VINA RESULT: -4.932393855      1.066      4.461
REMARK  3 active torsions:
REMARK  status: ('A' for Active; 'I' for Inactive)
REMARK    1  A    between atoms: C2_2  and  N1_3 
REMARK    2  A    between atoms: N1_3  and  C3_5 
REMARK    3  A    between atoms: C3_5  and  C5_7 
ROOT
HETATM    1  C5  UNL     1     -21.641  15.582  10.089  1.00  0.00     0.033 C 
HETATM    2  C6  UNL     1     -22.651  15.113  11.083  1.00  0.00     0.008 C 
HETATM    3  C7  UNL     1     -24.013  15.732  10.908  1.00  0.00     0.002 C 
HETATM    4  C8  UNL     1     -24.168  16.967  11.782  1.00  0.00     0.027 C 
HETATM    5  C9  UNL     1     -23.486  18.148  11.115  1.00  0.00     0.232 C 
HETATM    6  N2  UNL     1     -22.088  17.830  11.014  1.00  0.00    -0.075 N 
ATOM      7  H21 UNL     1     -21.750  17.342  11.844  1.00  0.00     0.277 HD
ATOM      8  H22 UNL     1     -21.504  18.664  11.079  1.00  0.00     0.277 HD
HETATM    9  C10 UNL     1     -21.825  17.089   9.819  1.00  0.00     0.238 C 
ENDROOT
BRANCH   1  10
HETATM   10  C3  UNL     1     -21.848  14.961   8.716  1.00  0.00     0.082 C 
HETATM   11  C4  UNL     1     -21.824  16.122   7.744  1.00  0.00     0.032 C 
BRANCH  10  12
HETATM   12  N1  UNL     1     -20.876  13.978   8.472  1.00  0.00    -0.398 N 
ATOM     13  H1  UNL     1     -19.906  14.256   8.330  1.00  0.00     0.159 HD
BRANCH  12  14
HETATM   14  C2  UNL     1     -21.218  12.623   8.422  1.00  0.00     0.051 C 
HETATM   15  C1  UNL     1     -22.371  12.153   9.255  1.00  0.00     0.054 C 
ENDBRANCH  12  14
ENDBRANCH  10  12
ENDBRANCH   1  10
TORSDOF 3
ENDMDL
MODEL 4
REMARK VINA RESULT: -4.921347161      2.677      4.318
REMARK  3 active torsions:
REMARK  status: ('A' for Active; 'I' for Inactive)
REMARK    1  A    between atoms: C2_2  and  N1_3 
REMARK    2  A    between atoms: N1_3  and  C3_5 
REMARK    3  A    between atoms: C3_5  and  C5_7 
ROOT
HETATM    1  C5  UNL     1     -20.800  16.511   8.394  1.00  0.00     0.033 C 
HETATM    2  C6  UNL     1     -20.436  17.771   7.679  1.00  0.00     0.008 C 
HETATM    3  C7  UNL     1     -21.598  18.445   6.998  1.00  0.00     0.002 C 
HETATM    4  C8  UNL     1     -21.708  18.007   5.546  1.00  0.00     0.027 C 
HETATM    5  C9  UNL     1     -22.384  16.649   5.476  1.00  0.00     0.232 C 
HETATM    6  N2  UNL     1     -21.540  15.718   6.173  1.00  0.00    -0.075 N 
ATOM      7  H21 UNL     1     -20.552  15.897   5.996  1.00  0.00     0.277 HD
ATOM      8  H22 UNL     1     -21.599  14.781   5.774  1.00  0.00     0.277 HD
HETATM    9  C10 UNL     1     -21.837  15.719   7.573  1.00  0.00     0.238 C 
ENDROOT
BRANCH   1  10
HETATM   10  C3  UNL     1     -21.531  16.778   9.701  1.00  0.00     0.082 C 
HETATM   11  C4  UNL     1     -22.670  15.782   9.733  1.00  0.00     0.032 C 
BRANCH  10  12
HETATM   12  N1  UNL     1     -20.644  16.683  10.785  1.00  0.00    -0.398 N 
ATOM     13  H1  UNL     1     -20.831  17.214  11.634  1.00  0.00     0.159 HD
BRANCH  12  14
HETATM   14  C2  UNL     1     -19.509  15.869  10.718  1.00  0.00     0.051 C 
HETATM   15  C1  UNL     1     -18.168  16.508  10.911  1.00  0.00     0.054 C 
ENDBRANCH  12  14
ENDBRANCH  10  12
ENDBRANCH   1  10
TORSDOF 3
ENDMDL
MODEL 5
REMARK VINA RESULT: -4.844903437      4.035      5.123
REMARK  3 active torsions:
REMARK  status: ('A' for Active; 'I' for Inactive)
REMARK    1  A    between atoms: C2_2  and  N1_3 
REMARK    2  A    between atoms: N1_3  and  C3_5 
REMARK    3  A    between atoms: C3_5  and  C5_7 
ROOT
HETATM    1  C5  UNL     1     -20.674  17.719   6.744  1.00  0.00     0.033 C 
HETATM    2  C6  UNL     1     -21.280  19.047   6.432  1.00  0.00     0.008 C 
HETATM    3  C7  UNL     1     -22.522  18.969   5.584  1.00  0.00     0.002 C 
HETATM    4  C8  UNL     1     -22.186  19.111   4.108  1.00  0.00     0.027 C 
HETATM    5  C9  UNL     1     -21.672  17.784   3.576  1.00  0.00     0.232 C 
HETATM    6  N2  UNL     1     -20.466  17.477   4.293  1.00  0.00    -0.075 N 
ATOM      7  H21 UNL     1     -19.899  18.309   4.455  1.00  0.00     0.277 HD
ATOM      8  H22 UNL     1     -19.806  16.953   3.718  1.00  0.00     0.277 HD
HETATM    9  C10 UNL     1     -20.767  16.794   5.514  1.00  0.00     0.238 C 
ENDROOT
BRANCH   1  10
HETATM   10  C3  UNL     1     -21.459  16.959   7.802  1.00  0.00     0.082 C 
HETATM   11  C4  UNL     1     -21.778  15.618   7.178  1.00  0.00     0.032 C 
BRANCH  10  12
HETATM   12  N1  UNL     1     -20.725  16.885   8.997  1.00  0.00    -0.398 N 
ATOM     13  H1  UNL     1     -19.731  17.111   8.989  1.00  0.00     0.159 HD
BRANCH  12  14
HETATM   14  C2  UNL     1     -21.336  16.507  10.196  1.00  0.00     0.051 C 
HETATM   15  C1  UNL     1     -22.646  17.139  10.553  1.00  0.00     0.054 C 
ENDBRANCH  12  14
ENDBRANCH  10  12
ENDBRANCH   1  10
TORSDOF 3
ENDMDL
