MODEL 1
REMARK VINA RESULT: -5.261162726      0.000      0.000
REMARK  3 active torsions:
REMARK  status: ('A' for Active; 'I' for Inactive)
REMARK    1  A    between atoms: N1_2  and  C2_5 
REMARK    2  A    between atoms: C2_5  and  C3_6 
REMARK    3  A    between atoms: C2_5  and  C6_9 
ROOT
HETATM    1  C6  UNL     1     -21.004  16.157   8.471  1.00  0.00     0.216 C 
HETATM    2  C7  UNL     1     -21.487  15.389   7.314  1.00  0.00     0.035 C 
HETATM    3  C8  UNL     1     -22.040  16.275   6.196  1.00  0.00     0.004 C 
HETATM    4  C9  UNL     1     -20.949  17.244   5.827  1.00  0.00     0.027 C 
HETATM    5  C10 UNL     1     -20.460  17.964   7.071  1.00  0.00     0.233 C 
HETATM    6  N2  UNL     1     -21.275  17.573   8.187  1.00  0.00    -0.069 N 
ATOM      7  H21 UNL     1     -21.143  18.172   9.002  1.00  0.00     0.277 HD
ATOM      8  H22 UNL     1     -22.267  17.763   8.038  1.00  0.00     0.277 HD
ENDROOT
BRANCH   1   9
HETATM    9  C2  UNL     1     -21.465  15.883   9.820  1.00  0.00     0.219 C 
BRANCH   9  10
HETATM   10  N1  UNL     1     -20.759  16.678  10.831  1.00  0.00    -0.072 N 
HETATM   11  C1  UNL     1     -19.416  16.173  11.061  1.00  0.00     0.267 C 
ATOM     12  H12 UNL     1     -21.290  16.735  11.700  1.00  0.00     0.277 HD
ATOM     13  H11 UNL     1     -20.749  17.669  10.586  1.00  0.00     0.277 HD
ENDBRANCH   9  10
BRANCH   9  14
HETATM   14  C3  UNL     1     -22.913  15.976  10.167  1.00  0.00     0.010 C 
HETATM   15  C4  UNL     1     -23.541  14.695  10.629  1.00  0.00     0.011 C 
HETATM   16  C5  UNL     1     -23.268  17.175  11.013  1.00  0.00     0.011 C 
ENDBRANCH   9  14
ENDBRANCH   1   9
TORSDOF 3
ENDMDL
MODEL 2
REMARK VINA RESULT: -5.211035974      1.866      3.624
REMARK  3 active torsions:
REMARK  status: ('A' for Active; 'I' for Inactive)
REMARK    1  A    between atoms: N1_2  and  C2_5 
REMARK    2  A    between atoms: C2_5  and  C3_6 
REMARK    3  A    between atoms: C2_5  and  C6_9 
ROOT
HETATM    1  C6  UNL     1     -21.813  14.709  10.263  1.00  0.00     0.216 C 
HETATM    2  C7  UNL     1     -23.178  14.359  10.683  1.00  0.00     0.035 C 
HETATM    3  C8  UNL     1     -23.935  13.540   9.636  1.00  0.00     0.004 C 
HETATM    4  C9  UNL     1     -23.097  12.326   9.342  1.00  0.00     0.027 C 
HETATM    5  C10 UNL     1     -21.689  12.754   8.965  1.00  0.00     0.233 C 
HETATM    6  N2  UNL     1     -21.640  14.188   8.899  1.00  0.00    -0.069 N 
ATOM      7  H21 UNL     1     -20.793  14.534   8.449  1.00  0.00     0.277 HD
ATOM      8  H22 UNL     1     -22.313  14.577   8.239  1.00  0.00     0.277 HD
ENDROOT
BRANCH   1   9
HETATM    9  C2  UNL     1     -21.336  16.081  10.273  1.00  0.00     0.219 C 
BRANCH   9  10
HETATM   10  N1  UNL     1     -19.997  16.216   9.687  1.00  0.00    -0.072 N 
HETATM   11  C1  UNL     1     -18.960  15.885  10.651  1.00  0.00     0.267 C 
ATOM     12  H12 UNL     1     -19.855  17.145   9.291  1.00  0.00     0.277 HD
ATOM     13  H11 UNL     1     -19.904  15.664   8.834  1.00  0.00     0.277 HD
ENDBRANCH   9  10
BRANCH   9  14
HETATM   14  C3  UNL     1     -22.153  17.179   9.680  1.00  0.00     0.010 C 
HETATM   15  C4  UNL     1     -22.672  18.186  10.662  1.00  0.00     0.011 C 
HETATM   16  C5  UNL     1     -21.556  17.786   8.433  1.00  0.00     0.011 C 
ENDBRANCH   9  14
ENDBRANCH   1   9
TORSDOF 3
ENDMDL
MODEL 3
REMARK VINA RESULT: -5.138714876      2.093      3.790
REMARK  3 active torsions:
REMARK  status: ('A' for Active; 'I' for Inactive)
REMARK    1  A    between atoms: N1_2  and  C2_5 
REMARK    2  A    between atoms: C2_5  and  C3_6 
REMARK    3  A    between atoms: C2_5  and  C6_9 
ROOT
HETATM    1  C6  UNL     1     -21.877  14.520   9.492  1.00  0.00     0.216 C 
HETATM    2  C7  UNL     1     -21.292  13.418   8.712  1.00  0.00     0.035 C 
HETATM    3  C8  UNL     1     -21.727  12.038   9.207  1.00  0.00     0.004 C 
HETATM    4  C9  UNL     1     -23.232  12.020   9.185  1.00  0.00     0.027 C 
HETATM    5  C10 UNL     1     -23.770  13.208   9.962  1.00  0.00     0.233 C 
HETATM    6  N2  UNL     1     -22.670  13.907  10.567  1.00  0.00    -0.069 N 
ATOM      7  H21 UNL     1     -22.970  14.581  11.271  1.00  0.00     0.277 HD
ATOM      8  H22 UNL     1     -22.112  13.311  11.179  1.00  0.00     0.277 HD
ENDROOT
BRANCH   1   9
HETATM    9  C2  UNL     1     -21.056  15.557  10.089  1.00  0.00     0.219 C 
BRANCH   9  10
HETATM   10  N1  UNL     1     -19.619  15.279   9.968  1.00  0.00    -0.072 N 
HETATM   11  C1  UNL     1     -18.853  15.994  10.974  1.00  0.00     0.267 C 
ATOM     12  H12 UNL     1     -19.279  15.479   9.027  1.00  0.00     0.277 HD
ATOM     13  H11 UNL     1     -19.430  14.278   9.995  1.00  0.00     0.277 HD
ENDBRANCH   9  10
BRANCH   9  14
HETATM   14  C3  UNL     1     -21.228  16.988   9.701  1.00  0.00     0.010 C 
HETATM   15  C4  UNL     1     -21.180  17.257   8.227  1.00  0.00     0.011 C 
HETATM   16  C5  UNL     1     -22.356  17.689  10.419  1.00  0.00     0.011 C 
ENDBRANCH   9  14
ENDBRANCH   1   9
TORSDOF 3
ENDMDL
MODEL 4
REMARK VINA RESULT: -4.974407458      1.404      2.101
REMARK  3 active torsions:
REMARK  status: ('A' for Active; 'I' for Inactive)
REMARK    1  A    between atoms: N1_2  and  C2_5 
REMARK    2  A    between atoms: C2_5  and  C3_6 
REMARK    3  A    between atoms: C2_5  and  C6_9 
ROOT
HETATM    1  C6  UNL     1     -21.181  16.540   7.315  1.00  0.00     0.216 C 
HETATM    2  C7  UNL     1     -21.935  16.307   6.074  1.00  0.00     0.035 C 
HETATM    3  C8  UNL     1     -22.476  17.597   5.453  1.00  0.00     0.004 C 
HETATM    4  C9  UNL     1     -21.299  18.511   5.247  1.00  0.00     0.027 C 
HETATM    5  C10 UNL     1     -20.536  18.666   6.550  1.00  0.00     0.233 C 
HETATM    6  N2  UNL     1     -21.249  17.981   7.593  1.00  0.00    -0.069 N 
ATOM      7  H21 UNL     1     -20.912  18.220   8.525  1.00  0.00     0.277 HD
ATOM      8  H22 UNL     1     -22.206  18.317   7.704  1.00  0.00     0.277 HD
ENDROOT
BRANCH   1   9
HETATM    9  C2  UNL     1     -21.498  15.840   8.547  1.00  0.00     0.219 C 
BRANCH   9  10
HETATM   10  N1  UNL     1     -20.654  14.657   8.757  1.00  0.00    -0.072 N 
HETATM   11  C1  UNL     1     -21.429  13.430   8.681  1.00  0.00     0.267 C 
ATOM     12  H12 UNL     1     -20.137  14.719   9.635  1.00  0.00     0.277 HD
ATOM     13  H11 UNL     1     -19.865  14.642   8.111  1.00  0.00     0.277 HD
ENDBRANCH   9  10
BRANCH   9  14
HETATM   14  C3  UNL     1     -21.522  16.561   9.852  1.00  0.00     0.010 C 
HETATM   15  C4  UNL     1     -22.838  16.534  10.570  1.00  0.00     0.011 C 
HETATM   16  C5  UNL     1     -20.333  16.273  10.737  1.00  0.00     0.011 C 
ENDBRANCH   9  14
ENDBRANCH   1   9
TORSDOF 3
ENDMDL
MODEL 5
REMARK VINA RESULT: -4.914265107      1.531      2.298
REMARK  3 active torsions:
REMARK  status: ('A' for Active; 'I' for Inactive)
REMARK    1  A    between atoms: N1_2  and  C2_5 
REMARK    2  A    between atoms: C2_5  and  C3_6 
REMARK    3  A    between atoms: C2_5  and  C6_9 
ROOT
HETATM    1  C6  UNL     1     -21.945  15.842   8.358  1.00  0.00     0.216 C 
HETATM    2  C7  UNL     1     -21.644  17.256   8.628  1.00  0.00     0.035 C 
HETATM    3  C8  UNL     1     -20.917  17.944   7.471  1.00  0.00     0.004 C 
HETATM    4  C9  UNL     1     -21.773  17.763   6.247  1.00  0.00     0.027 C 
HETATM    5  C10 UNL     1     -22.090  16.290   6.056  1.00  0.00     0.233 C 
HETATM    6  N2  UNL     1     -21.374  15.527   7.041  1.00  0.00    -0.069 N 
ATOM      7  H21 UNL     1     -21.371  14.528   6.840  1.00  0.00     0.277 HD
ATOM      8  H22 UNL     1     -20.366  15.678   7.001  1.00  0.00     0.277 HD
ENDROOT
BRANCH   1   9
HETATM    9  C2  UNL     1     -21.548  14.786   9.272  1.00  0.00     0.219 C 
BRANCH   9  10
HETATM   10  N1  UNL     1     -20.879  15.301  10.473  1.00  0.00    -0.072 N 
HETATM   11  C1  UNL     1     -19.434  15.309  10.313  1.00  0.00     0.267 C 
ATOM     12  H12 UNL     1     -21.159  14.785  11.307  1.00  0.00     0.277 HD
ATOM     13  H11 UNL     1     -21.232  16.222  10.731  1.00  0.00     0.277 HD
ENDBRANCH   9  10
BRANCH   9  14
HETATM   14  C3  UNL     1     -22.539  13.781   9.757  1.00  0.00     0.010 C 
HETATM   15  C4  UNL     1     -23.973  14.212   9.678  1.00  0.00     0.011 C 
HETATM   16  C5  UNL     1     -22.288  12.379   9.258  1.00  0.00     0.011 C 
ENDBRANCH   9  14
ENDBRANCH   1   9
TORSDOF 3
ENDMDL
