MODEL 1
REMARK VINA RESULT: -5.705367600      0.000      0.000
REMARK  3 active torsions:
REMARK  status: ('A' for Active; 'I' for Inactive)
REMARK    1  A    between atoms: C2_2  and  C3_3 
REMARK    2  A    between atoms: C5_5  and  C6_6 
REMARK    3  A    between atoms: C6_6  and  N1_7 
ROOT
HETATM    1  C3  UNL     1     -19.765  15.657   9.673  1.00  0.00     0.208 C 
HETATM    2  C4  UNL     1     -20.956  16.585   9.795  1.00  0.00     0.043 C 
HETATM    3  C5  UNL     1     -22.126  15.802  10.307  1.00  0.00     0.015 C 
HETATM    4  C8  UNL     1     -22.553  14.843   9.229  1.00  0.00     0.039 C 
HETATM    5  C9  UNL     1     -21.337  14.080   8.761  1.00  0.00     0.183 C 
HETATM    6  C10 UNL     1     -21.604  12.573   8.751  1.00  0.00     0.040 C 
HETATM    7  N2  UNL     1     -20.211  14.283   9.651  1.00  0.00    -0.064 N 
ATOM      8  H21 UNL     1     -20.422  13.950  10.591  1.00  0.00     0.278 HD
ATOM      9  H22 UNL     1     -19.444  13.651   9.421  1.00  0.00     0.278 HD
ENDROOT
BRANCH   3  10
HETATM   10  C6  UNL     1     -23.248  16.666  10.804  1.00  0.00     0.236 C 
BRANCH  10  11
HETATM   11  N1  UNL     1     -22.808  18.007  11.139  1.00  0.00    -0.079 N 
HETATM   12  C7  UNL     1     -23.883  18.628  11.892  1.00  0.00     0.267 C 
ATOM     13  H12 UNL     1     -21.913  18.024  11.627  1.00  0.00     0.276 HD
ATOM     14  H11 UNL     1     -22.522  18.551  10.324  1.00  0.00     0.276 HD
ENDBRANCH  10  11
ENDBRANCH   3  10
BRANCH   1  15
HETATM   15  C2  UNL     1     -18.825  15.822  10.802  1.00  0.00    -0.005 C 
HETATM   16  C1  UNL     1     -17.758  16.600  10.760  1.00  0.00     0.009 C 
ENDBRANCH   1  15
TORSDOF 3
ENDMDL
MODEL 2
REMARK VINA RESULT: -5.648170364      1.484      4.396
REMARK  3 active torsions:
REMARK  status: ('A' for Active; 'I' for Inactive)
REMARK    1  A    between atoms: C2_2  and  C3_3 
REMARK    2  A    between atoms: C5_5  and  C6_6 
REMARK    3  A    between atoms: C6_6  and  N1_7 
ROOT
HETATM    1  C3  UNL     1     -22.764  14.531   9.336  1.00  0.00     0.208 C 
HETATM    2  C4  UNL     1     -21.280  14.764   9.139  1.00  0.00     0.043 C 
HETATM    3  C5  UNL     1     -20.738  15.457  10.352  1.00  0.00     0.015 C 
HETATM    4  C8  UNL     1     -21.299  16.853  10.382  1.00  0.00     0.039 C 
HETATM    5  C9  UNL     1     -22.798  16.767  10.224  1.00  0.00     0.183 C 
HETATM    6  C10 UNL     1     -23.513  17.581  11.305  1.00  0.00     0.040 C 
HETATM    7  N2  UNL     1     -23.268  15.404  10.371  1.00  0.00    -0.064 N 
ATOM      8  H21 UNL     1     -23.050  15.038  11.297  1.00  0.00     0.278 HD
ATOM      9  H22 UNL     1     -24.287  15.370  10.416  1.00  0.00     0.278 HD
ENDROOT
BRANCH   3  10
HETATM   10  C6  UNL     1     -19.240  15.423  10.435  1.00  0.00     0.236 C 
BRANCH  10  11
HETATM   11  N1  UNL     1     -18.758  15.486  11.801  1.00  0.00    -0.079 N 
HETATM   12  C7  UNL     1     -17.893  16.648  11.892  1.00  0.00     0.267 C 
ATOM     13  H12 UNL     1     -19.510  15.490  12.491  1.00  0.00     0.276 HD
ATOM     14  H11 UNL     1     -18.306  14.624  12.107  1.00  0.00     0.276 HD
ENDBRANCH  10  11
ENDBRANCH   3  10
BRANCH   1  15
HETATM   15  C2  UNL     1     -23.051  13.134   9.725  1.00  0.00    -0.005 C 
HETATM   16  C1  UNL     1     -22.370  12.093   9.278  1.00  0.00     0.009 C 
ENDBRANCH   1  15
TORSDOF 3
ENDMDL
MODEL 3
REMARK VINA RESULT: -5.456313239      1.353      4.312
REMARK  3 active torsions:
REMARK  status: ('A' for Active; 'I' for Inactive)
REMARK    1  A    between atoms: C2_2  and  C3_3 
REMARK    2  A    between atoms: C5_5  and  C6_6 
REMARK    3  A    between atoms: C6_6  and  N1_7 
ROOT
HETATM    1  C3  UNL     1     -21.808  16.960  10.103  1.00  0.00     0.208 C 
HETATM    2  C4  UNL     1     -21.738  15.958   8.969  1.00  0.00     0.043 C 
HETATM    3  C5  UNL     1     -21.055  14.720   9.464  1.00  0.00     0.015 C 
HETATM    4  C8  UNL     1     -19.608  15.052   9.711  1.00  0.00     0.039 C 
HETATM    5  C9  UNL     1     -19.545  16.291  10.573  1.00  0.00     0.183 C 
HETATM    6  C10 UNL     1     -18.616  16.080  11.771  1.00  0.00     0.040 C 
HETATM    7  N2  UNL     1     -20.845  16.618  11.124  1.00  0.00    -0.064 N 
ATOM      8  H21 UNL     1     -21.191  15.865  11.718  1.00  0.00     0.278 HD
ATOM      9  H22 UNL     1     -20.772  17.357  11.823  1.00  0.00     0.278 HD
ENDROOT
BRANCH   3  10
HETATM   10  C6  UNL     1     -21.240  13.537   8.557  1.00  0.00     0.236 C 
BRANCH  10  11
HETATM   11  N1  UNL     1     -21.738  12.372   9.261  1.00  0.00    -0.079 N 
HETATM   12  C7  UNL     1     -23.123  12.644   9.601  1.00  0.00     0.267 C 
ATOM     13  H12 UNL     1     -21.616  11.505   8.737  1.00  0.00     0.276 HD
ATOM     14  H11 UNL     1     -21.169  12.117  10.068  1.00  0.00     0.276 HD
ENDBRANCH  10  11
ENDBRANCH   3  10
BRANCH   1  15
HETATM   15  C2  UNL     1     -23.151  16.992  10.722  1.00  0.00    -0.005 C 
HETATM   16  C1  UNL     1     -23.604  18.006  11.438  1.00  0.00     0.009 C 
ENDBRANCH   1  15
TORSDOF 3
ENDMDL
MODEL 4
REMARK VINA RESULT: -5.449180390      2.169      3.994
REMARK  3 active torsions:
REMARK  status: ('A' for Active; 'I' for Inactive)
REMARK    1  A    between atoms: C2_2  and  C3_3 
REMARK    2  A    between atoms: C5_5  and  C6_6 
REMARK    3  A    between atoms: C6_6  and  N1_7 
ROOT
HETATM    1  C3  UNL     1     -21.698  16.439   7.947  1.00  0.00     0.208 C 
HETATM    2  C4  UNL     1     -20.476  16.695   8.805  1.00  0.00     0.043 C 
HETATM    3  C5  UNL     1     -20.309  15.551   9.757  1.00  0.00     0.015 C 
HETATM    4  C8  UNL     1     -21.437  15.603  10.752  1.00  0.00     0.039 C 
HETATM    5  C9  UNL     1     -22.738  15.711   9.991  1.00  0.00     0.183 C 
HETATM    6  C10 UNL     1     -23.748  14.670  10.479  1.00  0.00     0.040 C 
HETATM    7  N2  UNL     1     -22.546  15.454   8.578  1.00  0.00    -0.064 N 
ATOM      8  H21 UNL     1     -22.192  14.511   8.421  1.00  0.00     0.278 HD
ATOM      9  H22 UNL     1     -23.440  15.376   8.094  1.00  0.00     0.278 HD
ENDROOT
BRANCH   3  10
HETATM   10  C6  UNL     1     -18.956  15.510  10.406  1.00  0.00     0.236 C 
BRANCH  10  11
HETATM   11  N1  UNL     1     -18.191  16.719  10.167  1.00  0.00    -0.079 N 
HETATM   12  C7  UNL     1     -17.440  16.990  11.380  1.00  0.00     0.267 C 
ATOM     13  H12 UNL     1     -17.603  16.663   9.335  1.00  0.00     0.276 HD
ATOM     14  H11 UNL     1     -18.767  17.505   9.868  1.00  0.00     0.276 HD
ENDBRANCH  10  11
ENDBRANCH   3  10
BRANCH   1  15
HETATM   15  C2  UNL     1     -21.329  15.944   6.604  1.00  0.00    -0.005 C 
HETATM   16  C1  UNL     1     -20.958  16.731   5.608  1.00  0.00     0.009 C 
ENDBRANCH   1  15
TORSDOF 3
ENDMDL
MODEL 5
REMARK VINA RESULT: -5.354854565      2.507      4.045
REMARK  3 active torsions:
REMARK  status: ('A' for Active; 'I' for Inactive)
REMARK    1  A    between atoms: C2_2  and  C3_3 
REMARK    2  A    between atoms: C5_5  and  C6_6 
REMARK    3  A    between atoms: C6_6  and  N1_7 
ROOT
HETATM    1  C3  UNL     1     -21.951  16.130  10.181  1.00  0.00     0.208 C 
HETATM    2  C4  UNL     1     -21.552  16.834   8.900  1.00  0.00     0.043 C 
HETATM    3  C5  UNL     1     -22.055  16.035   7.737  1.00  0.00     0.015 C 
HETATM    4  C8  UNL     1     -21.272  14.752   7.677  1.00  0.00     0.039 C 
HETATM    5  C9  UNL     1     -21.301  14.112   9.044  1.00  0.00     0.183 C 
HETATM    6  C10 UNL     1     -21.714  12.640   8.953  1.00  0.00     0.040 C 
HETATM    7  N2  UNL     1     -22.277  14.750   9.905  1.00  0.00    -0.064 N 
ATOM      8  H21 UNL     1     -23.217  14.665   9.521  1.00  0.00     0.278 HD
ATOM      9  H22 UNL     1     -22.404  14.223  10.769  1.00  0.00     0.278 HD
ENDROOT
BRANCH   3  10
HETATM   10  C6  UNL     1     -22.037  16.796   6.443  1.00  0.00     0.236 C 
BRANCH  10  11
HETATM   11  N1  UNL     1     -20.960  16.376   5.568  1.00  0.00    -0.079 N 
HETATM   12  C7  UNL     1     -20.917  17.321   4.466  1.00  0.00     0.267 C 
ATOM     13  H12 UNL     1     -20.066  16.282   6.051  1.00  0.00     0.276 HD
ATOM     14  H11 UNL     1     -21.045  15.407   5.263  1.00  0.00     0.276 HD
ENDBRANCH  10  11
ENDBRANCH   3  10
BRANCH   1  15
HETATM   15  C2  UNL     1     -23.126  16.769  10.812  1.00  0.00    -0.005 C 
HETATM   16  C1  UNL     1     -23.191  18.055  11.109  1.00  0.00     0.009 C 
ENDBRANCH   1  15
TORSDOF 3
ENDMDL
