MODEL 1
REMARK VINA RESULT: -6.563378267      0.000      0.000
REMARK  10 active torsions:
REMARK  status: ('A' for Active; 'I' for Inactive)
REMARK    1  A    between atoms: C2_2  and  N1_3 
REMARK    2  A    between atoms: N1_3  and  C3_4 
REMARK    3  A    between atoms: N1_3  and  C7_8 
REMARK    4  A    between atoms: C3_4  and  C4_5 
REMARK    5  A    between atoms: C9_10  and  O1_11 
REMARK    6  A    between atoms: C10_13  and  O2_14 
REMARK    7  A    between atoms: C14_18  and  O3_19 
REMARK    8  A    between atoms: C16_23  and  C17_24 
REMARK    9  A    between atoms: C20_27  and  O5_28 
REMARK   10  A    between atoms: C21_30  and  O6_31 
ROOT
HETATM    1  C7  UNL     1      27.195  47.731  45.908  1.00  0.00     0.156 C 
HETATM    2  C8  UNL     1      26.889  48.694  44.844  1.00  0.00     0.040 A 
HETATM    3  C9  UNL     1      26.728  48.521  43.490  1.00  0.00     0.111 A 
HETATM    4  C10 UNL     1      26.469  49.634  42.714  1.00  0.00     0.110 A 
HETATM    5  C12 UNL     1      26.363  50.921  43.241  1.00  0.00     0.010 A 
HETATM    6  C13 UNL     1      26.084  52.082  42.326  1.00  0.00     0.054 C 
HETATM    7  C14 UNL     1      26.529  51.053  44.599  1.00  0.00     0.108 A 
HETATM    8  C15 UNL     1      26.789  49.957  45.396  1.00  0.00     0.114 A 
HETATM    9  O4  UNL     1      26.987  49.875  46.776  1.00  0.00    -0.335 OA
HETATM   10  C16 UNL     1      27.528  48.620  47.073  1.00  0.00     0.189 C 
ENDROOT
BRANCH  10  11
HETATM   11  C17 UNL     1      28.992  48.708  47.362  1.00  0.00    -0.024 A 
HETATM   12  C18 UNL     1      29.823  47.618  47.184  1.00  0.00     0.013 A 
HETATM   13  C19 UNL     1      31.186  47.689  47.460  1.00  0.00     0.040 A 
HETATM   14  C20 UNL     1      31.767  48.846  47.923  1.00  0.00     0.099 A 
HETATM   15  C21 UNL     1      30.936  49.943  48.102  1.00  0.00     0.101 A 
HETATM   16  C23 UNL     1      29.586  49.862  47.825  1.00  0.00     0.049 A 
BRANCH  14  17
HETATM   17  O5  UNL     1      33.125  48.945  48.208  1.00  0.00    -0.358 OA
ATOM     18  H5  UNL     1      33.788  48.465  47.726  1.00  0.00     0.217 HD
ENDBRANCH  14  17
BRANCH  15  19
HETATM   19  O6  UNL     1      31.536  51.100  48.572  1.00  0.00    -0.353 OA
HETATM   20  C22 UNL     1      31.772  52.203  47.706  1.00  0.00     0.210 C 
ENDBRANCH  15  19
ENDBRANCH  10  11
BRANCH   1  21
HETATM   21  N1  UNL     1      26.294  46.698  46.171  1.00  0.00    -0.382 N 
BRANCH  21  22
HETATM   22  C2  UNL     1      24.980  46.821  46.546  1.00  0.00     0.054 C 
HETATM   23  C1  UNL     1      23.884  46.908  45.545  1.00  0.00     0.054 C 
ENDBRANCH  21  22
BRANCH  21  24
HETATM   24  C3  UNL     1      26.938  45.450  46.414  1.00  0.00     0.127 C 
BRANCH  24  25
HETATM   25  C4  UNL     1      26.560  44.286  45.579  1.00  0.00     0.003 A 
HETATM   26  C5  UNL     1      26.083  44.313  44.203  1.00  0.00     0.007 A 
HETATM   27  C6  UNL     1      27.527  43.917  44.421  1.00  0.00     0.007 A 
ENDBRANCH  24  25
ENDBRANCH  21  24
ENDBRANCH   1  21
BRANCH   3  28
HETATM   28  O1  UNL     1      26.817  47.265  42.880  1.00  0.00    -0.357 OA
ATOM     29  H1  UNL     1      26.223  46.992  42.190  1.00  0.00     0.217 HD
ENDBRANCH   3  28
BRANCH   7  30
HETATM   30  O3  UNL     1      26.428  52.324  45.144  1.00  0.00    -0.357 OA
ATOM     31  H3  UNL     1      26.994  52.540  45.875  1.00  0.00     0.217 HD
ENDBRANCH   7  30
BRANCH   4  32
HETATM   32  O2  UNL     1      26.310  49.448  41.357  1.00  0.00    -0.352 OA
HETATM   33  C11 UNL     1      27.377  49.475  40.427  1.00  0.00     0.210 C 
ENDBRANCH   4  32
TORSDOF 10
ENDMDL
MODEL 2
REMARK VINA RESULT: -6.456397625      2.755      5.396
REMARK  10 active torsions:
REMARK  status: ('A' for Active; 'I' for Inactive)
REMARK    1  A    between atoms: C2_2  and  N1_3 
REMARK    2  A    between atoms: N1_3  and  C3_4 
REMARK    3  A    between atoms: N1_3  and  C7_8 
REMARK    4  A    between atoms: C3_4  and  C4_5 
REMARK    5  A    between atoms: C9_10  and  O1_11 
REMARK    6  A    between atoms: C10_13  and  O2_14 
REMARK    7  A    between atoms: C14_18  and  O3_19 
REMARK    8  A    between atoms: C16_23  and  C17_24 
REMARK    9  A    between atoms: C20_27  and  O5_28 
REMARK   10  A    between atoms: C21_30  and  O6_31 
ROOT
HETATM    1  C7  UNL     1      28.851  49.852  46.448  1.00  0.00     0.156 C 
HETATM    2  C8  UNL     1      28.421  48.617  47.110  1.00  0.00     0.040 A 
HETATM    3  C9  UNL     1      27.283  48.324  47.824  1.00  0.00     0.111 A 
HETATM    4  C10 UNL     1      27.158  47.061  48.369  1.00  0.00     0.110 A 
HETATM    5  C12 UNL     1      28.133  46.072  48.228  1.00  0.00     0.010 A 
HETATM    6  C13 UNL     1      27.922  44.722  48.857  1.00  0.00     0.054 C 
HETATM    7  C14 UNL     1      29.255  46.403  47.507  1.00  0.00     0.108 A 
HETATM    8  C15 UNL     1      29.404  47.657  46.953  1.00  0.00     0.114 A 
HETATM    9  O4  UNL     1      30.451  48.188  46.196  1.00  0.00    -0.335 OA
HETATM   10  C16 UNL     1      30.295  49.576  46.137  1.00  0.00     0.189 C 
ENDROOT
BRANCH  10  11
HETATM   11  C17 UNL     1      31.251  50.276  47.049  1.00  0.00    -0.024 A 
HETATM   12  C18 UNL     1      30.803  51.162  48.010  1.00  0.00     0.013 A 
HETATM   13  C19 UNL     1      31.688  51.825  48.857  1.00  0.00     0.040 A 
HETATM   14  C20 UNL     1      33.046  51.629  48.775  1.00  0.00     0.099 A 
HETATM   15  C21 UNL     1      33.499  50.740  47.811  1.00  0.00     0.101 A 
HETATM   16  C23 UNL     1      32.613  50.087  46.976  1.00  0.00     0.049 A 
BRANCH  14  17
HETATM   17  O5  UNL     1      33.952  52.278  49.607  1.00  0.00    -0.358 OA
ATOM     18  H5  UNL     1      34.574  51.812  50.153  1.00  0.00     0.217 HD
ENDBRANCH  14  17
BRANCH  15  19
HETATM   19  O6  UNL     1      34.870  50.556  47.739  1.00  0.00    -0.353 OA
HETATM   20  C22 UNL     1      35.562  50.700  46.505  1.00  0.00     0.210 C 
ENDBRANCH  15  19
ENDBRANCH  10  11
BRANCH   1  21
HETATM   21  N1  UNL     1      28.089  50.361  45.395  1.00  0.00    -0.382 N 
BRANCH  21  22
HETATM   22  C2  UNL     1      27.178  51.385  45.453  1.00  0.00     0.054 C 
HETATM   23  C1  UNL     1      27.254  52.444  46.494  1.00  0.00     0.054 C 
ENDBRANCH  21  22
BRANCH  21  24
HETATM   24  C3  UNL     1      28.016  49.471  44.283  1.00  0.00     0.127 C 
BRANCH  24  25
HETATM   25  C4  UNL     1      27.274  49.909  43.078  1.00  0.00     0.003 A 
HETATM   26  C5  UNL     1      27.576  49.575  41.693  1.00  0.00     0.007 A 
HETATM   27  C6  UNL     1      26.436  48.825  42.346  1.00  0.00     0.007 A 
ENDBRANCH  24  25
ENDBRANCH  21  24
ENDBRANCH   1  21
BRANCH   3  28
HETATM   28  O1  UNL     1      26.257  49.256  48.012  1.00  0.00    -0.357 OA
ATOM     29  H1  UNL     1      25.853  49.721  47.289  1.00  0.00     0.217 HD
ENDBRANCH   3  28
BRANCH   7  30
HETATM   30  O3  UNL     1      30.236  45.434  47.355  1.00  0.00    -0.357 OA
ATOM     31  H3  UNL     1      31.138  45.687  47.512  1.00  0.00     0.217 HD
ENDBRANCH   7  30
BRANCH   4  32
HETATM   32  O2  UNL     1      26.013  46.779  49.082  1.00  0.00    -0.352 OA
HETATM   33  C11 UNL     1      24.822  46.283  48.498  1.00  0.00     0.210 C 
ENDBRANCH   4  32
TORSDOF 10
ENDMDL
MODEL 3
REMARK VINA RESULT: -6.434291386      2.643      6.567
REMARK  10 active torsions:
REMARK  status: ('A' for Active; 'I' for Inactive)
REMARK    1  A    between atoms: C2_2  and  N1_3 
REMARK    2  A    between atoms: N1_3  and  C3_4 
REMARK    3  A    between atoms: N1_3  and  C7_8 
REMARK    4  A    between atoms: C3_4  and  C4_5 
REMARK    5  A    between atoms: C9_10  and  O1_11 
REMARK    6  A    between atoms: C10_13  and  O2_14 
REMARK    7  A    between atoms: C14_18  and  O3_19 
REMARK    8  A    between atoms: C16_23  and  C17_24 
REMARK    9  A    between atoms: C20_27  and  O5_28 
REMARK   10  A    between atoms: C21_30  and  O6_31 
ROOT
HETATM    1  C7  UNL     1      29.087  50.138  47.061  1.00  0.00     0.156 C 
HETATM    2  C8  UNL     1      30.265  51.011  47.033  1.00  0.00     0.040 A 
HETATM    3  C9  UNL     1      30.613  52.083  47.821  1.00  0.00     0.111 A 
HETATM    4  C10 UNL     1      31.791  52.748  47.541  1.00  0.00     0.110 A 
HETATM    5  C12 UNL     1      32.640  52.381  46.497  1.00  0.00     0.010 A 
HETATM    6  C13 UNL     1      33.904  53.161  46.254  1.00  0.00     0.054 C 
HETATM    7  C14 UNL     1      32.259  51.305  45.732  1.00  0.00     0.108 A 
HETATM    8  C15 UNL     1      31.087  50.624  45.992  1.00  0.00     0.114 A 
HETATM    9  O4  UNL     1      30.526  49.521  45.345  1.00  0.00    -0.335 OA
HETATM   10  C16 UNL     1      29.196  49.394  45.759  1.00  0.00     0.189 C 
ENDROOT
BRANCH  10  11
HETATM   11  C17 UNL     1      28.245  49.876  44.711  1.00  0.00    -0.024 A 
HETATM   12  C18 UNL     1      27.366  50.912  44.964  1.00  0.00     0.013 A 
HETATM   13  C19 UNL     1      26.471  51.359  43.995  1.00  0.00     0.040 A 
HETATM   14  C20 UNL     1      26.420  50.790  42.745  1.00  0.00     0.099 A 
HETATM   15  C21 UNL     1      27.301  49.750  42.488  1.00  0.00     0.101 A 
HETATM   16  C23 UNL     1      28.186  49.314  43.455  1.00  0.00     0.049 A 
BRANCH  14  17
HETATM   17  O5  UNL     1      25.536  51.217  41.760  1.00  0.00    -0.358 OA
ATOM     18  H5  UNL     1      25.150  50.626  41.124  1.00  0.00     0.217 HD
ENDBRANCH  14  17
BRANCH  15  19
HETATM   19  O6  UNL     1      27.234  49.185  41.224  1.00  0.00    -0.353 OA
HETATM   20  C22 UNL     1      28.106  49.615  40.186  1.00  0.00     0.210 C 
ENDBRANCH  15  19
ENDBRANCH  10  11
BRANCH   1  21
HETATM   21  N1  UNL     1      28.847  49.355  48.191  1.00  0.00    -0.382 N 
BRANCH  21  22
HETATM   22  C2  UNL     1      27.898  49.567  49.158  1.00  0.00     0.054 C 
HETATM   23  C1  UNL     1      26.496  49.095  48.998  1.00  0.00     0.054 C 
ENDBRANCH  21  22
BRANCH  21  24
HETATM   24  C3  UNL     1      29.937  48.494  48.510  1.00  0.00     0.127 C 
BRANCH  24  25
HETATM   25  C4  UNL     1      29.690  47.034  48.570  1.00  0.00     0.003 A 
HETATM   26  C5  UNL     1      28.869  46.247  47.660  1.00  0.00     0.007 A 
HETATM   27  C6  UNL     1      30.369  46.168  47.474  1.00  0.00     0.007 A 
ENDBRANCH  24  25
ENDBRANCH  21  24
ENDBRANCH   1  21
BRANCH   3  28
HETATM   28  O1  UNL     1      29.819  52.516  48.889  1.00  0.00    -0.357 OA
ATOM     29  H1  UNL     1      30.103  52.449  49.793  1.00  0.00     0.217 HD
ENDBRANCH   3  28
BRANCH   7  30
HETATM   30  O3  UNL     1      33.090  50.924  44.689  1.00  0.00    -0.357 OA
ATOM     31  H3  UNL     1      32.709  50.852  43.822  1.00  0.00     0.217 HD
ENDBRANCH   7  30
BRANCH   4  32
HETATM   32  O2  UNL     1      32.129  53.821  48.338  1.00  0.00    -0.352 OA
HETATM   33  C11 UNL     1      31.698  55.147  48.099  1.00  0.00     0.210 C 
ENDBRANCH   4  32
TORSDOF 10
ENDMDL
MODEL 4
REMARK VINA RESULT: -6.383424083      2.660      5.106
REMARK  10 active torsions:
REMARK  status: ('A' for Active; 'I' for Inactive)
REMARK    1  A    between atoms: C2_2  and  N1_3 
REMARK    2  A    between atoms: N1_3  and  C3_4 
REMARK    3  A    between atoms: N1_3  and  C7_8 
REMARK    4  A    between atoms: C3_4  and  C4_5 
REMARK    5  A    between atoms: C9_10  and  O1_11 
REMARK    6  A    between atoms: C10_13  and  O2_14 
REMARK    7  A    between atoms: C14_18  and  O3_19 
REMARK    8  A    between atoms: C16_23  and  C17_24 
REMARK    9  A    between atoms: C20_27  and  O5_28 
REMARK   10  A    between atoms: C21_30  and  O6_31 
ROOT
HETATM    1  C7  UNL     1      29.002  49.814  46.386  1.00  0.00     0.156 C 
HETATM    2  C8  UNL     1      28.449  48.610  47.015  1.00  0.00     0.040 A 
HETATM    3  C9  UNL     1      27.231  48.382  47.611  1.00  0.00     0.111 A 
HETATM    4  C10 UNL     1      26.991  47.135  48.154  1.00  0.00     0.110 A 
HETATM    5  C12 UNL     1      27.926  46.100  48.125  1.00  0.00     0.010 A 
HETATM    6  C13 UNL     1      27.589  44.771  48.745  1.00  0.00     0.054 C 
HETATM    7  C14 UNL     1      29.131  46.367  47.520  1.00  0.00     0.108 A 
HETATM    8  C15 UNL     1      29.395  47.604  46.970  1.00  0.00     0.114 A 
HETATM    9  O4  UNL     1      30.538  48.073  46.319  1.00  0.00    -0.335 OA
HETATM   10  C16 UNL     1      30.456  49.466  46.228  1.00  0.00     0.189 C 
ENDROOT
BRANCH  10  11
HETATM   11  C17 UNL     1      31.345  50.135  47.225  1.00  0.00    -0.024 A 
HETATM   12  C18 UNL     1      32.639  49.697  47.438  1.00  0.00     0.013 A 
HETATM   13  C19 UNL     1      33.471  50.309  48.372  1.00  0.00     0.040 A 
HETATM   14  C20 UNL     1      33.043  51.376  49.127  1.00  0.00     0.099 A 
HETATM   15  C21 UNL     1      31.745  51.819  48.916  1.00  0.00     0.101 A 
HETATM   16  C23 UNL     1      30.928  51.206  47.986  1.00  0.00     0.049 A 
BRANCH  14  17
HETATM   17  O5  UNL     1      33.852  52.005  50.067  1.00  0.00    -0.358 OA
ATOM     18  H5  UNL     1      33.502  52.488  50.806  1.00  0.00     0.217 HD
ENDBRANCH  14  17
BRANCH  15  19
HETATM   19  O6  UNL     1      31.329  52.893  49.686  1.00  0.00    -0.353 OA
HETATM   20  C22 UNL     1      31.230  54.197  49.127  1.00  0.00     0.210 C 
ENDBRANCH  15  19
ENDBRANCH  10  11
BRANCH   1  21
HETATM   21  N1  UNL     1      28.377  50.340  45.255  1.00  0.00    -0.382 N 
BRANCH  21  22
HETATM   22  C2  UNL     1      27.639  51.494  45.179  1.00  0.00     0.054 C 
HETATM   23  C1  UNL     1      27.637  52.497  46.278  1.00  0.00     0.054 C 
ENDBRANCH  21  22
BRANCH  21  24
HETATM   24  C3  UNL     1      28.211  49.379  44.215  1.00  0.00     0.127 C 
BRANCH  24  25
HETATM   25  C4  UNL     1      26.845  49.128  43.698  1.00  0.00     0.003 A 
HETATM   26  C5  UNL     1      26.480  48.725  42.347  1.00  0.00     0.007 A 
HETATM   27  C6  UNL     1      26.471  47.649  43.410  1.00  0.00     0.007 A 
ENDBRANCH  24  25
ENDBRANCH  21  24
ENDBRANCH   1  21
BRANCH   3  28
HETATM   28  O1  UNL     1      26.237  49.363  47.682  1.00  0.00    -0.357 OA
ATOM     29  H1  UNL     1      25.313  49.148  47.732  1.00  0.00     0.217 HD
ENDBRANCH   3  28
BRANCH   7  30
HETATM   30  O3  UNL     1      30.075  45.351  47.480  1.00  0.00    -0.357 OA
ATOM     31  H3  UNL     1      30.452  45.062  48.303  1.00  0.00     0.217 HD
ENDBRANCH   7  30
BRANCH   4  32
HETATM   32  O2  UNL     1      25.767  46.918  48.749  1.00  0.00    -0.352 OA
HETATM   33  C11 UNL     1      24.617  46.480  48.050  1.00  0.00     0.210 C 
ENDBRANCH   4  32
TORSDOF 10
ENDMDL
MODEL 5
REMARK VINA RESULT: -6.358496892      2.881      5.969
REMARK  10 active torsions:
REMARK  status: ('A' for Active; 'I' for Inactive)
REMARK    1  A    between atoms: C2_2  and  N1_3 
REMARK    2  A    between atoms: N1_3  and  C3_4 
REMARK    3  A    between atoms: N1_3  and  C7_8 
REMARK    4  A    between atoms: C3_4  and  C4_5 
REMARK    5  A    between atoms: C9_10  and  O1_11 
REMARK    6  A    between atoms: C10_13  and  O2_14 
REMARK    7  A    between atoms: C14_18  and  O3_19 
REMARK    8  A    between atoms: C16_23  and  C17_24 
REMARK    9  A    between atoms: C20_27  and  O5_28 
REMARK   10  A    between atoms: C21_30  and  O6_31 
ROOT
HETATM    1  C7  UNL     1      29.058  49.642  46.359  1.00  0.00     0.156 C 
HETATM    2  C8  UNL     1      28.698  48.429  47.101  1.00  0.00     0.040 A 
HETATM    3  C9  UNL     1      27.574  48.114  47.825  1.00  0.00     0.111 A 
HETATM    4  C10 UNL     1      27.521  46.885  48.454  1.00  0.00     0.110 A 
HETATM    5  C12 UNL     1      28.556  45.952  48.386  1.00  0.00     0.010 A 
HETATM    6  C13 UNL     1      28.423  44.636  49.103  1.00  0.00     0.054 C 
HETATM    7  C14 UNL     1      29.663  46.302  47.651  1.00  0.00     0.108 A 
HETATM    8  C15 UNL     1      29.740  47.524  47.014  1.00  0.00     0.114 A 
HETATM    9  O4  UNL     1      30.759  48.067  46.229  1.00  0.00    -0.335 OA
HETATM   10  C16 UNL     1      30.519  49.436  46.076  1.00  0.00     0.189 C 
ENDROOT
BRANCH  10  11
HETATM   11  C17 UNL     1      31.420  50.253  46.944  1.00  0.00    -0.024 A 
HETATM   12  C18 UNL     1      30.911  51.069  47.936  1.00  0.00     0.013 A 
HETATM   13  C19 UNL     1      31.743  51.841  48.743  1.00  0.00     0.040 A 
HETATM   14  C20 UNL     1      33.109  51.827  48.589  1.00  0.00     0.099 A 
HETATM   15  C21 UNL     1      33.624  51.009  47.594  1.00  0.00     0.101 A 
HETATM   16  C23 UNL     1      32.790  50.246  46.799  1.00  0.00     0.049 A 
BRANCH  14  17
HETATM   17  O5  UNL     1      33.963  52.588  49.379  1.00  0.00    -0.358 OA
ATOM     18  H5  UNL     1      34.884  52.381  49.488  1.00  0.00     0.217 HD
ENDBRANCH  14  17
BRANCH  15  19
HETATM   19  O6  UNL     1      35.002  51.008  47.449  1.00  0.00    -0.353 OA
HETATM   20  C22 UNL     1      35.609  50.572  46.239  1.00  0.00     0.210 C 
ENDBRANCH  15  19
ENDBRANCH  10  11
BRANCH   1  21
HETATM   21  N1  UNL     1      28.276  50.030  45.269  1.00  0.00    -0.382 N 
BRANCH  21  22
HETATM   22  C2  UNL     1      28.366  49.568  43.981  1.00  0.00     0.054 C 
HETATM   23  C1  UNL     1      27.302  49.834  42.976  1.00  0.00     0.054 C 
ENDBRANCH  21  22
BRANCH  21  24
HETATM   24  C3  UNL     1      27.600  51.266  45.484  1.00  0.00     0.127 C 
BRANCH  24  25
HETATM   25  C4  UNL     1      28.411  52.499  45.616  1.00  0.00     0.003 A 
HETATM   26  C5  UNL     1      27.942  53.873  45.501  1.00  0.00     0.007 A 
HETATM   27  C6  UNL     1      28.187  53.346  46.898  1.00  0.00     0.007 A 
ENDBRANCH  24  25
ENDBRANCH  21  24
ENDBRANCH   1  21
BRANCH   3  28
HETATM   28  O1  UNL     1      26.490  48.991  47.944  1.00  0.00    -0.357 OA
ATOM     29  H1  UNL     1      25.931  49.211  47.209  1.00  0.00     0.217 HD
ENDBRANCH   3  28
BRANCH   7  30
HETATM   30  O3  UNL     1      30.704  45.389  47.570  1.00  0.00    -0.357 OA
ATOM     31  H3  UNL     1      30.975  44.953  48.369  1.00  0.00     0.217 HD
ENDBRANCH   7  30
BRANCH   4  32
HETATM   32  O2  UNL     1      26.388  46.581  49.178  1.00  0.00    -0.352 OA
HETATM   33  C11 UNL     1      25.244  45.956  48.626  1.00  0.00     0.210 C 
ENDBRANCH   4  32
TORSDOF 10
ENDMDL
