MODEL 1
REMARK VINA RESULT: -7.105221928      0.000      0.000
REMARK  10 active torsions:
REMARK  status: ('A' for Active; 'I' for Inactive)
REMARK    1  A    between atoms: C2_2  and  O1_3 
REMARK    2  A    between atoms: O1_3  and  C3_4 
REMARK    3  A    between atoms: C4_5  and  O2_6 
REMARK    4  A    between atoms: C7_9  and  C8_10 
REMARK    5  A    between atoms: C8_10  and  C9_11 
REMARK    6  A    between atoms: C10_12  and  C11_13 
REMARK    7  A    between atoms: C13_18  and  O4_19 
REMARK    8  A    between atoms: C14_21  and  C15_22 
REMARK    9  A    between atoms: C19_27  and  O5_28 
REMARK   10  A    between atoms: C21_31  and  O6_32 
ROOT
HETATM    1  C9  UNL     1      29.387  49.737  47.673  1.00  0.00     0.015 A 
HETATM    2  C10 UNL     1      30.267  48.768  48.056  1.00  0.00     0.057 A 
HETATM    3  C12 UNL     1      31.529  49.308  47.892  1.00  0.00     0.130 A 
HETATM    4  N1  UNL     1      32.828  49.004  48.036  1.00  0.00    -0.320 N 
ATOM      5  H1  UNL     1      33.200  48.115  48.374  1.00  0.00     0.169 HD
HETATM    6  C13 UNL     1      33.549  50.055  47.664  1.00  0.00     0.166 A 
HETATM    7  C14 UNL     1      32.679  51.093  47.261  1.00  0.00     0.079 A 
HETATM    8  N2  UNL     1      31.446  50.576  47.422  1.00  0.00    -0.275 N 
HETATM    9  C19 UNL     1      30.145  50.862  47.279  1.00  0.00     0.156 A 
ENDROOT
BRANCH   1  10
HETATM   10  C8  UNL     1      27.921  49.695  47.622  1.00  0.00     0.082 C 
BRANCH  10  11
HETATM   11  C7  UNL     1      27.359  48.654  46.724  1.00  0.00    -0.048 A 
HETATM   12  C6  UNL     1      26.635  47.602  47.221  1.00  0.00     0.047 A 
HETATM   13  C4  UNL     1      26.141  46.663  46.336  1.00  0.00     0.104 A 
HETATM   14  C3  UNL     1      26.353  46.746  44.968  1.00  0.00     0.135 A 
HETATM   15  C21 UNL     1      27.077  47.794  44.458  1.00  0.00     0.104 A 
HETATM   16  C20 UNL     1      27.560  48.720  45.351  1.00  0.00     0.047 A 
BRANCH  13  17
HETATM   17  O2  UNL     1      25.398  45.587  46.860  1.00  0.00    -0.353 OA
HETATM   18  C5  UNL     1      26.014  44.742  47.786  1.00  0.00     0.210 C 
ENDBRANCH  13  17
BRANCH  14  19
HETATM   19  O1  UNL     1      25.825  45.768  44.173  1.00  0.00    -0.346 OA
BRANCH  19  20
HETATM   20  C2  UNL     1      26.482  44.699  43.576  1.00  0.00     0.171 C 
HETATM   21  C1  UNL     1      27.456  43.967  44.434  1.00  0.00     0.034 C 
ENDBRANCH  19  20
ENDBRANCH  14  19
BRANCH  15  22
HETATM   22  O6  UNL     1      27.314  47.915  43.075  1.00  0.00    -0.353 OA
HETATM   23  C22 UNL     1      26.586  48.862  42.323  1.00  0.00     0.210 C 
ENDBRANCH  15  22
ENDBRANCH  10  11
ENDBRANCH   1  10
BRANCH   2  24
HETATM   24  C11 UNL     1      29.972  47.419  48.573  1.00  0.00     0.274 C 
HETATM   25  O3  UNL     1      29.472  47.337  49.720  1.00  0.00    -0.301 OA
ENDBRANCH   2  24
BRANCH   9  26
HETATM   26  O5  UNL     1      29.585  52.050  46.823  1.00  0.00    -0.345 OA
ATOM     27  H5  UNL     1      28.708  52.340  47.045  1.00  0.00     0.219 HD
ENDBRANCH   9  26
BRANCH   7  28
HETATM   28  C15 UNL     1      33.209  52.375  46.789  1.00  0.00    -0.004 C 
HETATM   29  C16 UNL     1      32.718  53.473  47.720  1.00  0.00     0.021 C 
HETATM   30  C17 UNL     1      32.517  52.726  45.430  1.00  0.00     0.021 C 
HETATM   31  C18 UNL     1      34.661  52.479  46.507  1.00  0.00     0.021 C 
ENDBRANCH   7  28
BRANCH   6  32
HETATM   32  O4  UNL     1      34.927  50.113  47.674  1.00  0.00    -0.345 OA
ATOM     33  H4  UNL     1      35.442  50.869  47.419  1.00  0.00     0.219 HD
ENDBRANCH   6  32
TORSDOF 10
ENDMDL
MODEL 2
REMARK VINA RESULT: -7.077664559      0.058      2.341
REMARK  10 active torsions:
REMARK  status: ('A' for Active; 'I' for Inactive)
REMARK    1  A    between atoms: C2_2  and  O1_3 
REMARK    2  A    between atoms: O1_3  and  C3_4 
REMARK    3  A    between atoms: C4_5  and  O2_6 
REMARK    4  A    between atoms: C7_9  and  C8_10 
REMARK    5  A    between atoms: C8_10  and  C9_11 
REMARK    6  A    between atoms: C10_12  and  C11_13 
REMARK    7  A    between atoms: C13_18  and  O4_19 
REMARK    8  A    between atoms: C14_21  and  C15_22 
REMARK    9  A    between atoms: C19_27  and  O5_28 
REMARK   10  A    between atoms: C21_31  and  O6_32 
ROOT
HETATM    1  C9  UNL     1      29.379  49.729  47.638  1.00  0.00     0.015 A 
HETATM    2  C10 UNL     1      30.257  48.766  48.039  1.00  0.00     0.057 A 
HETATM    3  C12 UNL     1      31.519  49.308  47.887  1.00  0.00     0.130 A 
HETATM    4  N1  UNL     1      32.818  49.010  48.049  1.00  0.00    -0.320 N 
ATOM      5  H1  UNL     1      33.188  48.125  48.398  1.00  0.00     0.169 HD
HETATM    6  C13 UNL     1      33.539  50.061  47.678  1.00  0.00     0.166 A 
HETATM    7  C14 UNL     1      32.671  51.093  47.257  1.00  0.00     0.079 A 
HETATM    8  N2  UNL     1      31.438  50.573  47.407  1.00  0.00    -0.275 N 
HETATM    9  C19 UNL     1      30.138  50.853  47.246  1.00  0.00     0.156 A 
ENDROOT
BRANCH   1  10
HETATM   10  C8  UNL     1      27.913  49.681  47.569  1.00  0.00     0.082 C 
BRANCH  10  11
HETATM   11  C7  UNL     1      27.367  48.652  46.648  1.00  0.00    -0.048 A 
HETATM   12  C6  UNL     1      27.578  48.727  45.296  1.00  0.00     0.047 A 
HETATM   13  C4  UNL     1      27.042  47.741  44.489  1.00  0.00     0.104 A 
HETATM   14  C3  UNL     1      26.300  46.685  44.996  1.00  0.00     0.135 A 
HETATM   15  C21 UNL     1      26.082  46.600  46.348  1.00  0.00     0.104 A 
HETATM   16  C20 UNL     1      26.623  47.586  47.137  1.00  0.00     0.047 A 
BRANCH  13  17
HETATM   17  O2  UNL     1      27.266  47.829  43.101  1.00  0.00    -0.353 OA
HETATM   18  C5  UNL     1      26.637  48.854  42.389  1.00  0.00     0.210 C 
ENDBRANCH  13  17
BRANCH  14  19
HETATM   19  O1  UNL     1      25.810  45.760  44.118  1.00  0.00    -0.346 OA
BRANCH  19  20
HETATM   20  C2  UNL     1      26.459  44.652  43.587  1.00  0.00     0.171 C 
HETATM   21  C1  UNL     1      27.431  43.969  44.486  1.00  0.00     0.034 C 
ENDBRANCH  19  20
ENDBRANCH  14  19
BRANCH  15  22
HETATM   22  O6  UNL     1      25.335  45.543  46.903  1.00  0.00    -0.353 OA
HETATM   23  C22 UNL     1      25.927  44.705  47.872  1.00  0.00     0.210 C 
ENDBRANCH  15  22
ENDBRANCH  10  11
ENDBRANCH   1  10
BRANCH   2  24
HETATM   24  C11 UNL     1      29.960  47.420  48.562  1.00  0.00     0.274 C 
HETATM   25  O3  UNL     1      29.434  47.345  49.698  1.00  0.00    -0.301 OA
ENDBRANCH   2  24
BRANCH   9  26
HETATM   26  O5  UNL     1      29.579  52.036  46.773  1.00  0.00    -0.345 OA
ATOM     27  H5  UNL     1      29.139  52.670  47.327  1.00  0.00     0.219 HD
ENDBRANCH   9  26
BRANCH   7  28
HETATM   28  C15 UNL     1      33.203  52.373  46.782  1.00  0.00    -0.004 C 
HETATM   29  C16 UNL     1      32.710  53.474  47.709  1.00  0.00     0.021 C 
HETATM   30  C17 UNL     1      32.513  52.721  45.421  1.00  0.00     0.021 C 
HETATM   31  C18 UNL     1      34.656  52.475  46.502  1.00  0.00     0.021 C 
ENDBRANCH   7  28
BRANCH   6  32
HETATM   32  O4  UNL     1      34.917  50.124  47.706  1.00  0.00    -0.345 OA
ATOM     33  H4  UNL     1      35.431  50.896  47.500  1.00  0.00     0.219 HD
ENDBRANCH   6  32
TORSDOF 10
ENDMDL
MODEL 3
REMARK VINA RESULT: -6.797723965      1.574      2.739
REMARK  10 active torsions:
REMARK  status: ('A' for Active; 'I' for Inactive)
REMARK    1  A    between atoms: C2_2  and  O1_3 
REMARK    2  A    between atoms: O1_3  and  C3_4 
REMARK    3  A    between atoms: C4_5  and  O2_6 
REMARK    4  A    between atoms: C7_9  and  C8_10 
REMARK    5  A    between atoms: C8_10  and  C9_11 
REMARK    6  A    between atoms: C10_12  and  C11_13 
REMARK    7  A    between atoms: C13_18  and  O4_19 
REMARK    8  A    between atoms: C14_21  and  C15_22 
REMARK    9  A    between atoms: C19_27  and  O5_28 
REMARK   10  A    between atoms: C21_31  and  O6_32 
ROOT
HETATM    1  C9  UNL     1      29.233  49.828  47.213  1.00  0.00     0.015 A 
HETATM    2  C10 UNL     1      30.039  48.809  47.628  1.00  0.00     0.057 A 
HETATM    3  C12 UNL     1      31.330  49.303  47.600  1.00  0.00     0.130 A 
HETATM    4  N1  UNL     1      32.599  48.941  47.843  1.00  0.00    -0.320 N 
ATOM      5  H1  UNL     1      32.905  48.026  48.172  1.00  0.00     0.169 HD
HETATM    6  C13 UNL     1      33.388  49.977  47.582  1.00  0.00     0.166 A 
HETATM    7  C14 UNL     1      32.596  51.065  47.151  1.00  0.00     0.079 A 
HETATM    8  N2  UNL     1      31.335  50.592  47.180  1.00  0.00    -0.275 N 
HETATM    9  C19 UNL     1      30.064  50.936  46.937  1.00  0.00     0.156 A 
ENDROOT
BRANCH   1  10
HETATM   10  C8  UNL     1      27.777  49.847  47.031  1.00  0.00     0.082 C 
BRANCH  10  11
HETATM   11  C7  UNL     1      27.322  49.680  45.627  1.00  0.00    -0.048 A 
HETATM   12  C6  UNL     1      27.312  48.448  45.027  1.00  0.00     0.047 A 
HETATM   13  C4  UNL     1      26.881  48.356  43.717  1.00  0.00     0.104 A 
HETATM   14  C3  UNL     1      26.462  49.462  42.991  1.00  0.00     0.135 A 
HETATM   15  C21 UNL     1      26.469  50.700  43.582  1.00  0.00     0.104 A 
HETATM   16  C20 UNL     1      26.898  50.774  44.884  1.00  0.00     0.047 A 
BRANCH  13  17
HETATM   17  O2  UNL     1      26.875  47.084  43.111  1.00  0.00    -0.353 OA
HETATM   18  C5  UNL     1      26.465  45.987  43.871  1.00  0.00     0.210 C 
ENDBRANCH  13  17
BRANCH  14  19
HETATM   19  O1  UNL     1      26.056  49.270  41.701  1.00  0.00    -0.346 OA
BRANCH  19  20
HETATM   20  C2  UNL     1      26.613  49.790  40.539  1.00  0.00     0.171 C 
HETATM   21  C1  UNL     1      28.086  49.624  40.387  1.00  0.00     0.034 C 
ENDBRANCH  19  20
ENDBRANCH  14  19
BRANCH  15  22
HETATM   22  O6  UNL     1      26.051  51.847  42.879  1.00  0.00    -0.353 OA
HETATM   23  C22 UNL     1      26.013  53.094  43.540  1.00  0.00     0.210 C 
ENDBRANCH  15  22
ENDBRANCH  10  11
ENDBRANCH   1  10
BRANCH   2  24
HETATM   24  C11 UNL     1      29.649  47.453  48.057  1.00  0.00     0.274 C 
HETATM   25  O3  UNL     1      30.560  46.600  48.169  1.00  0.00    -0.301 OA
ENDBRANCH   2  24
BRANCH   9  26
HETATM   26  O5  UNL     1      29.591  52.164  46.486  1.00  0.00    -0.345 OA
ATOM     27  H5  UNL     1      30.073  52.978  46.568  1.00  0.00     0.219 HD
ENDBRANCH   9  26
BRANCH   7  28
HETATM   28  C15 UNL     1      33.213  52.342  46.785  1.00  0.00    -0.004 C 
HETATM   29  C16 UNL     1      32.741  53.405  47.765  1.00  0.00     0.021 C 
HETATM   30  C17 UNL     1      32.599  52.816  45.425  1.00  0.00     0.021 C 
HETATM   31  C18 UNL     1      34.680  52.383  46.567  1.00  0.00     0.021 C 
ENDBRANCH   7  28
BRANCH   6  32
HETATM   32  O4  UNL     1      34.761  49.978  47.716  1.00  0.00    -0.345 OA
ATOM     33  H4  UNL     1      35.375  49.729  47.036  1.00  0.00     0.219 HD
ENDBRANCH   6  32
TORSDOF 10
ENDMDL
MODEL 4
REMARK VINA RESULT: -6.754493469      1.719      2.699
REMARK  10 active torsions:
REMARK  status: ('A' for Active; 'I' for Inactive)
REMARK    1  A    between atoms: C2_2  and  O1_3 
REMARK    2  A    between atoms: O1_3  and  C3_4 
REMARK    3  A    between atoms: C4_5  and  O2_6 
REMARK    4  A    between atoms: C7_9  and  C8_10 
REMARK    5  A    between atoms: C8_10  and  C9_11 
REMARK    6  A    between atoms: C10_12  and  C11_13 
REMARK    7  A    between atoms: C13_18  and  O4_19 
REMARK    8  A    between atoms: C14_21  and  C15_22 
REMARK    9  A    between atoms: C19_27  and  O5_28 
REMARK   10  A    between atoms: C21_31  and  O6_32 
ROOT
HETATM    1  C9  UNL     1      28.920  48.888  47.779  1.00  0.00     0.015 A 
HETATM    2  C10 UNL     1      29.920  47.961  47.814  1.00  0.00     0.057 A 
HETATM    3  C12 UNL     1      31.099  48.672  47.940  1.00  0.00     0.130 A 
HETATM    4  N1  UNL     1      32.426  48.498  48.031  1.00  0.00    -0.320 N 
ATOM      5  H1  UNL     1      32.912  47.600  48.026  1.00  0.00     0.169 HD
HETATM    6  C13 UNL     1      33.001  49.690  48.129  1.00  0.00     0.166 A 
HETATM    7  C14 UNL     1      32.001  50.689  48.102  1.00  0.00     0.079 A 
HETATM    8  N2  UNL     1      30.848  50.003  47.984  1.00  0.00    -0.275 N 
HETATM    9  C19 UNL     1      29.522  50.161  47.887  1.00  0.00     0.156 A 
ENDROOT
BRANCH   1  10
HETATM   10  C8  UNL     1      27.473  48.689  47.632  1.00  0.00     0.082 C 
BRANCH  10  11
HETATM   11  C7  UNL     1      26.974  48.760  46.235  1.00  0.00    -0.048 A 
HETATM   12  C6  UNL     1      27.118  47.704  45.375  1.00  0.00     0.047 A 
HETATM   13  C4  UNL     1      26.637  47.831  44.086  1.00  0.00     0.104 A 
HETATM   14  C3  UNL     1      26.016  48.986  43.634  1.00  0.00     0.135 A 
HETATM   15  C21 UNL     1      25.867  50.051  44.486  1.00  0.00     0.104 A 
HETATM   16  C20 UNL     1      26.349  49.908  45.764  1.00  0.00     0.047 A 
BRANCH  13  17
HETATM   17  O2  UNL     1      26.791  46.737  43.211  1.00  0.00    -0.353 OA
HETATM   18  C5  UNL     1      26.478  45.460  43.682  1.00  0.00     0.210 C 
ENDBRANCH  13  17
BRANCH  14  19
HETATM   19  O1  UNL     1      25.574  49.017  42.341  1.00  0.00    -0.346 OA
BRANCH  19  20
HETATM   20  C2  UNL     1      26.078  49.757  41.279  1.00  0.00     0.171 C 
HETATM   21  C1  UNL     1      27.530  49.583  40.990  1.00  0.00     0.034 C 
ENDBRANCH  19  20
ENDBRANCH  14  19
BRANCH  15  22
HETATM   22  O6  UNL     1      25.242  51.242  44.065  1.00  0.00    -0.353 OA
HETATM   23  C22 UNL     1      26.007  52.420  43.930  1.00  0.00     0.210 C 
ENDBRANCH  15  22
ENDBRANCH  10  11
ENDBRANCH   1  10
BRANCH   2  24
HETATM   24  C11 UNL     1      29.807  46.492  47.761  1.00  0.00     0.274 C 
HETATM   25  O3  UNL     1      30.677  45.869  47.109  1.00  0.00    -0.301 OA
ENDBRANCH   2  24
BRANCH   9  26
HETATM   26  O5  UNL     1      28.809  51.355  47.886  1.00  0.00    -0.345 OA
ATOM     27  H5  UNL     1      29.054  52.116  48.398  1.00  0.00     0.219 HD
ENDBRANCH   9  26
BRANCH   7  28
HETATM   28  C15 UNL     1      32.356  52.108  48.185  1.00  0.00    -0.004 C 
HETATM   29  C16 UNL     1      31.671  52.708  49.403  1.00  0.00     0.021 C 
HETATM   30  C17 UNL     1      31.676  52.858  46.991  1.00  0.00     0.021 C 
HETATM   31  C18 UNL     1      33.788  52.485  48.097  1.00  0.00     0.021 C 
ENDBRANCH   7  28
BRANCH   6  32
HETATM   32  O4  UNL     1      34.359  49.908  48.239  1.00  0.00    -0.345 OA
ATOM     33  H4  UNL     1      35.022  49.497  47.698  1.00  0.00     0.219 HD
ENDBRANCH   6  32
TORSDOF 10
ENDMDL
MODEL 5
REMARK VINA RESULT: -6.730156631      1.577      3.281
REMARK  10 active torsions:
REMARK  status: ('A' for Active; 'I' for Inactive)
REMARK    1  A    between atoms: C2_2  and  O1_3 
REMARK    2  A    between atoms: O1_3  and  C3_4 
REMARK    3  A    between atoms: C4_5  and  O2_6 
REMARK    4  A    between atoms: C7_9  and  C8_10 
REMARK    5  A    between atoms: C8_10  and  C9_11 
REMARK    6  A    between atoms: C10_12  and  C11_13 
REMARK    7  A    between atoms: C13_18  and  O4_19 
REMARK    8  A    between atoms: C14_21  and  C15_22 
REMARK    9  A    between atoms: C19_27  and  O5_28 
REMARK   10  A    between atoms: C21_31  and  O6_32 
ROOT
HETATM    1  C9  UNL     1      29.160  50.012  47.129  1.00  0.00     0.015 A 
HETATM    2  C10 UNL     1      29.910  48.952  47.547  1.00  0.00     0.057 A 
HETATM    3  C12 UNL     1      31.224  49.385  47.542  1.00  0.00     0.130 A 
HETATM    4  N1  UNL     1      32.470  48.961  47.801  1.00  0.00    -0.320 N 
ATOM      5  H1  UNL     1      32.729  48.029  48.127  1.00  0.00     0.169 HD
HETATM    6  C13 UNL     1      33.311  49.960  47.561  1.00  0.00     0.166 A 
HETATM    7  C14 UNL     1      32.579  51.088  47.127  1.00  0.00     0.079 A 
HETATM    8  N2  UNL     1      31.297  50.675  47.134  1.00  0.00    -0.275 N 
HETATM    9  C19 UNL     1      30.047  51.081  46.875  1.00  0.00     0.156 A 
ENDROOT
BRANCH   1  10
HETATM   10  C8  UNL     1      27.709  50.101  46.926  1.00  0.00     0.082 C 
BRANCH  10  11
HETATM   11  C7  UNL     1      27.264  49.908  45.523  1.00  0.00    -0.048 A 
HETATM   12  C6  UNL     1      26.827  50.962  44.765  1.00  0.00     0.047 A 
HETATM   13  C4  UNL     1      26.422  50.719  43.466  1.00  0.00     0.104 A 
HETATM   14  C3  UNL     1      26.441  49.451  42.905  1.00  0.00     0.135 A 
HETATM   15  C21 UNL     1      26.876  48.387  43.655  1.00  0.00     0.104 A 
HETATM   16  C20 UNL     1      27.276  48.645  44.943  1.00  0.00     0.047 A 
BRANCH  13  17
HETATM   17  O2  UNL     1      25.975  51.812  42.698  1.00  0.00    -0.353 OA
HETATM   18  C5  UNL     1      25.896  53.067  43.307  1.00  0.00     0.210 C 
ENDBRANCH  13  17
BRANCH  14  19
HETATM   19  O1  UNL     1      26.020  49.311  41.613  1.00  0.00    -0.346 OA
BRANCH  19  20
HETATM   20  C2  UNL     1      26.656  49.734  40.452  1.00  0.00     0.171 C 
HETATM   21  C1  UNL     1      28.143  49.643  40.450  1.00  0.00     0.034 C 
ENDBRANCH  19  20
ENDBRANCH  14  19
BRANCH  15  22
HETATM   22  O6  UNL     1      26.911  47.083  43.122  1.00  0.00    -0.353 OA
HETATM   23  C22 UNL     1      26.331  46.019  43.846  1.00  0.00     0.210 C 
ENDBRANCH  15  22
ENDBRANCH  10  11
ENDBRANCH   1  10
BRANCH   2  24
HETATM   24  C11 UNL     1      29.451  47.613  47.958  1.00  0.00     0.274 C 
HETATM   25  O3  UNL     1      30.140  47.003  48.810  1.00  0.00    -0.301 OA
ENDBRANCH   2  24
BRANCH   9  26
HETATM   26  O5  UNL     1      29.639  52.333  46.428  1.00  0.00    -0.345 OA
ATOM     27  H5  UNL     1      29.951  52.735  45.626  1.00  0.00     0.219 HD
ENDBRANCH   9  26
BRANCH   7  28
HETATM   28  C15 UNL     1      33.261  52.338  46.781  1.00  0.00    -0.004 C 
HETATM   29  C16 UNL     1      32.844  53.408  47.778  1.00  0.00     0.021 C 
HETATM   30  C17 UNL     1      32.672  52.864  45.429  1.00  0.00     0.021 C 
HETATM   31  C18 UNL     1      34.728  52.306  46.563  1.00  0.00     0.021 C 
ENDBRANCH   7  28
BRANCH   6  32
HETATM   32  O4  UNL     1      34.681  49.896  47.715  1.00  0.00    -0.345 OA
ATOM     33  H4  UNL     1      35.189  50.440  48.304  1.00  0.00     0.219 HD
ENDBRANCH   6  32
TORSDOF 10
ENDMDL
