MODEL 1
REMARK VINA RESULT: -7.302119034      0.000      0.000
REMARK  5 active torsions:
REMARK  status: ('A' for Active; 'I' for Inactive)
REMARK    1  A    between atoms: C2_2  and  C3_3 
REMARK    2  A    between atoms: C3_3  and  C4_4 
REMARK    3  A    between atoms: C4_4  and  N1_5 
REMARK       I    between atoms: C5_7  and  N2_8 
REMARK       I    between atoms: C5_7  and  N3_11 
REMARK    4  A    between atoms: N3_11  and  N4_13 
REMARK    5  A    between atoms: C10_21  and  C11_22 
ROOT
HETATM    1  N4  UNL     1      34.873   5.818  23.335  1.00  0.00    -0.265 N 
ATOM      2  H4  UNL     1      34.806   6.135  22.369  1.00  0.00     0.189 HD
HETATM    3  C7  UNL     1      34.538   6.636  24.262  1.00  0.00     0.165 C 
HETATM    4  N5  UNL     1      34.515   6.514  25.670  1.00  0.00    -0.325 N 
ATOM      5  H5  UNL     1      35.019   5.769  26.152  1.00  0.00     0.169 HD
HETATM    6  C8  UNL     1      33.776   7.457  26.363  1.00  0.00     0.119 C 
HETATM    7  S1  UNL     1      33.628   7.478  28.017  1.00  0.00    -0.059 SA
HETATM    8  C9  UNL     1      33.108   8.463  25.564  1.00  0.00     0.048 C 
HETATM    9  C10 UNL     1      32.134   9.301  25.862  1.00  0.00     0.043 C 
HETATM   10  S4  UNL     1      33.944   8.323  23.958  1.00  0.00    -0.050 SA
ENDROOT
BRANCH   1  11
HETATM   11  N3  UNL     1      35.324   4.524  23.567  1.00  0.00    -0.131 N 
HETATM   12  C5  UNL     1      35.367   3.613  22.492  1.00  0.00     0.688 C 
HETATM   13  N1  UNL     1      35.987   2.500  22.581  1.00  0.00    -0.225 N 
HETATM   14  N2  UNL     1      34.713   3.929  21.285  1.00  0.00    -0.229 N 
ATOM     15  H1  UNL     1      35.998   1.865  21.783  1.00  0.00     0.177 HD
HETATM   16  C6  UNL     1      35.457   3.930  20.053  1.00  0.00     0.165 C 
ATOM     17  H2  UNL     1      33.719   4.156  21.283  1.00  0.00     0.177 HD
ATOM     18  H3  UNL     1      35.620   4.238  24.500  1.00  0.00     0.205 HD
BRANCH  13  19
HETATM   19  C4  UNL     1      36.674   2.127  23.795  1.00  0.00     0.138 C 
BRANCH  19  20
HETATM   20  C3  UNL     1      38.097   2.673  23.699  1.00  0.00     0.020 C 
BRANCH  20  21
HETATM   21  C2  UNL     1      38.441   3.272  25.059  1.00  0.00    -0.003 C 
HETATM   22  C1  UNL     1      38.253   2.186  26.122  1.00  0.00     0.005 C 
ENDBRANCH  20  21
ENDBRANCH  19  20
ENDBRANCH  13  19
ENDBRANCH   1  11
BRANCH   9  23
HETATM   23  C11 UNL     1      31.598  10.253  24.882  1.00  0.00     0.042 A 
HETATM   24  S2  UNL     1      30.019  10.327  24.258  1.00  0.00    -0.049 SA
HETATM   25  S3  UNL     1      30.855  11.873  23.274  1.00  0.00    -0.039 SA
HETATM   26  C12 UNL     1      32.174  11.310  24.210  1.00  0.00     0.099 A 
HETATM   27 CL1  UNL     1      33.802  12.009  24.209  1.00  0.00    -0.074 Cl
ENDBRANCH   9  23
TORSDOF 5
ENDMDL
MODEL 2
REMARK VINA RESULT: -7.265135439      4.057      8.508
REMARK  5 active torsions:
REMARK  status: ('A' for Active; 'I' for Inactive)
REMARK    1  A    between atoms: C2_2  and  C3_3 
REMARK    2  A    between atoms: C3_3  and  C4_4 
REMARK    3  A    between atoms: C4_4  and  N1_5 
REMARK       I    between atoms: C5_7  and  N2_8 
REMARK       I    between atoms: C5_7  and  N3_11 
REMARK    4  A    between atoms: N3_11  and  N4_13 
REMARK    5  A    between atoms: C10_21  and  C11_22 
ROOT
HETATM    1  N4  UNL     1      34.973   7.936  24.313  1.00  0.00    -0.265 N 
ATOM      2  H4  UNL     1      35.028   7.715  25.307  1.00  0.00     0.189 HD
HETATM    3  C7  UNL     1      35.325   7.034  23.476  1.00  0.00     0.165 C 
HETATM    4  N5  UNL     1      35.367   7.017  22.063  1.00  0.00    -0.325 N 
ATOM      5  H5  UNL     1      35.326   7.878  21.515  1.00  0.00     0.169 HD
HETATM    6  C8  UNL     1      35.466   5.776  21.459  1.00  0.00     0.119 C 
HETATM    7  S1  UNL     1      35.528   5.554  19.815  1.00  0.00    -0.059 SA
HETATM    8  C9  UNL     1      35.516   4.633  22.346  1.00  0.00     0.048 C 
HETATM    9  C10 UNL     1      35.331   3.348  22.114  1.00  0.00     0.043 C 
HETATM   10  S4  UNL     1      35.912   5.384  23.950  1.00  0.00    -0.050 SA
ENDROOT
BRANCH   1  11
HETATM   11  N3  UNL     1      34.518   9.198  23.950  1.00  0.00    -0.131 N 
HETATM   12  C5  UNL     1      33.218   9.591  24.326  1.00  0.00     0.688 C 
HETATM   13  N1  UNL     1      32.832  10.805  24.236  1.00  0.00    -0.225 N 
HETATM   14  N2  UNL     1      32.313   8.627  24.814  1.00  0.00    -0.229 N 
ATOM     15  H1  UNL     1      31.883  11.053  24.518  1.00  0.00     0.177 HD
HETATM   16  C6  UNL     1      31.700   8.816  26.102  1.00  0.00     0.165 C 
ATOM     17  H2  UNL     1      32.094   7.801  24.258  1.00  0.00     0.177 HD
ATOM     18  H3  UNL     1      35.117   9.832  23.421  1.00  0.00     0.205 HD
BRANCH  13  19
HETATM   19  C4  UNL     1      33.718  11.833  23.743  1.00  0.00     0.138 C 
BRANCH  19  20
HETATM   20  C3  UNL     1      32.891  13.105  23.577  1.00  0.00     0.020 C 
BRANCH  20  21
HETATM   21  C2  UNL     1      31.491  12.679  23.150  1.00  0.00    -0.003 C 
HETATM   22  C1  UNL     1      31.435  12.679  21.619  1.00  0.00     0.005 C 
ENDBRANCH  20  21
ENDBRANCH  19  20
ENDBRANCH  13  19
ENDBRANCH   1  11
BRANCH   9  23
HETATM   23  C11 UNL     1      35.430   2.342  23.179  1.00  0.00     0.042 A 
HETATM   24  S2  UNL     1      34.215   1.293  23.738  1.00  0.00    -0.049 SA
HETATM   25  S3  UNL     1      35.734   0.738  24.939  1.00  0.00    -0.039 SA
HETATM   26  C12 UNL     1      36.472   1.965  24.000  1.00  0.00     0.099 A 
HETATM   27 CL1  UNL     1      38.152   2.503  24.157  1.00  0.00    -0.074 Cl
ENDBRANCH   9  23
TORSDOF 5
ENDMDL
MODEL 3
REMARK VINA RESULT: -7.235727206      4.278      8.529
REMARK  5 active torsions:
REMARK  status: ('A' for Active; 'I' for Inactive)
REMARK    1  A    between atoms: C2_2  and  C3_3 
REMARK    2  A    between atoms: C3_3  and  C4_4 
REMARK    3  A    between atoms: C4_4  and  N1_5 
REMARK       I    between atoms: C5_7  and  N2_8 
REMARK       I    between atoms: C5_7  and  N3_11 
REMARK    4  A    between atoms: N3_11  and  N4_13 
REMARK    5  A    between atoms: C10_21  and  C11_22 
ROOT
HETATM    1  N4  UNL     1      35.069   7.737  24.268  1.00  0.00    -0.265 N 
ATOM      2  H4  UNL     1      35.105   7.476  25.253  1.00  0.00     0.189 HD
HETATM    3  C7  UNL     1      35.381   6.850  23.399  1.00  0.00     0.165 C 
HETATM    4  N5  UNL     1      35.434   6.885  21.986  1.00  0.00    -0.325 N 
ATOM      5  H5  UNL     1      35.442   7.766  21.472  1.00  0.00     0.169 HD
HETATM    6  C8  UNL     1      35.474   5.664  21.336  1.00  0.00     0.119 C 
HETATM    7  S1  UNL     1      35.537   5.501  19.685  1.00  0.00    -0.059 SA
HETATM    8  C9  UNL     1      35.457   4.486  22.179  1.00  0.00     0.048 C 
HETATM    9  C10 UNL     1      35.208   3.223  21.898  1.00  0.00     0.043 C 
HETATM   10  S4  UNL     1      35.878   5.155  23.814  1.00  0.00    -0.050 SA
ENDROOT
BRANCH   1  11
HETATM   11  N3  UNL     1      34.684   9.034  23.951  1.00  0.00    -0.131 N 
HETATM   12  C5  UNL     1      33.392   9.470  24.309  1.00  0.00     0.688 C 
HETATM   13  N1  UNL     1      33.065  10.704  24.264  1.00  0.00    -0.225 N 
HETATM   14  N2  UNL     1      32.431   8.530  24.729  1.00  0.00    -0.229 N 
ATOM     15  H1  UNL     1      32.121  10.984  24.531  1.00  0.00     0.177 HD
HETATM   16  C6  UNL     1      31.791   8.690  26.007  1.00  0.00     0.165 C 
ATOM     17  H2  UNL     1      32.190   7.739  24.130  1.00  0.00     0.177 HD
ATOM     18  H3  UNL     1      35.326   9.661  23.466  1.00  0.00     0.205 HD
BRANCH  13  19
HETATM   19  C4  UNL     1      34.011  11.709  23.842  1.00  0.00     0.138 C 
BRANCH  19  20
HETATM   20  C3  UNL     1      33.263  13.039  23.775  1.00  0.00     0.020 C 
BRANCH  20  21
HETATM   21  C2  UNL     1      31.855  12.737  23.274  1.00  0.00    -0.003 C 
HETATM   22  C1  UNL     1      31.861  12.821  21.745  1.00  0.00     0.005 C 
ENDBRANCH  20  21
ENDBRANCH  19  20
ENDBRANCH  13  19
ENDBRANCH   1  11
BRANCH   9  23
HETATM   23  C11 UNL     1      35.246   2.174  22.923  1.00  0.00     0.042 A 
HETATM   24  S2  UNL     1      36.608   1.554  23.732  1.00  0.00    -0.049 SA
HETATM   25  S3  UNL     1      35.160   0.446  24.589  1.00  0.00    -0.039 SA
HETATM   26  C12 UNL     1      34.253   1.417  23.507  1.00  0.00     0.099 A 
HETATM   27 CL1  UNL     1      32.495   1.350  23.303  1.00  0.00    -0.074 Cl
ENDBRANCH   9  23
TORSDOF 5
ENDMDL
MODEL 4
REMARK VINA RESULT: -7.227342659      3.936      8.057
REMARK  5 active torsions:
REMARK  status: ('A' for Active; 'I' for Inactive)
REMARK    1  A    between atoms: C2_2  and  C3_3 
REMARK    2  A    between atoms: C3_3  and  C4_4 
REMARK    3  A    between atoms: C4_4  and  N1_5 
REMARK       I    between atoms: C5_7  and  N2_8 
REMARK       I    between atoms: C5_7  and  N3_11 
REMARK    4  A    between atoms: N3_11  and  N4_13 
REMARK    5  A    between atoms: C10_21  and  C11_22 
ROOT
HETATM    1  N4  UNL     1      31.704   7.235  24.070  1.00  0.00    -0.265 N 
ATOM      2  H4  UNL     1      31.850   7.015  23.084  1.00  0.00     0.189 HD
HETATM    3  C7  UNL     1      32.154   6.412  24.942  1.00  0.00     0.165 C 
HETATM    4  N5  UNL     1      32.121   6.418  26.355  1.00  0.00    -0.325 N 
ATOM      5  H5  UNL     1      31.484   7.024  26.874  1.00  0.00     0.169 HD
HETATM    6  C8  UNL     1      32.995   5.562  27.001  1.00  0.00     0.119 C 
HETATM    7  S1  UNL     1      33.103   5.429  28.652  1.00  0.00    -0.059 SA
HETATM    8  C9  UNL     1      33.847   4.755  26.153  1.00  0.00     0.048 C 
HETATM    9  C10 UNL     1      34.943   4.074  26.422  1.00  0.00     0.043 C 
HETATM   10  S4  UNL     1      33.039   4.882  24.532  1.00  0.00    -0.050 SA
ENDROOT
BRANCH   1  11
HETATM   11  N3  UNL     1      31.030   8.409  24.383  1.00  0.00    -0.131 N 
HETATM   12  C5  UNL     1      31.773   9.588  24.591  1.00  0.00     0.688 C 
HETATM   13  N1  UNL     1      31.210  10.735  24.643  1.00  0.00    -0.225 N 
HETATM   14  N2  UNL     1      33.171   9.513  24.745  1.00  0.00    -0.229 N 
ATOM     15  H1  UNL     1      31.779  11.567  24.794  1.00  0.00     0.177 HD
HETATM   16  C6  UNL     1      34.025  10.278  23.875  1.00  0.00     0.165 C 
ATOM     17  H2  UNL     1      33.577   8.921  25.470  1.00  0.00     0.177 HD
ATOM     18  H3  UNL     1      30.013   8.417  24.461  1.00  0.00     0.205 HD
BRANCH  13  19
HETATM   19  C4  UNL     1      29.781  10.868  24.490  1.00  0.00     0.138 C 
BRANCH  19  20
HETATM   20  C3  UNL     1      29.526  11.479  23.114  1.00  0.00     0.020 C 
BRANCH  20  21
HETATM   21  C2  UNL     1      30.728  12.358  22.783  1.00  0.00    -0.003 C 
HETATM   22  C1  UNL     1      30.759  12.576  21.268  1.00  0.00     0.005 C 
ENDBRANCH  20  21
ENDBRANCH  19  20
ENDBRANCH  13  19
ENDBRANCH   1  11
BRANCH   9  23
HETATM   23  C11 UNL     1      35.661   3.312  25.393  1.00  0.00     0.042 A 
HETATM   24  S2  UNL     1      35.813   1.624  25.261  1.00  0.00    -0.049 SA
HETATM   25  S3  UNL     1      36.873   2.196  23.646  1.00  0.00    -0.039 SA
HETATM   26  C12 UNL     1      36.386   3.707  24.289  1.00  0.00     0.099 A 
HETATM   27 CL1  UNL     1      36.788   5.289  23.599  1.00  0.00    -0.074 Cl
ENDBRANCH   9  23
TORSDOF 5
ENDMDL
MODEL 5
REMARK VINA RESULT: -7.128021048      4.392      8.280
REMARK  5 active torsions:
REMARK  status: ('A' for Active; 'I' for Inactive)
REMARK    1  A    between atoms: C2_2  and  C3_3 
REMARK    2  A    between atoms: C3_3  and  C4_4 
REMARK    3  A    between atoms: C4_4  and  N1_5 
REMARK       I    between atoms: C5_7  and  N2_8 
REMARK       I    between atoms: C5_7  and  N3_11 
REMARK    4  A    between atoms: N3_11  and  N4_13 
REMARK    5  A    between atoms: C10_21  and  C11_22 
ROOT
HETATM    1  N4  UNL     1      31.821   7.282  23.966  1.00  0.00    -0.265 N 
ATOM      2  H4  UNL     1      31.972   7.115  22.971  1.00  0.00     0.189 HD
HETATM    3  C7  UNL     1      32.287   6.427  24.797  1.00  0.00     0.165 C 
HETATM    4  N5  UNL     1      32.252   6.362  26.209  1.00  0.00    -0.325 N 
ATOM      5  H5  UNL     1      31.602   6.928  26.756  1.00  0.00     0.169 HD
HETATM    6  C8  UNL     1      33.143   5.493  26.813  1.00  0.00     0.119 C 
HETATM    7  S1  UNL     1      33.253   5.281  28.456  1.00  0.00    -0.059 SA
HETATM    8  C9  UNL     1      34.013   4.747  25.928  1.00  0.00     0.048 C 
HETATM    9  C10 UNL     1      35.123   4.077  26.165  1.00  0.00     0.043 C 
HETATM   10  S4  UNL     1      33.204   4.938  24.313  1.00  0.00    -0.050 SA
ENDROOT
BRANCH   1  11
HETATM   11  N3  UNL     1      31.122   8.425  24.336  1.00  0.00    -0.131 N 
HETATM   12  C5  UNL     1      31.839   9.611  24.592  1.00  0.00     0.688 C 
HETATM   13  N1  UNL     1      31.250  10.740  24.699  1.00  0.00    -0.225 N 
HETATM   14  N2  UNL     1      33.240   9.562  24.735  1.00  0.00    -0.229 N 
ATOM     15  H1  UNL     1      31.801  11.579  24.884  1.00  0.00     0.177 HD
HETATM   16  C6  UNL     1      34.069  10.384  23.895  1.00  0.00     0.165 C 
ATOM     17  H2  UNL     1      33.664   8.947  25.430  1.00  0.00     0.177 HD
ATOM     18  H3  UNL     1      30.106   8.406  24.420  1.00  0.00     0.205 HD
BRANCH  13  19
HETATM   19  C4  UNL     1      29.817  10.848  24.561  1.00  0.00     0.138 C 
BRANCH  19  20
HETATM   20  C3  UNL     1      29.538  11.485  23.202  1.00  0.00     0.020 C 
BRANCH  20  21
HETATM   21  C2  UNL     1      30.774  12.294  22.823  1.00  0.00    -0.003 C 
HETATM   22  C1  UNL     1      30.694  12.621  21.329  1.00  0.00     0.005 C 
ENDBRANCH  20  21
ENDBRANCH  19  20
ENDBRANCH  13  19
ENDBRANCH   1  11
BRANCH   9  23
HETATM   23  C11 UNL     1      35.857   3.382  25.101  1.00  0.00     0.042 A 
HETATM   24  S2  UNL     1      36.917   4.055  23.955  1.00  0.00    -0.049 SA
HETATM   25  S3  UNL     1      36.995   2.119  23.405  1.00  0.00    -0.039 SA
HETATM   26  C12 UNL     1      35.907   2.056  24.727  1.00  0.00     0.099 A 
HETATM   27 CL1  UNL     1      35.127   0.589  25.340  1.00  0.00    -0.074 Cl
ENDBRANCH   9  23
TORSDOF 5
ENDMDL
