MODEL 1
REMARK VINA RESULT: -8.105099023      0.000      0.000
REMARK  8 active torsions:
REMARK  status: ('A' for Active; 'I' for Inactive)
REMARK    1  A    between atoms: C1_2  and  C2_4 
REMARK    2  A    between atoms: C2_4  and  C3_5 
REMARK    3  A    between atoms: C3_5  and  C4_6 
REMARK    4  A    between atoms: C4_6  and  N1_7 
REMARK    5  A    between atoms: C4_6  and  C13_27 
REMARK       I    between atoms: N1_7  and  C5_9 
REMARK    6  A    between atoms: C5_9  and  C6_11 
REMARK    7  A    between atoms: N3_14  and  O4_15 
REMARK    8  A    between atoms: N4_24  and  O5_25 
ROOT
HETATM    1  N1  UNL     1       6.413   7.940  21.895  1.00  0.00    -0.346 N 
ATOM      2  H1  UNL     1       7.288   7.632  22.319  1.00  0.00     0.163 HD
HETATM    3  C5  UNL     1       5.885   7.147  20.879  1.00  0.00     0.289 C 
HETATM    4  O3  UNL     1       4.815   7.469  20.318  1.00  0.00    -0.264 OA
ENDROOT
BRANCH   3   5
HETATM    5  C6  UNL     1       6.557   5.934  20.445  1.00  0.00     0.218 A 
HETATM    6  N2  UNL     1       6.409   4.789  21.162  1.00  0.00    -0.252 N 
HETATM    7  N3  UNL     1       7.010   3.678  20.787  1.00  0.00    -0.160 N 
ATOM      8  H2  UNL     1       5.827   4.789  22.000  1.00  0.00     0.191 HD
HETATM    9  C7  UNL     1       7.786   3.631  19.690  1.00  0.00     0.111 A 
HETATM   10  C8  UNL     1       8.399   2.438  19.336  1.00  0.00     0.055 A 
HETATM   11  C12 UNL     1       7.957   4.777  18.938  1.00  0.00     0.096 A 
HETATM   12  C9  UNL     1       9.195   2.388  18.212  1.00  0.00     0.013 A 
HETATM   13 BR1  UNL     1      10.038   0.739  17.730  1.00  0.00    -0.051 Br
HETATM   14  C10 UNL     1       9.357   3.542  17.468  1.00  0.00     0.021 A 
HETATM   15  C11 UNL     1       8.761   4.734  17.799  1.00  0.00     0.036 A 
HETATM   16  N4  UNL     1       7.335   5.897  19.339  1.00  0.00    -0.199 N 
BRANCH   7  17
HETATM   17  O4  UNL     1       6.868   2.506  21.509  1.00  0.00    -0.267 OA
ATOM     18  H4  UNL     1       7.272   2.402  22.363  1.00  0.00     0.247 HD
ENDBRANCH   7  17
BRANCH  16  19
HETATM   19  O5  UNL     1       7.495   7.038  18.609  1.00  0.00    -0.281 OA
ATOM     20  H5  UNL     1       8.167   7.062  17.938  1.00  0.00     0.245 HD
ENDBRANCH  16  19
ENDBRANCH   3   5
BRANCH   1  21
HETATM   21  C4  UNL     1       5.828   9.168  22.403  1.00  0.00     0.120 C 
BRANCH  21  22
HETATM   22  C3  UNL     1       6.175   9.344  23.865  1.00  0.00     0.040 C 
BRANCH  22  23
HETATM   23  C2  UNL     1       6.742   8.093  24.464  1.00  0.00     0.115 C 
BRANCH  23  24
HETATM   24  C1  UNL     1       8.203   8.209  24.705  1.00  0.00     0.172 C 
HETATM   25  O1  UNL     1       8.968   8.067  23.731  1.00  0.00    -0.648 OA
HETATM   26  O2  UNL     1       8.752   8.463  25.935  1.00  0.00    -0.648 OA
ENDBRANCH  23  24
ENDBRANCH  22  23
ENDBRANCH  21  22
BRANCH  21  27
HETATM   27  C13 UNL     1       6.320  10.351  21.665  1.00  0.00    -0.020 A 
HETATM   28  C14 UNL     1       5.578  10.950  20.671  1.00  0.00     0.012 A 
HETATM   29  C15 UNL     1       6.056  12.058  19.992  1.00  0.00     0.018 A 
HETATM   30  C16 UNL     1       7.289  12.591  20.293  1.00  0.00     0.087 A 
HETATM   31  N5  UNL     1       8.006  11.995  21.268  1.00  0.00    -0.375 N 
HETATM   32  C17 UNL     1       7.546  10.905  21.943  1.00  0.00     0.096 A 
ATOM     33  H5  UNL     1       8.923  12.373  21.509  1.00  0.00     0.164 HD
ENDBRANCH  21  27
ENDBRANCH   1  21
TORSDOF 8
ENDMDL
MODEL 2
REMARK VINA RESULT: -7.889048898      2.748      4.275
REMARK  8 active torsions:
REMARK  status: ('A' for Active; 'I' for Inactive)
REMARK    1  A    between atoms: C1_2  and  C2_4 
REMARK    2  A    between atoms: C2_4  and  C3_5 
REMARK    3  A    between atoms: C3_5  and  C4_6 
REMARK    4  A    between atoms: C4_6  and  N1_7 
REMARK    5  A    between atoms: C4_6  and  C13_27 
REMARK       I    between atoms: N1_7  and  C5_9 
REMARK    6  A    between atoms: C5_9  and  C6_11 
REMARK    7  A    between atoms: N3_14  and  O4_15 
REMARK    8  A    between atoms: N4_24  and  O5_25 
ROOT
HETATM    1  N1  UNL     1       8.082   8.073  22.040  1.00  0.00    -0.346 N 
ATOM      2  H1  UNL     1       7.419   7.525  22.587  1.00  0.00     0.163 HD
HETATM    3  C5  UNL     1       8.311   7.668  20.727  1.00  0.00     0.289 C 
HETATM    4  O3  UNL     1       9.113   8.298  20.003  1.00  0.00    -0.264 OA
ENDROOT
BRANCH   3   5
HETATM    5  C6  UNL     1       7.632   6.513  20.167  1.00  0.00     0.218 A 
HETATM    6  N2  UNL     1       7.564   5.359  20.882  1.00  0.00    -0.252 N 
HETATM    7  N3  UNL     1       6.954   4.299  20.392  1.00  0.00    -0.160 N 
ATOM      8  H2  UNL     1       7.991   5.312  21.807  1.00  0.00     0.191 HD
HETATM    9  C7  UNL     1       6.378   4.315  19.178  1.00  0.00     0.111 A 
HETATM   10  C8  UNL     1       5.747   3.173  18.705  1.00  0.00     0.055 A 
HETATM   11  C12 UNL     1       6.427   5.472  18.425  1.00  0.00     0.096 A 
HETATM   12  C9  UNL     1       5.155   3.187  17.460  1.00  0.00     0.013 A 
HETATM   13 BR1  UNL     1       4.289   1.608  16.814  1.00  0.00    -0.051 Br
HETATM   14  C10 UNL     1       5.212   4.351  16.717  1.00  0.00     0.021 A 
HETATM   15  C11 UNL     1       5.831   5.493  17.164  1.00  0.00     0.036 A 
HETATM   16  N4  UNL     1       7.055   6.539  18.943  1.00  0.00    -0.199 N 
BRANCH   7  17
HETATM   17  O4  UNL     1       6.879   3.118  21.110  1.00  0.00    -0.267 OA
ATOM     18  H4  UNL     1       6.257   2.439  20.878  1.00  0.00     0.247 HD
ENDBRANCH   7  17
BRANCH  16  19
HETATM   19  O5  UNL     1       7.114   7.689  18.212  1.00  0.00    -0.281 OA
ATOM     20  H5  UNL     1       7.650   7.706  17.428  1.00  0.00     0.245 HD
ENDBRANCH  16  19
ENDBRANCH   3   5
BRANCH   1  21
HETATM   21  C4  UNL     1       8.705   9.207  22.698  1.00  0.00     0.120 C 
BRANCH  21  22
HETATM   22  C3  UNL     1       7.676  10.284  22.967  1.00  0.00     0.040 C 
BRANCH  22  23
HETATM   23  C2  UNL     1       7.086  10.826  21.701  1.00  0.00     0.115 C 
BRANCH  23  24
HETATM   24  C1  UNL     1       8.002  11.782  21.029  1.00  0.00     0.172 C 
HETATM   25  O1  UNL     1       8.242  12.862  21.604  1.00  0.00    -0.648 OA
HETATM   26  O2  UNL     1       8.595  11.542  19.817  1.00  0.00    -0.648 OA
ENDBRANCH  23  24
ENDBRANCH  22  23
ENDBRANCH  21  22
BRANCH  21  27
HETATM   27  C13 UNL     1       9.315   8.819  23.988  1.00  0.00    -0.020 A 
HETATM   28  C14 UNL     1      10.639   9.073  24.274  1.00  0.00     0.012 A 
HETATM   29  C15 UNL     1      11.191   8.702  25.488  1.00  0.00     0.018 A 
HETATM   30  C16 UNL     1      10.430   8.068  26.445  1.00  0.00     0.087 A 
HETATM   31  N5  UNL     1       9.135   7.825  26.152  1.00  0.00    -0.375 N 
HETATM   32  C17 UNL     1       8.581   8.185  24.962  1.00  0.00     0.096 A 
ATOM     33  H5  UNL     1       8.553   7.356  26.846  1.00  0.00     0.164 HD
ENDBRANCH  21  27
ENDBRANCH   1  21
TORSDOF 8
ENDMDL
MODEL 3
REMARK VINA RESULT: -7.847375527      2.687      4.558
REMARK  8 active torsions:
REMARK  status: ('A' for Active; 'I' for Inactive)
REMARK    1  A    between atoms: C1_2  and  C2_4 
REMARK    2  A    between atoms: C2_4  and  C3_5 
REMARK    3  A    between atoms: C3_5  and  C4_6 
REMARK    4  A    between atoms: C4_6  and  N1_7 
REMARK    5  A    between atoms: C4_6  and  C13_27 
REMARK       I    between atoms: N1_7  and  C5_9 
REMARK    6  A    between atoms: C5_9  and  C6_11 
REMARK    7  A    between atoms: N3_14  and  O4_15 
REMARK    8  A    between atoms: N4_24  and  O5_25 
ROOT
HETATM    1  N1  UNL     1       7.942   8.506  21.570  1.00  0.00    -0.346 N 
ATOM      2  H1  UNL     1       7.187   7.942  21.960  1.00  0.00     0.163 HD
HETATM    3  C5  UNL     1       8.345   8.216  20.268  1.00  0.00     0.289 C 
HETATM    4  O3  UNL     1       9.265   8.870  19.731  1.00  0.00    -0.264 OA
ENDROOT
BRANCH   3   5
HETATM    5  C6  UNL     1       7.713   7.153  19.504  1.00  0.00     0.218 A 
HETATM    6  N2  UNL     1       7.271   7.401  18.243  1.00  0.00    -0.252 N 
HETATM    7  N3  UNL     1       6.695   6.452  17.534  1.00  0.00    -0.160 N 
ATOM      8  H2  UNL     1       7.386   8.331  17.842  1.00  0.00     0.191 HD
HETATM    9  C7  UNL     1       6.522   5.212  18.023  1.00  0.00     0.111 A 
HETATM   10  C8  UNL     1       5.909   4.246  17.238  1.00  0.00     0.055 A 
HETATM   11  C12 UNL     1       6.961   4.926  19.301  1.00  0.00     0.096 A 
HETATM   12  C9  UNL     1       5.732   2.973  17.737  1.00  0.00     0.013 A 
HETATM   13 BR1  UNL     1       4.884   1.647  16.649  1.00  0.00    -0.051 Br
HETATM   14  C10 UNL     1       6.175   2.700  19.018  1.00  0.00     0.021 A 
HETATM   15  C11 UNL     1       6.785   3.640  19.813  1.00  0.00     0.036 A 
HETATM   16  N4  UNL     1       7.545   5.907  20.005  1.00  0.00    -0.199 N 
BRANCH   7  17
HETATM   17  O4  UNL     1       6.239   6.692  16.250  1.00  0.00    -0.267 OA
ATOM     18  H4  UNL     1       6.125   5.984  15.627  1.00  0.00     0.247 HD
ENDBRANCH   7  17
BRANCH  16  19
HETATM   19  O5  UNL     1       7.982   5.642  21.270  1.00  0.00    -0.281 OA
ATOM     20  H5  UNL     1       8.908   5.737  21.464  1.00  0.00     0.245 HD
ENDBRANCH  16  19
ENDBRANCH   3   5
BRANCH   1  21
HETATM   21  C4  UNL     1       8.503   9.540  22.420  1.00  0.00     0.120 C 
BRANCH  21  22
HETATM   22  C3  UNL     1       7.455  10.587  22.728  1.00  0.00     0.040 C 
BRANCH  22  23
HETATM   23  C2  UNL     1       6.965  11.274  21.490  1.00  0.00     0.115 C 
BRANCH  23  24
HETATM   24  C1  UNL     1       8.003  12.160  20.903  1.00  0.00     0.172 C 
HETATM   25  O1  UNL     1       8.336  13.174  21.548  1.00  0.00    -0.648 OA
HETATM   26  O2  UNL     1       8.609  11.924  19.697  1.00  0.00    -0.648 OA
ENDBRANCH  23  24
ENDBRANCH  22  23
ENDBRANCH  21  22
BRANCH  21  27
HETATM   27  C13 UNL     1       8.993   8.986  23.700  1.00  0.00    -0.020 A 
HETATM   28  C14 UNL     1      10.304   9.124  24.101  1.00  0.00     0.012 A 
HETATM   29  C15 UNL     1      10.742   8.598  25.304  1.00  0.00     0.018 A 
HETATM   30  C16 UNL     1       9.878   7.919  26.134  1.00  0.00     0.087 A 
HETATM   31  N5  UNL     1       8.597   7.790  25.730  1.00  0.00    -0.375 N 
HETATM   32  C17 UNL     1       8.154   8.303  24.549  1.00  0.00     0.096 A 
ATOM     33  H5  UNL     1       7.939   7.291  26.328  1.00  0.00     0.164 HD
ENDBRANCH  21  27
ENDBRANCH   1  21
TORSDOF 8
ENDMDL
MODEL 4
REMARK VINA RESULT: -7.735862807      4.336      6.688
REMARK  8 active torsions:
REMARK  status: ('A' for Active; 'I' for Inactive)
REMARK    1  A    between atoms: C1_2  and  C2_4 
REMARK    2  A    between atoms: C2_4  and  C3_5 
REMARK    3  A    between atoms: C3_5  and  C4_6 
REMARK    4  A    between atoms: C4_6  and  N1_7 
REMARK    5  A    between atoms: C4_6  and  C13_27 
REMARK       I    between atoms: N1_7  and  C5_9 
REMARK    6  A    between atoms: C5_9  and  C6_11 
REMARK    7  A    between atoms: N3_14  and  O4_15 
REMARK    8  A    between atoms: N4_24  and  O5_25 
ROOT
HETATM    1  N1  UNL     1       6.880   9.860  21.342  1.00  0.00    -0.346 N 
ATOM      2  H1  UNL     1       7.744   9.665  20.837  1.00  0.00     0.163 HD
HETATM    3  C5  UNL     1       6.921   9.765  22.731  1.00  0.00     0.289 C 
HETATM    4  O3  UNL     1       5.895   9.991  23.410  1.00  0.00    -0.264 OA
ENDROOT
BRANCH   3   5
HETATM    5  C6  UNL     1       8.145   9.402  23.425  1.00  0.00     0.218 A 
HETATM    6  N2  UNL     1       9.348   9.711  22.874  1.00  0.00    -0.252 N 
HETATM    7  N3  UNL     1      10.470   9.391  23.485  1.00  0.00    -0.160 N 
ATOM      8  H2  UNL     1       9.383  10.195  21.977  1.00  0.00     0.191 HD
HETATM    9  C7  UNL     1      10.472   8.753  24.668  1.00  0.00     0.111 A 
HETATM   10  C8  UNL     1      11.679   8.436  25.273  1.00  0.00     0.055 A 
HETATM   11  C12 UNL     1       9.266   8.425  25.257  1.00  0.00     0.096 A 
HETATM   12  C9  UNL     1      11.683   7.782  26.487  1.00  0.00     0.013 A 
HETATM   13 BR1  UNL     1      13.353   7.347  27.314  1.00  0.00    -0.051 Br
HETATM   14  C10 UNL     1      10.470   7.459  27.065  1.00  0.00     0.021 A 
HETATM   15  C11 UNL     1       9.262   7.763  26.485  1.00  0.00     0.036 A 
HETATM   16  N4  UNL     1       8.136   8.760  24.616  1.00  0.00    -0.199 N 
BRANCH   7  17
HETATM   17  O4  UNL     1      11.702   9.699  22.933  1.00  0.00    -0.267 OA
ATOM     18  H4  UNL     1      12.126  10.530  23.110  1.00  0.00     0.247 HD
ENDBRANCH   7  17
BRANCH  16  19
HETATM   19  O5  UNL     1       6.937   8.443  25.183  1.00  0.00    -0.281 OA
ATOM     20  H5  UNL     1       6.768   7.539  25.423  1.00  0.00     0.245 HD
ENDBRANCH  16  19
ENDBRANCH   3   5
BRANCH   1  21
HETATM   21  C4  UNL     1       5.715  10.211  20.550  1.00  0.00     0.120 C 
BRANCH  21  22
HETATM   22  C3  UNL     1       5.756  11.679  20.186  1.00  0.00     0.040 C 
BRANCH  22  23
HETATM   23  C2  UNL     1       7.123  12.114  19.754  1.00  0.00     0.115 C 
BRANCH  23  24
HETATM   24  C1  UNL     1       7.733  13.062  20.721  1.00  0.00     0.172 C 
HETATM   25  O1  UNL     1       8.352  12.586  21.692  1.00  0.00    -0.648 OA
HETATM   26  O2  UNL     1       7.651  14.425  20.603  1.00  0.00    -0.648 OA
ENDBRANCH  23  24
ENDBRANCH  22  23
ENDBRANCH  21  22
BRANCH  21  27
HETATM   27  C13 UNL     1       5.651   9.426  19.299  1.00  0.00    -0.020 A 
HETATM   28  C14 UNL     1       4.649   9.613  18.371  1.00  0.00     0.012 A 
HETATM   29  C15 UNL     1       4.608   8.868  17.205  1.00  0.00     0.018 A 
HETATM   30  C16 UNL     1       5.569   7.917  16.941  1.00  0.00     0.087 A 
HETATM   31  N5  UNL     1       6.544   7.743  17.858  1.00  0.00    -0.375 N 
HETATM   32  C17 UNL     1       6.595   8.470  19.008  1.00  0.00     0.096 A 
ATOM     33  H5  UNL     1       7.266   7.045  17.684  1.00  0.00     0.164 HD
ENDBRANCH  21  27
ENDBRANCH   1  21
TORSDOF 8
ENDMDL
MODEL 5
REMARK VINA RESULT: -7.684794069      2.560      3.877
REMARK  8 active torsions:
REMARK  status: ('A' for Active; 'I' for Inactive)
REMARK    1  A    between atoms: C1_2  and  C2_4 
REMARK    2  A    between atoms: C2_4  and  C3_5 
REMARK    3  A    between atoms: C3_5  and  C4_6 
REMARK    4  A    between atoms: C4_6  and  N1_7 
REMARK    5  A    between atoms: C4_6  and  C13_27 
REMARK       I    between atoms: N1_7  and  C5_9 
REMARK    6  A    between atoms: C5_9  and  C6_11 
REMARK    7  A    between atoms: N3_14  and  O4_15 
REMARK    8  A    between atoms: N4_24  and  O5_25 
ROOT
HETATM    1  N1  UNL     1       7.765   8.036  22.605  1.00  0.00    -0.346 N 
ATOM      2  H1  UNL     1       7.157   7.311  22.985  1.00  0.00     0.163 HD
HETATM    3  C5  UNL     1       8.226   7.862  21.302  1.00  0.00     0.289 C 
HETATM    4  O3  UNL     1       8.975   8.715  20.778  1.00  0.00    -0.264 OA
ENDROOT
BRANCH   3   5
HETATM    5  C6  UNL     1       7.854   6.693  20.523  1.00  0.00     0.218 A 
HETATM    6  N2  UNL     1       7.830   5.469  21.113  1.00  0.00    -0.252 N 
HETATM    7  N3  UNL     1       7.496   4.397  20.424  1.00  0.00    -0.160 N 
ATOM      8  H2  UNL     1       8.073   5.380  22.099  1.00  0.00     0.191 HD
HETATM    9  C7  UNL     1       7.168   4.468  19.123  1.00  0.00     0.111 A 
HETATM   10  C8  UNL     1       6.824   3.310  18.440  1.00  0.00     0.055 A 
HETATM   11  C12 UNL     1       7.181   5.697  18.492  1.00  0.00     0.096 A 
HETATM   12  C9  UNL     1       6.487   3.381  17.105  1.00  0.00     0.013 A 
HETATM   13 BR1  UNL     1       6.015   1.779  16.169  1.00  0.00    -0.051 Br
HETATM   14  C10 UNL     1       6.504   4.617  16.486  1.00  0.00     0.021 A 
HETATM   15  C11 UNL     1       6.841   5.776  17.141  1.00  0.00     0.036 A 
HETATM   16  N4  UNL     1       7.524   6.775  19.213  1.00  0.00    -0.199 N 
BRANCH   7  17
HETATM   17  O4  UNL     1       7.469   3.145  21.014  1.00  0.00    -0.267 OA
ATOM     18  H4  UNL     1       6.659   2.770  21.337  1.00  0.00     0.247 HD
ENDBRANCH   7  17
BRANCH  16  19
HETATM   19  O5  UNL     1       7.544   7.996  18.605  1.00  0.00    -0.281 OA
ATOM     20  H5  UNL     1       7.444   8.040  17.661  1.00  0.00     0.245 HD
ENDBRANCH  16  19
ENDBRANCH   3   5
BRANCH   1  21
HETATM   21  C4  UNL     1       8.074   9.160  23.470  1.00  0.00     0.120 C 
BRANCH  21  22
HETATM   22  C3  UNL     1       6.813   9.669  24.134  1.00  0.00     0.040 C 
BRANCH  22  23
HETATM   23  C2  UNL     1       5.579   9.240  23.401  1.00  0.00     0.115 C 
BRANCH  23  24
HETATM   24  C1  UNL     1       4.843   8.178  24.134  1.00  0.00     0.172 C 
HETATM   25  O1  UNL     1       5.108   6.991  23.862  1.00  0.00    -0.648 OA
HETATM   26  O2  UNL     1       3.892   8.433  25.087  1.00  0.00    -0.648 OA
ENDBRANCH  23  24
ENDBRANCH  22  23
ENDBRANCH  21  22
BRANCH  21  27
HETATM   27  C13 UNL     1       9.034   8.783  24.529  1.00  0.00    -0.020 A 
HETATM   28  C14 UNL     1      10.394   8.934  24.369  1.00  0.00     0.012 A 
HETATM   29  C15 UNL     1      11.276   8.576  25.373  1.00  0.00     0.018 A 
HETATM   30  C16 UNL     1      10.817   8.056  26.563  1.00  0.00     0.087 A 
HETATM   31  N5  UNL     1       9.483   7.912  26.708  1.00  0.00    -0.375 N 
HETATM   32  C17 UNL     1       8.606   8.261  25.727  1.00  0.00     0.096 A 
ATOM     33  H5  UNL     1       9.120   7.528  27.580  1.00  0.00     0.164 HD
ENDBRANCH  21  27
ENDBRANCH   1  21
TORSDOF 8
ENDMDL
