MODEL 1
REMARK VINA RESULT: -7.669708571      0.000      0.000
REMARK  7 active torsions:
REMARK  status: ('A' for Active; 'I' for Inactive)
REMARK    1  A    between atoms: O1_2  and  C2_3 
REMARK    2  A    between atoms: C2_3  and  C3_4 
REMARK    3  A    between atoms: C3_4  and  N1_5 
REMARK       I    between atoms: N1_5  and  C5_7 
REMARK    4  A    between atoms: C5_7  and  C6_9 
REMARK    5  A    between atoms: C6_9  and  C7_10 
REMARK    6  A    between atoms: C7_10  and  C8_11 
REMARK       I    between atoms: C8_11  and  N2_13 
REMARK    7  A    between atoms: N2_13  and  C9_15 
ROOT
HETATM    1  C9  UNL     1       6.539   9.472  24.027  1.00  0.00     0.685 A 
HETATM    2  N3  UNL     1       7.240   8.867  24.980  1.00  0.00    -0.190 N 
ATOM      3  H3  UNL     1       6.725   8.444  25.752  1.00  0.00     0.184 HD
HETATM    4  C10 UNL     1       8.581   8.772  24.996  1.00  0.00     0.077 A 
HETATM    5  C11 UNL     1       9.268   9.352  23.937  1.00  0.00     0.059 A 
HETATM    6  C12 UNL     1       8.538   9.980  22.948  1.00  0.00     0.124 A 
HETATM    7  N4  UNL     1       7.190  10.040  22.991  1.00  0.00    -0.201 N 
ATOM      8  H4  UNL     1       6.670  10.508  22.249  1.00  0.00     0.183 HD
HETATM    9  C13 UNL     1      10.683   9.108  24.200  1.00  0.00     0.198 A 
HETATM   10  O4  UNL     1      11.631   9.484  23.458  1.00  0.00    -0.286 OA
HETATM   11  C14 UNL     1      10.833   8.365  25.447  1.00  0.00     0.048 A 
HETATM   12  C15 UNL     1      11.898   7.867  26.179  1.00  0.00     0.041 A 
HETATM   13 BR1  UNL     1      13.651   8.149  25.513  1.00  0.00    -0.049 Br
HETATM   14  C16 UNL     1      11.738   7.180  27.365  1.00  0.00     0.107 A 
HETATM   15  N5  UNL     1      10.464   7.004  27.801  1.00  0.00    -0.373 N 
ATOM     16  H5  UNL     1      10.300   6.501  28.673  1.00  0.00     0.164 HD
HETATM   17  C17 UNL     1       9.410   7.480  27.106  1.00  0.00     0.102 A 
HETATM   18  C18 UNL     1       9.552   8.168  25.919  1.00  0.00     0.023 A 
ENDROOT
BRANCH   1  19
HETATM   19  N2  UNL     1       5.250   9.562  24.012  1.00  0.00    -0.160 N 
HETATM   20  C8  UNL     1       4.546   8.411  23.508  1.00  0.00     0.236 C 
HETATM   21  O3  UNL     1       4.931   7.281  23.840  1.00  0.00    -0.273 OA
ATOM     22  H2  UNL     1       4.762  10.396  24.338  1.00  0.00     0.187 HD
BRANCH  20  23
HETATM   23  C7  UNL     1       3.380   8.650  22.605  1.00  0.00     0.113 C 
BRANCH  23  24
HETATM   24  C6  UNL     1       3.858   8.488  21.200  1.00  0.00     0.112 C 
BRANCH  24  25
HETATM   25  C5  UNL     1       4.696   9.594  20.724  1.00  0.00     0.219 C 
HETATM   26  N1  UNL     1       5.680   9.334  19.738  1.00  0.00    -0.354 N 
HETATM   27  C4  UNL     1       5.821   7.987  19.238  1.00  0.00     0.152 C 
HETATM   28  O2  UNL     1       4.539  10.778  21.195  1.00  0.00    -0.273 OA
BRANCH  26  29
HETATM   29  C3  UNL     1       6.551  10.367  19.211  1.00  0.00     0.151 C 
BRANCH  29  30
HETATM   30  C2  UNL     1       8.011   9.976  19.303  1.00  0.00     0.186 C 
BRANCH  30  31
HETATM   31  O1  UNL     1       8.742  11.094  19.641  1.00  0.00    -0.394 OA
HETATM   32  C1  UNL     1       7.845  12.139  19.941  1.00  0.00     0.201 C 
ENDBRANCH  30  31
ENDBRANCH  29  30
ENDBRANCH  26  29
ENDBRANCH  24  25
ENDBRANCH  23  24
ENDBRANCH  20  23
ENDBRANCH   1  19
TORSDOF 7
ENDMDL
MODEL 2
REMARK VINA RESULT: -7.383997684      4.849      8.360
REMARK  7 active torsions:
REMARK  status: ('A' for Active; 'I' for Inactive)
REMARK    1  A    between atoms: O1_2  and  C2_3 
REMARK    2  A    between atoms: C2_3  and  C3_4 
REMARK    3  A    between atoms: C3_4  and  N1_5 
REMARK       I    between atoms: N1_5  and  C5_7 
REMARK    4  A    between atoms: C5_7  and  C6_9 
REMARK    5  A    between atoms: C6_9  and  C7_10 
REMARK    6  A    between atoms: C7_10  and  C8_11 
REMARK       I    between atoms: C8_11  and  N2_13 
REMARK    7  A    between atoms: N2_13  and  C9_15 
ROOT
HETATM    1  C9  UNL     1       8.218   7.337  19.776  1.00  0.00     0.685 A 
HETATM    2  N3  UNL     1       8.824   6.242  19.328  1.00  0.00    -0.190 N 
ATOM      3  H3  UNL     1       9.805   6.108  19.573  1.00  0.00     0.184 HD
HETATM    4  C10 UNL     1       8.232   5.299  18.574  1.00  0.00     0.077 A 
HETATM    5  C11 UNL     1       6.896   5.496  18.249  1.00  0.00     0.059 A 
HETATM    6  C12 UNL     1       6.269   6.634  18.716  1.00  0.00     0.124 A 
HETATM    7  N4  UNL     1       6.921   7.544  19.470  1.00  0.00    -0.201 N 
ATOM      8  H4  UNL     1       6.438   8.378  19.806  1.00  0.00     0.183 HD
HETATM    9  C13 UNL     1       6.511   4.344  17.439  1.00  0.00     0.198 A 
HETATM   10  O4  UNL     1       5.363   4.157  16.950  1.00  0.00    -0.286 OA
HETATM   11  C14 UNL     1       7.650   3.445  17.283  1.00  0.00     0.048 A 
HETATM   12  C15 UNL     1       7.876   2.238  16.643  1.00  0.00     0.041 A 
HETATM   13 BR1  UNL     1       6.438   1.444  15.697  1.00  0.00    -0.049 Br
HETATM   14  C16 UNL     1       9.096   1.595  16.664  1.00  0.00     0.107 A 
HETATM   15  N5  UNL     1      10.095   2.204  17.355  1.00  0.00    -0.373 N 
ATOM     16  H5  UNL     1      11.014   1.762  17.397  1.00  0.00     0.164 HD
HETATM   17  C17 UNL     1       9.899   3.379  17.987  1.00  0.00     0.102 A 
HETATM   18  C18 UNL     1       8.687   4.036  17.976  1.00  0.00     0.023 A 
ENDROOT
BRANCH   1  19
HETATM   19  N2  UNL     1       8.787   8.243  20.501  1.00  0.00    -0.160 N 
HETATM   20  C8  UNL     1       8.333   8.332  21.865  1.00  0.00     0.236 C 
HETATM   21  O3  UNL     1       8.131   7.287  22.498  1.00  0.00    -0.273 OA
ATOM     22  H2  UNL     1       9.514   8.856  20.130  1.00  0.00     0.187 HD
BRANCH  20  23
HETATM   23  C7  UNL     1       8.131   9.696  22.442  1.00  0.00     0.113 C 
BRANCH  23  24
HETATM   24  C6  UNL     1       8.423   9.612  23.904  1.00  0.00     0.112 C 
BRANCH  24  25
HETATM   25  C5  UNL     1       9.845   9.434  24.219  1.00  0.00     0.219 C 
HETATM   26  N1  UNL     1      10.204   8.643  25.338  1.00  0.00    -0.354 N 
HETATM   27  C4  UNL     1       9.156   8.040  26.126  1.00  0.00     0.152 C 
HETATM   28  O2  UNL     1      10.746   9.986  23.492  1.00  0.00    -0.273 OA
BRANCH  26  29
HETATM   29  C3  UNL     1      11.584   8.413  25.721  1.00  0.00     0.151 C 
BRANCH  29  30
HETATM   30  C2  UNL     1      11.692   7.453  26.888  1.00  0.00     0.186 C 
BRANCH  30  31
HETATM   31  O1  UNL     1      13.020   7.346  27.243  1.00  0.00    -0.394 OA
HETATM   32  C1  UNL     1      13.809   7.660  26.118  1.00  0.00     0.201 C 
ENDBRANCH  30  31
ENDBRANCH  29  30
ENDBRANCH  26  29
ENDBRANCH  24  25
ENDBRANCH  23  24
ENDBRANCH  20  23
ENDBRANCH   1  19
TORSDOF 7
ENDMDL
MODEL 3
REMARK VINA RESULT: -7.355817366      1.570      2.114
REMARK  7 active torsions:
REMARK  status: ('A' for Active; 'I' for Inactive)
REMARK    1  A    between atoms: O1_2  and  C2_3 
REMARK    2  A    between atoms: C2_3  and  C3_4 
REMARK    3  A    between atoms: C3_4  and  N1_5 
REMARK       I    between atoms: N1_5  and  C5_7 
REMARK    4  A    between atoms: C5_7  and  C6_9 
REMARK    5  A    between atoms: C6_9  and  C7_10 
REMARK    6  A    between atoms: C7_10  and  C8_11 
REMARK       I    between atoms: C8_11  and  N2_13 
REMARK    7  A    between atoms: N2_13  and  C9_15 
ROOT
HETATM    1  C9  UNL     1       6.418   9.679  23.649  1.00  0.00     0.685 A 
HETATM    2  N3  UNL     1       7.045   9.084  24.658  1.00  0.00    -0.190 N 
ATOM      3  H3  UNL     1       6.474   8.713  25.419  1.00  0.00     0.184 HD
HETATM    4  C10 UNL     1       8.378   8.936  24.746  1.00  0.00     0.077 A 
HETATM    5  C11 UNL     1       9.140   9.445  23.703  1.00  0.00     0.059 A 
HETATM    6  C12 UNL     1       8.488  10.064  22.656  1.00  0.00     0.124 A 
HETATM    7  N4  UNL     1       7.143  10.180  22.627  1.00  0.00    -0.201 N 
ATOM      8  H4  UNL     1       6.680  10.640  21.843  1.00  0.00     0.183 HD
HETATM    9  C13 UNL     1      10.529   9.154  24.047  1.00  0.00     0.198 A 
HETATM   10  O4  UNL     1      11.527   9.462  23.340  1.00  0.00    -0.286 OA
HETATM   11  C14 UNL     1      10.585   8.454  25.327  1.00  0.00     0.048 A 
HETATM   12  C15 UNL     1      11.591   7.942  26.129  1.00  0.00     0.041 A 
HETATM   13 BR1  UNL     1      13.385   8.126  25.543  1.00  0.00    -0.049 Br
HETATM   14  C16 UNL     1      11.343   7.309  27.330  1.00  0.00     0.107 A 
HETATM   15  N5  UNL     1      10.043   7.202  27.706  1.00  0.00    -0.373 N 
ATOM     16  H5  UNL     1       9.815   6.740  28.587  1.00  0.00     0.164 HD
HETATM   17  C17 UNL     1       9.046   7.693  26.942  1.00  0.00     0.102 A 
HETATM   18  C18 UNL     1       9.275   8.328  25.740  1.00  0.00     0.023 A 
ENDROOT
BRANCH   1  19
HETATM   19  N2  UNL     1       5.137   9.821  23.566  1.00  0.00    -0.160 N 
HETATM   20  C8  UNL     1       4.383   8.610  23.365  1.00  0.00     0.236 C 
HETATM   21  O3  UNL     1       4.699   7.596  24.001  1.00  0.00    -0.273 OA
ATOM     22  H2  UNL     1       4.687  10.734  23.638  1.00  0.00     0.187 HD
BRANCH  20  23
HETATM   23  C7  UNL     1       3.250   8.650  22.390  1.00  0.00     0.113 C 
BRANCH  23  24
HETATM   24  C6  UNL     1       3.642   7.820  21.212  1.00  0.00     0.112 C 
BRANCH  24  25
HETATM   25  C5  UNL     1       4.928   8.201  20.616  1.00  0.00     0.219 C 
HETATM   26  N1  UNL     1       5.926   7.210  20.448  1.00  0.00    -0.354 N 
HETATM   27  C4  UNL     1       5.639   5.860  20.870  1.00  0.00     0.152 C 
HETATM   28  O2  UNL     1       5.142   9.414  20.253  1.00  0.00    -0.273 OA
BRANCH  26  29
HETATM   29  C3  UNL     1       7.223   7.498  19.867  1.00  0.00     0.151 C 
BRANCH  29  30
HETATM   30  C2  UNL     1       7.676   6.400  18.927  1.00  0.00     0.186 C 
BRANCH  30  31
HETATM   31  O1  UNL     1       7.036   6.570  17.717  1.00  0.00    -0.394 OA
HETATM   32  C1  UNL     1       7.005   5.328  17.051  1.00  0.00     0.201 C 
ENDBRANCH  30  31
ENDBRANCH  29  30
ENDBRANCH  26  29
ENDBRANCH  24  25
ENDBRANCH  23  24
ENDBRANCH  20  23
ENDBRANCH   1  19
TORSDOF 7
ENDMDL
MODEL 4
REMARK VINA RESULT: -7.297252934      4.176      8.036
REMARK  7 active torsions:
REMARK  status: ('A' for Active; 'I' for Inactive)
REMARK    1  A    between atoms: O1_2  and  C2_3 
REMARK    2  A    between atoms: C2_3  and  C3_4 
REMARK    3  A    between atoms: C3_4  and  N1_5 
REMARK       I    between atoms: N1_5  and  C5_7 
REMARK    4  A    between atoms: C5_7  and  C6_9 
REMARK    5  A    between atoms: C6_9  and  C7_10 
REMARK    6  A    between atoms: C7_10  and  C8_11 
REMARK       I    between atoms: C8_11  and  N2_13 
REMARK    7  A    between atoms: N2_13  and  C9_15 
ROOT
HETATM    1  C9  UNL     1       7.187   8.106  19.596  1.00  0.00     0.685 A 
HETATM    2  N3  UNL     1       6.992   7.491  18.435  1.00  0.00    -0.190 N 
ATOM      3  H3  UNL     1       6.563   8.027  17.680  1.00  0.00     0.184 HD
HETATM    4  C10 UNL     1       7.321   6.212  18.186  1.00  0.00     0.077 A 
HETATM    5  C11 UNL     1       7.904   5.496  19.223  1.00  0.00     0.059 A 
HETATM    6  C12 UNL     1       8.106   6.137  20.429  1.00  0.00     0.124 A 
HETATM    7  N4  UNL     1       7.753   7.426  20.615  1.00  0.00    -0.201 N 
ATOM      8  H4  UNL     1       7.911   7.881  21.514  1.00  0.00     0.183 HD
HETATM    9  C13 UNL     1       8.155   4.160  18.691  1.00  0.00     0.198 A 
HETATM   10  O4  UNL     1       8.681   3.213  19.338  1.00  0.00    -0.286 OA
HETATM   11  C14 UNL     1       7.708   4.087  17.304  1.00  0.00     0.048 A 
HETATM   12  C15 UNL     1       7.690   3.111  16.322  1.00  0.00     0.041 A 
HETATM   13 BR1  UNL     1       8.386   1.400  16.747  1.00  0.00    -0.049 Br
HETATM   14  C16 UNL     1       7.189   3.331  15.055  1.00  0.00     0.107 A 
HETATM   15  N5  UNL     1       6.701   4.573  14.799  1.00  0.00    -0.373 N 
ATOM     16  H5  UNL     1       6.321   4.779  13.875  1.00  0.00     0.164 HD
HETATM   17  C17 UNL     1       6.707   5.540  15.740  1.00  0.00     0.102 A 
HETATM   18  C18 UNL     1       7.204   5.337  17.010  1.00  0.00     0.023 A 
ENDROOT
BRANCH   1  19
HETATM   19  N2  UNL     1       6.871   9.336  19.835  1.00  0.00    -0.160 N 
HETATM   20  C8  UNL     1       7.913  10.154  20.400  1.00  0.00     0.236 C 
HETATM   21  O3  UNL     1       9.064  10.047  19.958  1.00  0.00    -0.273 OA
ATOM     22  H2  UNL     1       5.941   9.705  19.634  1.00  0.00     0.187 HD
BRANCH  20  23
HETATM   23  C7  UNL     1       7.538  11.096  21.499  1.00  0.00     0.113 C 
BRANCH  23  24
HETATM   24  C6  UNL     1       7.326  10.284  22.734  1.00  0.00     0.112 C 
BRANCH  24  25
HETATM   25  C5  UNL     1       8.551  10.040  23.504  1.00  0.00     0.219 C 
HETATM   26  N1  UNL     1       8.653   8.852  24.270  1.00  0.00    -0.354 N 
HETATM   27  C4  UNL     1       7.548   7.925  24.262  1.00  0.00     0.152 C 
HETATM   28  O2  UNL     1       9.512  10.890  23.484  1.00  0.00    -0.273 OA
BRANCH  26  29
HETATM   29  C3  UNL     1       9.827   8.531  25.060  1.00  0.00     0.151 C 
BRANCH  29  30
HETATM   30  C2  UNL     1       9.464   8.164  26.484  1.00  0.00     0.186 C 
BRANCH  30  31
HETATM   31  O1  UNL     1      10.202   7.058  26.851  1.00  0.00    -0.394 OA
HETATM   32  C1  UNL     1      11.565   7.415  26.859  1.00  0.00     0.201 C 
ENDBRANCH  30  31
ENDBRANCH  29  30
ENDBRANCH  26  29
ENDBRANCH  24  25
ENDBRANCH  23  24
ENDBRANCH  20  23
ENDBRANCH   1  19
TORSDOF 7
ENDMDL
MODEL 5
REMARK VINA RESULT: -7.190105332      1.394      1.695
REMARK  7 active torsions:
REMARK  status: ('A' for Active; 'I' for Inactive)
REMARK    1  A    between atoms: O1_2  and  C2_3 
REMARK    2  A    between atoms: C2_3  and  C3_4 
REMARK    3  A    between atoms: C3_4  and  N1_5 
REMARK       I    between atoms: N1_5  and  C5_7 
REMARK    4  A    between atoms: C5_7  and  C6_9 
REMARK    5  A    between atoms: C6_9  and  C7_10 
REMARK    6  A    between atoms: C7_10  and  C8_11 
REMARK       I    between atoms: C8_11  and  N2_13 
REMARK    7  A    between atoms: N2_13  and  C9_15 
ROOT
HETATM    1  C9  UNL     1       6.514   9.671  23.639  1.00  0.00     0.685 A 
HETATM    2  N3  UNL     1       7.125   9.065  24.651  1.00  0.00    -0.190 N 
ATOM      3  H3  UNL     1       6.543   8.691  25.401  1.00  0.00     0.184 HD
HETATM    4  C10 UNL     1       8.456   8.911  24.755  1.00  0.00     0.077 A 
HETATM    5  C11 UNL     1       9.234   9.425  23.725  1.00  0.00     0.059 A 
HETATM    6  C12 UNL     1       8.598  10.054  22.675  1.00  0.00     0.124 A 
HETATM    7  N4  UNL     1       7.254  10.176  22.630  1.00  0.00    -0.201 N 
ATOM      8  H4  UNL     1       6.803  10.645  21.843  1.00  0.00     0.183 HD
HETATM    9  C13 UNL     1      10.617   9.125  24.085  1.00  0.00     0.198 A 
HETATM   10  O4  UNL     1      11.626   9.435  23.394  1.00  0.00    -0.286 OA
HETATM   11  C14 UNL     1      10.654   8.416  25.360  1.00  0.00     0.048 A 
HETATM   12  C15 UNL     1      11.647   7.893  26.171  1.00  0.00     0.041 A 
HETATM   13 BR1  UNL     1      13.449   8.074  25.610  1.00  0.00    -0.049 Br
HETATM   14  C16 UNL     1      11.381   7.252  27.364  1.00  0.00     0.107 A 
HETATM   15  N5  UNL     1      10.076   7.148  27.723  1.00  0.00    -0.373 N 
ATOM     16  H5  UNL     1       9.834   6.680  28.596  1.00  0.00     0.164 HD
HETATM   17  C17 UNL     1       9.091   7.649  26.949  1.00  0.00     0.102 A 
HETATM   18  C18 UNL     1       9.338   8.292  25.755  1.00  0.00     0.023 A 
ENDROOT
BRANCH   1  19
HETATM   19  N2  UNL     1       5.234   9.819  23.539  1.00  0.00    -0.160 N 
HETATM   20  C8  UNL     1       4.574   8.959  22.591  1.00  0.00     0.236 C 
HETATM   21  O3  UNL     1       4.912   7.769  22.526  1.00  0.00    -0.273 OA
ATOM     22  H2  UNL     1       4.723  10.502  24.099  1.00  0.00     0.187 HD
BRANCH  20  23
HETATM   23  C7  UNL     1       3.508   9.559  21.733  1.00  0.00     0.113 C 
BRANCH  23  24
HETATM   24  C6  UNL     1       3.922   9.377  20.310  1.00  0.00     0.112 C 
BRANCH  24  25
HETATM   25  C5  UNL     1       5.065  10.207  19.911  1.00  0.00     0.219 C 
HETATM   26  N1  UNL     1       4.827  11.528  19.458  1.00  0.00    -0.354 N 
HETATM   27  C4  UNL     1       3.467  12.010  19.408  1.00  0.00     0.152 C 
HETATM   28  O2  UNL     1       6.259   9.741  19.971  1.00  0.00    -0.273 OA
BRANCH  26  29
HETATM   29  C3  UNL     1       5.896  12.417  19.046  1.00  0.00     0.151 C 
BRANCH  29  30
HETATM   30  C2  UNL     1       5.773  13.783  19.687  1.00  0.00     0.186 C 
BRANCH  30  31
HETATM   31  O1  UNL     1       7.036  14.228  20.014  1.00  0.00    -0.394 OA
HETATM   32  C1  UNL     1       7.811  13.118  20.408  1.00  0.00     0.201 C 
ENDBRANCH  30  31
ENDBRANCH  29  30
ENDBRANCH  26  29
ENDBRANCH  24  25
ENDBRANCH  23  24
ENDBRANCH  20  23
ENDBRANCH   1  19
TORSDOF 7
ENDMDL
