MODEL 1
REMARK VINA RESULT: -8.718677554      0.000      0.000
REMARK  7 active torsions:
REMARK  status: ('A' for Active; 'I' for Inactive)
REMARK    1  A    between atoms: C4_4  and  C5_5 
REMARK    2  A    between atoms: C5_5  and  N1_6 
REMARK    3  A    between atoms: N3_12  and  C9_14 
REMARK    4  A    between atoms: C9_14  and  C10_15 
REMARK       I    between atoms: C10_15  and  N4_17 
REMARK    5  A    between atoms: N4_17  and  C11_18 
REMARK    6  A    between atoms: N4_17  and  C13_20 
REMARK    7  A    between atoms: C13_20  and  C14_21 
ROOT
HETATM    1  C1  UNL     1      13.944   7.454  26.118  1.00  0.00     0.027 C 
HETATM    2  C2  UNL     1      12.804   7.852  25.944  1.00  0.00    -0.026 C 
HETATM    3  C3  UNL     1      11.475   8.299  25.733  1.00  0.00    -0.014 C 
HETATM    4  C4  UNL     1      10.332   8.661  25.552  1.00  0.00    -0.071 C 
ENDROOT
BRANCH   4   5
HETATM    5  C5  UNL     1       8.943   9.076  25.335  1.00  0.00     0.245 C 
BRANCH   5   6
HETATM    6  N1  UNL     1       8.578   9.038  23.934  1.00  0.00    -0.265 N 
HETATM    7  N2  UNL     1       9.396   8.810  22.944  1.00  0.00    -0.306 N 
HETATM    8  C6  UNL     1       8.716   8.847  21.762  1.00  0.00     0.126 A 
ATOM      9  H2  UNL     1      10.395   8.631  23.040  1.00  0.00     0.186 HD
HETATM   10  C7  UNL     1       7.408   9.115  22.056  1.00  0.00     0.070 A 
HETATM   11  C8  UNL     1       6.269   9.270  21.303  1.00  0.00     0.121 A 
HETATM   12  C21 UNL     1       7.358   9.228  23.435  1.00  0.00     0.139 A 
HETATM   13  N3  UNL     1       6.244   9.181  20.065  1.00  0.00    -0.346 N 
HETATM   14  N5  UNL     1       5.094   9.541  21.973  1.00  0.00    -0.338 N 
ATOM     15  H3  UNL     1       5.312   9.327  19.677  1.00  0.00     0.167 HD
HETATM   16  C20 UNL     1       5.053   9.649  23.295  1.00  0.00     0.183 A 
ATOM     17  H5  UNL     1       4.234   9.662  21.438  1.00  0.00     0.168 HD
HETATM   18  N6  UNL     1       6.176   9.494  24.013  1.00  0.00    -0.337 N 
ATOM     19  H6  UNL     1       6.130   9.580  25.029  1.00  0.00     0.168 HD
BRANCH  13  20
HETATM   20  C9  UNL     1       7.213   8.924  19.081  1.00  0.00     0.164 C 
BRANCH  20  21
HETATM   21  C10 UNL     1       6.823   7.754  18.232  1.00  0.00     0.259 C 
HETATM   22  O1  UNL     1       6.145   7.963  17.184  1.00  0.00    -0.267 OA
HETATM   23  N4  UNL     1       7.214   6.443  18.606  1.00  0.00    -0.344 N 
BRANCH  23  24
HETATM   24  C11 UNL     1       7.974   6.277  19.843  1.00  0.00     0.122 C 
HETATM   25  C12 UNL     1       7.220   5.676  20.970  1.00  0.00     0.026 C 
ENDBRANCH  23  24
BRANCH  23  26
HETATM   26  C13 UNL     1       6.956   5.311  17.743  1.00  0.00     0.166 C 
BRANCH  26  27
HETATM   27  C14 UNL     1       7.797   4.129  17.921  1.00  0.00    -0.023 A 
HETATM   28  C15 UNL     1       9.120   4.083  17.574  1.00  0.00     0.010 A 
HETATM   29  C16 UNL     1       9.927   2.966  17.786  1.00  0.00     0.001 A 
HETATM   30  C17 UNL     1       9.337   1.873  18.376  1.00  0.00     0.001 A 
HETATM   31  C18 UNL     1       8.003   1.889  18.741  1.00  0.00     0.019 A 
HETATM   32  C19 UNL     1       7.246   2.982  18.523  1.00  0.00     0.018 A 
HETATM   33 BR1  UNL     1       5.383   3.056  19.011  1.00  0.00    -0.051 Br
ENDBRANCH  26  27
ENDBRANCH  23  26
ENDBRANCH  20  21
ENDBRANCH  13  20
ENDBRANCH   5   6
ENDBRANCH   4   5
TORSDOF 7
ENDMDL
MODEL 2
REMARK VINA RESULT: -8.577969386      1.309      1.766
REMARK  7 active torsions:
REMARK  status: ('A' for Active; 'I' for Inactive)
REMARK    1  A    between atoms: C4_4  and  C5_5 
REMARK    2  A    between atoms: C5_5  and  N1_6 
REMARK    3  A    between atoms: N3_12  and  C9_14 
REMARK    4  A    between atoms: C9_14  and  C10_15 
REMARK       I    between atoms: C10_15  and  N4_17 
REMARK    5  A    between atoms: N4_17  and  C11_18 
REMARK    6  A    between atoms: N4_17  and  C13_20 
REMARK    7  A    between atoms: C13_20  and  C14_21 
ROOT
HETATM    1  C1  UNL     1      13.936   7.456  26.089  1.00  0.00     0.027 C 
HETATM    2  C2  UNL     1      12.906   7.988  25.711  1.00  0.00    -0.026 C 
HETATM    3  C3  UNL     1      11.709   8.619  25.283  1.00  0.00    -0.014 C 
HETATM    4  C4  UNL     1      10.695   9.176  24.924  1.00  0.00    -0.071 C 
ENDROOT
BRANCH   4   5
HETATM    5  C5  UNL     1       9.478   9.872  24.495  1.00  0.00     0.245 C 
BRANCH   5   6
HETATM    6  N1  UNL     1       9.008   9.401  23.208  1.00  0.00    -0.265 N 
HETATM    7  N2  UNL     1       9.756   8.893  22.269  1.00  0.00    -0.306 N 
HETATM    8  C6  UNL     1       8.986   8.555  21.195  1.00  0.00     0.126 A 
ATOM      9  H2  UNL     1      10.766   8.767  22.329  1.00  0.00     0.186 HD
HETATM   10  C7  UNL     1       7.695   8.880  21.504  1.00  0.00     0.070 A 
HETATM   11  C8  UNL     1       6.496   8.780  20.841  1.00  0.00     0.121 A 
HETATM   12  C21 UNL     1       7.747   9.411  22.782  1.00  0.00     0.139 A 
HETATM   13  N3  UNL     1       6.379   8.314  19.696  1.00  0.00    -0.346 N 
HETATM   14  N5  UNL     1       5.366   9.225  21.494  1.00  0.00    -0.338 N 
ATOM     15  H3  UNL     1       5.415   8.320  19.362  1.00  0.00     0.167 HD
HETATM   16  C20 UNL     1       5.423   9.733  22.719  1.00  0.00     0.183 A 
ATOM     17  H5  UNL     1       4.463   9.163  21.024  1.00  0.00     0.168 HD
HETATM   18  N6  UNL     1       6.603   9.823  23.351  1.00  0.00    -0.337 N 
ATOM     19  H6  UNL     1       6.632  10.216  24.292  1.00  0.00     0.168 HD
BRANCH  13  20
HETATM   20  C9  UNL     1       7.279   7.782  18.757  1.00  0.00     0.164 C 
BRANCH  20  21
HETATM   21  C10 UNL     1       7.285   6.285  18.803  1.00  0.00     0.259 C 
HETATM   22  O1  UNL     1       7.946   5.707  19.714  1.00  0.00    -0.267 OA
HETATM   23  N4  UNL     1       6.557   5.543  17.839  1.00  0.00    -0.344 N 
BRANCH  23  24
HETATM   24  C11 UNL     1       5.838   6.279  16.801  1.00  0.00     0.122 C 
HETATM   25  C12 UNL     1       6.342   6.076  15.420  1.00  0.00     0.026 C 
ENDBRANCH  23  24
BRANCH  23  26
HETATM   26  C13 UNL     1       6.446   4.104  17.931  1.00  0.00     0.166 C 
BRANCH  26  27
HETATM   27  C14 UNL     1       7.667   3.325  17.735  1.00  0.00    -0.023 A 
HETATM   28  C15 UNL     1       8.430   3.385  16.600  1.00  0.00     0.010 A 
HETATM   29  C16 UNL     1       9.617   2.671  16.438  1.00  0.00     0.001 A 
HETATM   30  C17 UNL     1      10.015   1.877  17.487  1.00  0.00     0.001 A 
HETATM   31  C18 UNL     1       9.269   1.796  18.648  1.00  0.00     0.019 A 
HETATM   32  C19 UNL     1       8.124   2.497  18.778  1.00  0.00     0.018 A 
HETATM   33 BR1  UNL     1       7.047   2.418  20.373  1.00  0.00    -0.051 Br
ENDBRANCH  26  27
ENDBRANCH  23  26
ENDBRANCH  20  21
ENDBRANCH  13  20
ENDBRANCH   5   6
ENDBRANCH   4   5
TORSDOF 7
ENDMDL
MODEL 3
REMARK VINA RESULT: -8.566581198      1.957      2.390
REMARK  7 active torsions:
REMARK  status: ('A' for Active; 'I' for Inactive)
REMARK    1  A    between atoms: C4_4  and  C5_5 
REMARK    2  A    between atoms: C5_5  and  N1_6 
REMARK    3  A    between atoms: N3_12  and  C9_14 
REMARK    4  A    between atoms: C9_14  and  C10_15 
REMARK       I    between atoms: C10_15  and  N4_17 
REMARK    5  A    between atoms: N4_17  and  C11_18 
REMARK    6  A    between atoms: N4_17  and  C13_20 
REMARK    7  A    between atoms: C13_20  and  C14_21 
ROOT
HETATM    1  C1  UNL     1      13.585   7.410  26.495  1.00  0.00     0.027 C 
HETATM    2  C2  UNL     1      12.721   8.010  25.879  1.00  0.00    -0.026 C 
HETATM    3  C3  UNL     1      11.717   8.722  25.172  1.00  0.00    -0.014 C 
HETATM    4  C4  UNL     1      10.870   9.348  24.573  1.00  0.00    -0.071 C 
ENDROOT
BRANCH   4   5
HETATM    5  C5  UNL     1       9.859  10.126  23.851  1.00  0.00     0.245 C 
BRANCH   5   6
HETATM    6  N1  UNL     1       9.049   9.293  22.986  1.00  0.00    -0.265 N 
HETATM    7  N2  UNL     1       9.352   8.948  21.766  1.00  0.00    -0.306 N 
HETATM    8  C6  UNL     1       8.366   8.160  21.248  1.00  0.00     0.126 A 
ATOM      9  H2  UNL     1      10.200   9.226  21.273  1.00  0.00     0.186 HD
HETATM   10  C7  UNL     1       7.409   8.022  22.213  1.00  0.00     0.070 A 
HETATM   11  C8  UNL     1       6.207   7.360  22.284  1.00  0.00     0.121 A 
HETATM   12  C21 UNL     1       7.873   8.749  23.296  1.00  0.00     0.139 A 
HETATM   13  N3  UNL     1       5.733   6.691  21.352  1.00  0.00    -0.346 N 
HETATM   14  N5  UNL     1       5.496   7.453  23.462  1.00  0.00    -0.338 N 
ATOM     15  H3  UNL     1       4.832   6.273  21.582  1.00  0.00     0.167 HD
HETATM   16  C20 UNL     1       5.946   8.152  24.496  1.00  0.00     0.183 A 
ATOM     17  H5  UNL     1       4.600   6.972  23.540  1.00  0.00     0.168 HD
HETATM   18  N6  UNL     1       7.123   8.792  24.409  1.00  0.00    -0.337 N 
ATOM     19  H6  UNL     1       7.457   9.326  25.211  1.00  0.00     0.168 HD
BRANCH  13  20
HETATM   20  C9  UNL     1       6.163   6.383  20.050  1.00  0.00     0.164 C 
BRANCH  20  21
HETATM   21  C10 UNL     1       6.087   4.910  19.792  1.00  0.00     0.259 C 
HETATM   22  O1  UNL     1       5.531   4.169  20.654  1.00  0.00    -0.267 OA
HETATM   23  N4  UNL     1       6.632   4.369  18.600  1.00  0.00    -0.344 N 
BRANCH  23  24
HETATM   24  C11 UNL     1       7.282   5.283  17.663  1.00  0.00     0.122 C 
HETATM   25  C12 UNL     1       6.539   5.525  16.401  1.00  0.00     0.026 C 
ENDBRANCH  23  24
BRANCH  23  26
HETATM   26  C13 UNL     1       6.466   2.970  18.269  1.00  0.00     0.166 C 
BRANCH  26  27
HETATM   27  C14 UNL     1       7.667   2.224  17.900  1.00  0.00    -0.023 A 
HETATM   28  C15 UNL     1       8.738   2.053  18.735  1.00  0.00     0.010 A 
HETATM   29  C16 UNL     1       9.863   1.303  18.392  1.00  0.00     0.001 A 
HETATM   30  C17 UNL     1       9.866   0.718  17.148  1.00  0.00     0.001 A 
HETATM   31  C18 UNL     1       8.799   0.869  16.282  1.00  0.00     0.019 A 
HETATM   32  C19 UNL     1       7.724   1.601  16.639  1.00  0.00     0.018 A 
HETATM   33 BR1  UNL     1       6.213   1.844  15.470  1.00  0.00    -0.051 Br
ENDBRANCH  26  27
ENDBRANCH  23  26
ENDBRANCH  20  21
ENDBRANCH  13  20
ENDBRANCH   5   6
ENDBRANCH   4   5
TORSDOF 7
ENDMDL
MODEL 4
REMARK VINA RESULT: -8.540809897      1.875      2.645
REMARK  7 active torsions:
REMARK  status: ('A' for Active; 'I' for Inactive)
REMARK    1  A    between atoms: C4_4  and  C5_5 
REMARK    2  A    between atoms: C5_5  and  N1_6 
REMARK    3  A    between atoms: N3_12  and  C9_14 
REMARK    4  A    between atoms: C9_14  and  C10_15 
REMARK       I    between atoms: C10_15  and  N4_17 
REMARK    5  A    between atoms: N4_17  and  C11_18 
REMARK    6  A    between atoms: N4_17  and  C13_20 
REMARK    7  A    between atoms: C13_20  and  C14_21 
ROOT
HETATM    1  C1  UNL     1      13.393   7.618  26.163  1.00  0.00     0.027 C 
HETATM    2  C2  UNL     1      12.442   8.144  25.611  1.00  0.00    -0.026 C 
HETATM    3  C3  UNL     1      11.338   8.770  24.977  1.00  0.00    -0.014 C 
HETATM    4  C4  UNL     1      10.405   9.324  24.436  1.00  0.00    -0.071 C 
ENDROOT
BRANCH   4   5
HETATM    5  C5  UNL     1       9.290  10.015  23.782  1.00  0.00     0.245 C 
BRANCH   5   6
HETATM    6  N1  UNL     1       8.556   9.139  22.892  1.00  0.00    -0.265 N 
HETATM    7  N2  UNL     1       7.990   8.015  23.233  1.00  0.00    -0.306 N 
HETATM    8  C6  UNL     1       7.387   7.452  22.147  1.00  0.00     0.126 A 
ATOM      9  H2  UNL     1       7.997   7.617  24.172  1.00  0.00     0.186 HD
HETATM   10  C7  UNL     1       7.604   8.285  21.086  1.00  0.00     0.070 A 
HETATM   11  C8  UNL     1       7.251   8.259  19.758  1.00  0.00     0.121 A 
HETATM   12  C21 UNL     1       8.344   9.340  21.593  1.00  0.00     0.139 A 
HETATM   13  N3  UNL     1       6.589   7.345  19.240  1.00  0.00    -0.346 N 
HETATM   14  N5  UNL     1       7.662   9.311  18.967  1.00  0.00    -0.338 N 
ATOM     15  H3  UNL     1       6.423   7.492  18.244  1.00  0.00     0.167 HD
HETATM   16  C20 UNL     1       8.372  10.318  19.460  1.00  0.00     0.183 A 
ATOM     17  H5  UNL     1       7.414   9.315  17.978  1.00  0.00     0.168 HD
HETATM   18  N6  UNL     1       8.707  10.328  20.759  1.00  0.00    -0.337 N 
ATOM     19  H6  UNL     1       9.253  11.108  21.124  1.00  0.00     0.168 HD
BRANCH  13  20
HETATM   20  C9  UNL     1       6.018   6.154  19.720  1.00  0.00     0.164 C 
BRANCH  20  21
HETATM   21  C10 UNL     1       6.176   5.042  18.729  1.00  0.00     0.259 C 
HETATM   22  O1  UNL     1       6.761   5.283  17.633  1.00  0.00    -0.267 OA
HETATM   23  N4  UNL     1       5.675   3.750  19.026  1.00  0.00    -0.344 N 
BRANCH  23  24
HETATM   24  C11 UNL     1       4.987   3.554  20.301  1.00  0.00     0.122 C 
HETATM   25  C12 UNL     1       5.702   2.694  21.276  1.00  0.00     0.026 C 
ENDBRANCH  23  24
BRANCH  23  26
HETATM   26  C13 UNL     1       5.920   2.631  18.142  1.00  0.00     0.166 C 
BRANCH  26  27
HETATM   27  C14 UNL     1       7.313   2.258  17.908  1.00  0.00    -0.023 A 
HETATM   28  C15 UNL     1       8.194   1.953  18.910  1.00  0.00     0.010 A 
HETATM   29  C16 UNL     1       9.511   1.556  18.677  1.00  0.00     0.001 A 
HETATM   30  C17 UNL     1       9.913   1.475  17.365  1.00  0.00     0.001 A 
HETATM   31  C18 UNL     1       9.048   1.773  16.329  1.00  0.00     0.019 A 
HETATM   32  C19 UNL     1       7.780   2.155  16.584  1.00  0.00     0.018 A 
HETATM   33 BR1  UNL     1       6.535   2.584  15.178  1.00  0.00    -0.051 Br
ENDBRANCH  26  27
ENDBRANCH  23  26
ENDBRANCH  20  21
ENDBRANCH  13  20
ENDBRANCH   5   6
ENDBRANCH   4   5
TORSDOF 7
ENDMDL
MODEL 5
REMARK VINA RESULT: -8.518863873      1.578      2.132
REMARK  7 active torsions:
REMARK  status: ('A' for Active; 'I' for Inactive)
REMARK    1  A    between atoms: C4_4  and  C5_5 
REMARK    2  A    between atoms: C5_5  and  N1_6 
REMARK    3  A    between atoms: N3_12  and  C9_14 
REMARK    4  A    between atoms: C9_14  and  C10_15 
REMARK       I    between atoms: C10_15  and  N4_17 
REMARK    5  A    between atoms: N4_17  and  C11_18 
REMARK    6  A    between atoms: N4_17  and  C13_20 
REMARK    7  A    between atoms: C13_20  and  C14_21 
ROOT
HETATM    1  C1  UNL     1      13.949   7.637  26.124  1.00  0.00     0.027 C 
HETATM    2  C2  UNL     1      12.739   7.787  26.117  1.00  0.00    -0.026 C 
HETATM    3  C3  UNL     1      11.333   7.972  26.096  1.00  0.00    -0.014 C 
HETATM    4  C4  UNL     1      10.132   8.135  26.057  1.00  0.00    -0.071 C 
ENDROOT
BRANCH   4   5
HETATM    5  C5  UNL     1       8.682   8.335  25.986  1.00  0.00     0.245 C 
BRANCH   5   6
HETATM    6  N1  UNL     1       8.171   8.123  24.647  1.00  0.00    -0.265 N 
HETATM    7  N2  UNL     1       7.099   7.446  24.345  1.00  0.00    -0.306 N 
HETATM    8  C6  UNL     1       6.914   7.450  22.993  1.00  0.00     0.126 A 
ATOM      9  H2  UNL     1       6.490   6.982  25.018  1.00  0.00     0.186 HD
HETATM   10  C7  UNL     1       7.937   8.173  22.446  1.00  0.00     0.070 A 
HETATM   11  C8  UNL     1       8.285   8.522  21.164  1.00  0.00     0.121 A 
HETATM   12  C21 UNL     1       8.710   8.583  23.519  1.00  0.00     0.139 A 
HETATM   13  N3  UNL     1       7.637   8.189  20.159  1.00  0.00    -0.346 N 
HETATM   14  N5  UNL     1       9.422   9.285  20.997  1.00  0.00    -0.338 N 
ATOM     15  H3  UNL     1       8.045   8.537  19.291  1.00  0.00     0.167 HD
HETATM   16  C20 UNL     1      10.159   9.675  22.030  1.00  0.00     0.183 A 
ATOM     17  H5  UNL     1       9.703   9.558  20.056  1.00  0.00     0.168 HD
HETATM   18  N6  UNL     1       9.802   9.324  23.276  1.00  0.00    -0.337 N 
ATOM     19  H6  UNL     1      10.378   9.629  24.060  1.00  0.00     0.168 HD
BRANCH  13  20
HETATM   20  C9  UNL     1       6.467   7.440  19.951  1.00  0.00     0.164 C 
BRANCH  20  21
HETATM   21  C10 UNL     1       6.529   6.689  18.657  1.00  0.00     0.259 C 
HETATM   22  O1  UNL     1       6.573   7.345  17.576  1.00  0.00    -0.267 OA
HETATM   23  N4  UNL     1       6.539   5.271  18.659  1.00  0.00    -0.344 N 
BRANCH  23  24
HETATM   24  C11 UNL     1       6.460   4.583  19.945  1.00  0.00     0.122 C 
HETATM   25  C12 UNL     1       5.378   3.573  20.053  1.00  0.00     0.026 C 
ENDBRANCH  23  24
BRANCH  23  26
HETATM   26  C13 UNL     1       6.721   4.524  17.434  1.00  0.00     0.166 C 
BRANCH  26  27
HETATM   27  C14 UNL     1       7.840   3.584  17.384  1.00  0.00    -0.023 A 
HETATM   28  C15 UNL     1       9.105   3.891  17.805  1.00  0.00     0.010 A 
HETATM   29  C16 UNL     1      10.158   2.976  17.794  1.00  0.00     0.001 A 
HETATM   30  C17 UNL     1       9.879   1.711  17.333  1.00  0.00     0.001 A 
HETATM   31  C18 UNL     1       8.610   1.368  16.903  1.00  0.00     0.019 A 
HETATM   32  C19 UNL     1       7.611   2.273  16.924  1.00  0.00     0.018 A 
HETATM   33 BR1  UNL     1       5.827   1.848  16.334  1.00  0.00    -0.051 Br
ENDBRANCH  26  27
ENDBRANCH  23  26
ENDBRANCH  20  21
ENDBRANCH  13  20
ENDBRANCH   5   6
ENDBRANCH   4   5
TORSDOF 7
ENDMDL
