MODEL 1
REMARK VINA RESULT: -9.704017703      0.000      0.000
REMARK  6 active torsions:
REMARK  status: ('A' for Active; 'I' for Inactive)
REMARK    1  A    between atoms: N1_2  and  C2_3 
REMARK    2  A    between atoms: N1_2  and  C11_12 
REMARK    3  A    between atoms: C2_3  and  C3_4 
REMARK    4  A    between atoms: C3_4  and  C4_5 
REMARK    5  A    between atoms: C4_5  and  C5_6 
REMARK    6  A    between atoms: C17_25  and  C18_26 
ROOT
HETATM    1  C11 UNL     1       4.841   7.962  23.502  1.00  0.00     0.681 A 
HETATM    2  N2  UNL     1       3.629   7.372  23.623  1.00  0.00    -0.200 N 
ATOM      3  H2  UNL     1       3.024   7.580  24.417  1.00  0.00     0.183 HD
HETATM    4  C12 UNL     1       3.250   6.519  22.688  1.00  0.00     0.139 A 
HETATM    5  C13 UNL     1       4.042   6.177  21.551  1.00  0.00     0.090 A 
HETATM    6  C14 UNL     1       5.273   6.790  21.446  1.00  0.00     0.151 A 
HETATM    7  N3  UNL     1       5.585   7.670  22.476  1.00  0.00    -0.174 N 
ATOM      8  H3  UNL     1       6.491   8.136  22.421  1.00  0.00     0.186 HD
HETATM    9  N4  UNL     1       6.158   6.705  20.589  1.00  0.00    -0.306 N 
ATOM     10  H4  UNL     1       6.894   7.332  20.914  1.00  0.00     0.170 HD
HETATM   11  C15 UNL     1       6.627   6.193  19.441  1.00  0.00     0.262 C 
HETATM   12  O1  UNL     1       6.845   6.960  18.423  1.00  0.00    -0.267 OA
HETATM   13  C16 UNL     1       6.969   4.778  19.107  1.00  0.00     0.100 C 
HETATM   14  C17 UNL     1       7.956   4.514  18.286  1.00  0.00     0.034 C 
HETATM   15  C24 UNL     1       6.231   3.678  19.717  1.00  0.00     0.258 C 
HETATM   16  O2  UNL     1       6.864   2.718  20.279  1.00  0.00    -0.267 OA
HETATM   17  N5  UNL     1       4.815   3.580  19.743  1.00  0.00    -0.341 N 
ATOM     18  H5  UNL     1       4.403   2.663  19.911  1.00  0.00     0.164 HD
HETATM   19  C25 UNL     1       3.910   4.715  19.542  1.00  0.00     0.247 C 
HETATM   20  N6  UNL     1       3.543   5.341  20.745  1.00  0.00    -0.370 N 
ATOM     21  H6  UNL     1       2.619   5.038  21.053  1.00  0.00     0.161 HD
ENDROOT
BRANCH   1  22
HETATM   22  N1  UNL     1       5.303   8.899  24.483  1.00  0.00    -0.222 N 
HETATM   23  C1  UNL     1       4.437   9.266  25.565  1.00  0.00     0.168 C 
BRANCH  22  24
HETATM   24  C2  UNL     1       6.617   9.445  24.359  1.00  0.00     0.141 C 
BRANCH  24  25
HETATM   25  C3  UNL     1       7.738   8.707  24.974  1.00  0.00     0.025 C 
BRANCH  25  26
HETATM   26  C4  UNL     1       9.110   9.080  24.486  1.00  0.00     0.040 C 
BRANCH  26  27
HETATM   27  C5  UNL     1      10.081   8.396  25.408  1.00  0.00    -0.058 A 
HETATM   28  C6  UNL     1      11.425   8.577  25.233  1.00  0.00     0.007 A 
HETATM   29  C7  UNL     1      12.329   7.940  26.091  1.00  0.00     0.001 A 
HETATM   30  C8  UNL     1      11.894   7.123  27.122  1.00  0.00     0.000 A 
HETATM   31  C9  UNL     1      10.538   6.953  27.283  1.00  0.00     0.001 A 
HETATM   32  C10 UNL     1       9.639   7.593  26.422  1.00  0.00     0.007 A 
ENDBRANCH  26  27
ENDBRANCH  25  26
ENDBRANCH  24  25
ENDBRANCH  22  24
ENDBRANCH   1  22
BRANCH  14  33
HETATM   33  C18 UNL     1       8.414   3.210  17.855  1.00  0.00    -0.035 A 
HETATM   34  C19 UNL     1       7.760   2.424  16.906  1.00  0.00     0.014 A 
HETATM   35  C20 UNL     1       8.252   1.190  16.544  1.00  0.00     0.043 A 
HETATM   36  C21 UNL     1       9.409   0.685  17.109  1.00  0.00     0.116 A 
HETATM   37  F1  UNL     1       9.921  -0.517  16.781  1.00  0.00    -0.206 F 
HETATM   38  C22 UNL     1      10.072   1.438  18.047  1.00  0.00     0.043 A 
HETATM   39  C23 UNL     1       9.584   2.651  18.397  1.00  0.00     0.014 A 
ENDBRANCH  14  33
TORSDOF 6
ENDMDL
MODEL 2
REMARK VINA RESULT: -9.206873995      0.908      1.342
REMARK  6 active torsions:
REMARK  status: ('A' for Active; 'I' for Inactive)
REMARK    1  A    between atoms: N1_2  and  C2_3 
REMARK    2  A    between atoms: N1_2  and  C11_12 
REMARK    3  A    between atoms: C2_3  and  C3_4 
REMARK    4  A    between atoms: C3_4  and  C4_5 
REMARK    5  A    between atoms: C4_5  and  C5_6 
REMARK    6  A    between atoms: C17_25  and  C18_26 
ROOT
HETATM    1  C11 UNL     1       3.842   7.769  23.497  1.00  0.00     0.681 A 
HETATM    2  N2  UNL     1       2.594   7.422  23.109  1.00  0.00    -0.200 N 
ATOM      3  H2  UNL     1       1.792   7.587  23.719  1.00  0.00     0.183 HD
HETATM    4  C12 UNL     1       2.437   6.864  21.922  1.00  0.00     0.139 A 
HETATM    5  C13 UNL     1       3.509   6.601  21.017  1.00  0.00     0.090 A 
HETATM    6  C14 UNL     1       4.773   6.963  21.431  1.00  0.00     0.151 A 
HETATM    7  N3  UNL     1       4.839   7.542  22.693  1.00  0.00    -0.174 N 
ATOM      8  H3  UNL     1       5.765   7.818  23.022  1.00  0.00     0.186 HD
HETATM    9  N4  UNL     1       5.872   6.872  20.876  1.00  0.00    -0.306 N 
ATOM     10  H4  UNL     1       6.535   7.262  21.546  1.00  0.00     0.170 HD
HETATM   11  C15 UNL     1       6.624   6.512  19.824  1.00  0.00     0.262 C 
HETATM   12  O1  UNL     1       7.261   7.405  19.139  1.00  0.00    -0.267 OA
HETATM   13  C16 UNL     1       6.873   5.152  19.261  1.00  0.00     0.100 C 
HETATM   14  C17 UNL     1       8.033   4.861  18.724  1.00  0.00     0.034 C 
HETATM   15  C24 UNL     1       5.841   4.124  19.335  1.00  0.00     0.258 C 
HETATM   16  O2  UNL     1       6.125   2.965  19.798  1.00  0.00    -0.267 OA
HETATM   17  N5  UNL     1       4.495   4.309  18.922  1.00  0.00    -0.341 N 
ATOM     18  H5  UNL     1       3.936   3.478  18.728  1.00  0.00     0.164 HD
HETATM   19  C25 UNL     1       3.860   5.619  18.757  1.00  0.00     0.247 C 
HETATM   20  N6  UNL     1       3.200   6.057  19.918  1.00  0.00    -0.370 N 
ATOM     21  H6  UNL     1       2.196   5.891  19.858  1.00  0.00     0.161 HD
ENDROOT
BRANCH   1  22
HETATM   22  N1  UNL     1       4.071   8.383  24.772  1.00  0.00    -0.222 N 
HETATM   23  C1  UNL     1       3.151   8.139  25.843  1.00  0.00     0.168 C 
BRANCH  22  24
HETATM   24  C2  UNL     1       5.214   9.224  24.944  1.00  0.00     0.141 C 
BRANCH  24  25
HETATM   25  C3  UNL     1       6.545   8.587  24.995  1.00  0.00     0.025 C 
BRANCH  25  26
HETATM   26  C4  UNL     1       7.618   9.252  24.177  1.00  0.00     0.040 C 
BRANCH  26  27
HETATM   27  C5  UNL     1       8.926   8.853  24.803  1.00  0.00    -0.058 A 
HETATM   28  C6  UNL     1       8.930   8.116  25.954  1.00  0.00     0.007 A 
HETATM   29  C7  UNL     1      10.148   7.745  26.537  1.00  0.00     0.001 A 
HETATM   30  C8  UNL     1      11.360   8.110  25.973  1.00  0.00     0.000 A 
HETATM   31  C9  UNL     1      11.335   8.852  24.814  1.00  0.00     0.001 A 
HETATM   32  C10 UNL     1      10.115   9.219  24.235  1.00  0.00     0.007 A 
ENDBRANCH  26  27
ENDBRANCH  25  26
ENDBRANCH  24  25
ENDBRANCH  22  24
ENDBRANCH   1  22
BRANCH  14  33
HETATM   33  C18 UNL     1       8.436   3.603  18.133  1.00  0.00    -0.035 A 
HETATM   34  C19 UNL     1       8.166   3.234  16.815  1.00  0.00     0.014 A 
HETATM   35  C20 UNL     1       8.579   2.017  16.319  1.00  0.00     0.043 A 
HETATM   36  C21 UNL     1       9.273   1.119  17.107  1.00  0.00     0.116 A 
HETATM   37  F1  UNL     1       9.693  -0.079  16.658  1.00  0.00    -0.206 F 
HETATM   38  C22 UNL     1       9.552   1.457  18.409  1.00  0.00     0.043 A 
HETATM   39  C23 UNL     1       9.145   2.655  18.891  1.00  0.00     0.014 A 
ENDBRANCH  14  33
TORSDOF 6
ENDMDL
MODEL 3
REMARK VINA RESULT: -8.987478426      3.214      8.153
REMARK  6 active torsions:
REMARK  status: ('A' for Active; 'I' for Inactive)
REMARK    1  A    between atoms: N1_2  and  C2_3 
REMARK    2  A    between atoms: N1_2  and  C11_12 
REMARK    3  A    between atoms: C2_3  and  C3_4 
REMARK    4  A    between atoms: C3_4  and  C4_5 
REMARK    5  A    between atoms: C4_5  and  C5_6 
REMARK    6  A    between atoms: C17_25  and  C18_26 
ROOT
HETATM    1  C11 UNL     1       3.864   5.457  17.980  1.00  0.00     0.681 A 
HETATM    2  N2  UNL     1       4.552   5.934  16.917  1.00  0.00    -0.200 N 
ATOM      3  H2  UNL     1       4.429   5.528  15.989  1.00  0.00     0.183 HD
HETATM    4  C12 UNL     1       5.387   6.940  17.110  1.00  0.00     0.139 A 
HETATM    5  C13 UNL     1       5.612   7.558  18.377  1.00  0.00     0.090 A 
HETATM    6  C14 UNL     1       4.901   7.057  19.447  1.00  0.00     0.151 A 
HETATM    7  N3  UNL     1       4.048   6.000  19.147  1.00  0.00    -0.174 N 
ATOM      8  H3  UNL     1       3.512   5.611  19.923  1.00  0.00     0.186 HD
HETATM    9  N4  UNL     1       4.877   7.383  20.637  1.00  0.00    -0.306 N 
ATOM     10  H4  UNL     1       4.211   6.742  21.068  1.00  0.00     0.170 HD
HETATM   11  C15 UNL     1       5.296   8.166  21.643  1.00  0.00     0.262 C 
HETATM   12  O1  UNL     1       4.468   8.951  22.250  1.00  0.00    -0.267 OA
HETATM   13  C16 UNL     1       6.663   8.300  22.230  1.00  0.00     0.100 C 
HETATM   14  C17 UNL     1       6.811   8.547  23.508  1.00  0.00     0.034 C 
HETATM   15  C24 UNL     1       7.844   8.124  21.393  1.00  0.00     0.258 C 
HETATM   16  O2  UNL     1       8.778   7.330  21.764  1.00  0.00    -0.267 OA
HETATM   17  N5  UNL     1       8.053   8.782  20.153  1.00  0.00    -0.341 N 
ATOM     18  H5  UNL     1       9.007   8.836  19.795  1.00  0.00     0.164 HD
HETATM   19  C25 UNL     1       6.985   9.389  19.355  1.00  0.00     0.247 C 
HETATM   20  N6  UNL     1       6.446   8.508  18.402  1.00  0.00    -0.370 N 
ATOM     21  H6  UNL     1       6.834   8.683  17.475  1.00  0.00     0.161 HD
ENDROOT
BRANCH   1  22
HETATM   22  N1  UNL     1       2.941   4.371  17.829  1.00  0.00    -0.222 N 
HETATM   23  C1  UNL     1       1.738   4.573  17.075  1.00  0.00     0.168 C 
BRANCH  22  24
HETATM   24  C2  UNL     1       3.242   3.112  18.434  1.00  0.00     0.141 C 
BRANCH  24  25
HETATM   25  C3  UNL     1       4.591   2.548  18.230  1.00  0.00     0.025 C 
BRANCH  25  26
HETATM   26  C4  UNL     1       5.509   2.606  19.419  1.00  0.00     0.040 C 
BRANCH  26  27
HETATM   27  C5  UNL     1       6.903   2.714  18.866  1.00  0.00    -0.058 A 
HETATM   28  C6  UNL     1       7.859   1.819  19.257  1.00  0.00     0.007 A 
HETATM   29  C7  UNL     1       9.158   1.920  18.743  1.00  0.00     0.001 A 
HETATM   30  C8  UNL     1       9.502   2.913  17.840  1.00  0.00     0.000 A 
HETATM   31  C9  UNL     1       8.526   3.805  17.458  1.00  0.00     0.001 A 
HETATM   32  C10 UNL     1       7.229   3.698  17.975  1.00  0.00     0.007 A 
ENDBRANCH  26  27
ENDBRANCH  25  26
ENDBRANCH  24  25
ENDBRANCH  22  24
ENDBRANCH   1  22
BRANCH  14  33
HETATM   33  C18 UNL     1       8.053   8.709  24.233  1.00  0.00    -0.035 A 
HETATM   34  C19 UNL     1       8.991   9.708  23.966  1.00  0.00     0.014 A 
HETATM   35  C20 UNL     1      10.156   9.802  24.695  1.00  0.00     0.043 A 
HETATM   36  C21 UNL     1      10.438   8.913  25.715  1.00  0.00     0.116 A 
HETATM   37  F1  UNL     1      11.565   8.973  26.450  1.00  0.00    -0.206 F 
HETATM   38  C22 UNL     1       9.532   7.919  25.998  1.00  0.00     0.043 A 
HETATM   39  C23 UNL     1       8.389   7.833  25.279  1.00  0.00     0.014 A 
ENDBRANCH  14  33
TORSDOF 6
ENDMDL
MODEL 4
REMARK VINA RESULT: -8.594136620      1.768      2.666
REMARK  6 active torsions:
REMARK  status: ('A' for Active; 'I' for Inactive)
REMARK    1  A    between atoms: N1_2  and  C2_3 
REMARK    2  A    between atoms: N1_2  and  C11_12 
REMARK    3  A    between atoms: C2_3  and  C3_4 
REMARK    4  A    between atoms: C3_4  and  C4_5 
REMARK    5  A    between atoms: C4_5  and  C5_6 
REMARK    6  A    between atoms: C17_25  and  C18_26 
ROOT
HETATM    1  C11 UNL     1       4.124   7.688  24.131  1.00  0.00     0.681 A 
HETATM    2  N2  UNL     1       3.145   6.828  24.497  1.00  0.00    -0.200 N 
ATOM      3  H2  UNL     1       2.653   6.943  25.383  1.00  0.00     0.183 HD
HETATM    4  C12 UNL     1       2.843   5.836  23.678  1.00  0.00     0.139 A 
HETATM    5  C13 UNL     1       3.488   5.613  22.424  1.00  0.00     0.090 A 
HETATM    6  C14 UNL     1       4.482   6.500  22.070  1.00  0.00     0.151 A 
HETATM    7  N3  UNL     1       4.729   7.509  22.994  1.00  0.00    -0.174 N 
ATOM      8  H3  UNL     1       5.462   8.179  22.755  1.00  0.00     0.186 HD
HETATM    9  N4  UNL     1       5.197   6.569  21.067  1.00  0.00    -0.306 N 
ATOM     10  H4  UNL     1       5.792   7.382  21.227  1.00  0.00     0.170 HD
HETATM   11  C15 UNL     1       5.577   6.099  19.868  1.00  0.00     0.262 C 
HETATM   12  O1  UNL     1       5.411   6.813  18.803  1.00  0.00    -0.267 OA
HETATM   13  C16 UNL     1       6.209   4.792  19.522  1.00  0.00     0.100 C 
HETATM   14  C17 UNL     1       7.074   4.715  18.541  1.00  0.00     0.034 C 
HETATM   15  C24 UNL     1       5.897   3.595  20.296  1.00  0.00     0.258 C 
HETATM   16  O2  UNL     1       6.843   2.869  20.761  1.00  0.00    -0.267 OA
HETATM   17  N5  UNL     1       4.580   3.152  20.589  1.00  0.00    -0.341 N 
ATOM     18  H5  UNL     1       4.453   2.177  20.862  1.00  0.00     0.164 HD
HETATM   19  C25 UNL     1       3.392   4.008  20.524  1.00  0.00     0.247 C 
HETATM   20  N6  UNL     1       3.089   4.618  21.754  1.00  0.00    -0.370 N 
ATOM     21  H6  UNL     1       2.342   4.121  22.239  1.00  0.00     0.161 HD
ENDROOT
BRANCH   1  22
HETATM   22  N1  UNL     1       4.491   8.786  24.977  1.00  0.00    -0.222 N 
HETATM   23  C1  UNL     1       3.529   9.310  25.902  1.00  0.00     0.168 C 
BRANCH  22  24
HETATM   24  C2  UNL     1       5.808   9.330  24.878  1.00  0.00     0.141 C 
BRANCH  24  25
HETATM   25  C3  UNL     1       6.952   8.398  24.931  1.00  0.00     0.025 C 
BRANCH  25  26
HETATM   26  C4  UNL     1       8.283   8.976  24.537  1.00  0.00     0.040 C 
BRANCH  26  27
HETATM   27  C5  UNL     1       8.294   9.012  23.033  1.00  0.00    -0.058 A 
HETATM   28  C6  UNL     1       8.407   7.846  22.329  1.00  0.00     0.007 A 
HETATM   29  C7  UNL     1       8.419   7.878  20.929  1.00  0.00     0.001 A 
HETATM   30  C8  UNL     1       8.318   9.072  20.233  1.00  0.00     0.000 A 
HETATM   31  C9  UNL     1       8.205  10.236  20.960  1.00  0.00     0.001 A 
HETATM   32  C10 UNL     1       8.193  10.196  22.359  1.00  0.00     0.007 A 
ENDBRANCH  26  27
ENDBRANCH  25  26
ENDBRANCH  24  25
ENDBRANCH  22  24
ENDBRANCH   1  22
BRANCH  14  33
HETATM   33  C18 UNL     1       7.771   3.535  18.075  1.00  0.00    -0.035 A 
HETATM   34  C19 UNL     1       7.191   2.544  17.282  1.00  0.00     0.014 A 
HETATM   35  C20 UNL     1       7.914   1.445  16.876  1.00  0.00     0.043 A 
HETATM   36  C21 UNL     1       9.238   1.283  17.240  1.00  0.00     0.116 A 
HETATM   37  F1  UNL     1       9.977   0.222  16.862  1.00  0.00    -0.206 F 
HETATM   38  C22 UNL     1       9.834   2.243  18.020  1.00  0.00     0.043 A 
HETATM   39  C23 UNL     1       9.118   3.322  18.415  1.00  0.00     0.014 A 
ENDBRANCH  14  33
TORSDOF 6
ENDMDL
MODEL 5
REMARK VINA RESULT: -8.527977448      5.174      8.346
REMARK  6 active torsions:
REMARK  status: ('A' for Active; 'I' for Inactive)
REMARK    1  A    between atoms: N1_2  and  C2_3 
REMARK    2  A    between atoms: N1_2  and  C11_12 
REMARK    3  A    between atoms: C2_3  and  C3_4 
REMARK    4  A    between atoms: C3_4  and  C4_5 
REMARK    5  A    between atoms: C4_5  and  C5_6 
REMARK    6  A    between atoms: C17_25  and  C18_26 
ROOT
HETATM    1  C11 UNL     1       5.163  11.354  16.226  1.00  0.00     0.681 A 
HETATM    2  N2  UNL     1       4.859  11.738  17.487  1.00  0.00    -0.200 N 
ATOM      3  H2  UNL     1       4.775  12.726  17.726  1.00  0.00     0.183 HD
HETATM    4  C12 UNL     1       4.674  10.802  18.401  1.00  0.00     0.139 A 
HETATM    5  C13 UNL     1       4.776   9.401  18.141  1.00  0.00     0.090 A 
HETATM    6  C14 UNL     1       5.086   9.032  16.849  1.00  0.00     0.151 A 
HETATM    7  N3  UNL     1       5.262  10.085  15.959  1.00  0.00    -0.174 N 
ATOM      8  H3  UNL     1       5.493   9.836  14.996  1.00  0.00     0.186 HD
HETATM    9  N4  UNL     1       5.230   7.921  16.329  1.00  0.00    -0.306 N 
ATOM     10  H4  UNL     1       5.455   8.119  15.354  1.00  0.00     0.170 HD
HETATM   11  C15 UNL     1       5.237   6.582  16.417  1.00  0.00     0.262 C 
HETATM   12  O1  UNL     1       4.376   5.879  15.757  1.00  0.00    -0.267 OA
HETATM   13  C16 UNL     1       6.138   5.691  17.206  1.00  0.00     0.100 C 
HETATM   14  C17 UNL     1       6.473   4.511  16.742  1.00  0.00     0.034 C 
HETATM   15  C24 UNL     1       6.683   6.138  18.483  1.00  0.00     0.258 C 
HETATM   16  O2  UNL     1       7.940   6.052  18.708  1.00  0.00    -0.267 OA
HETATM   17  N5  UNL     1       5.905   6.684  19.538  1.00  0.00    -0.341 N 
ATOM     18  H5  UNL     1       6.306   6.685  20.476  1.00  0.00     0.164 HD
HETATM   19  C25 UNL     1       4.563   7.245  19.364  1.00  0.00     0.247 C 
HETATM   20  N6  UNL     1       4.575   8.629  19.121  1.00  0.00    -0.370 N 
ATOM     21  H6  UNL     1       4.363   9.155  19.969  1.00  0.00     0.161 HD
ENDROOT
BRANCH   1  22
HETATM   22  N1  UNL     1       5.369  12.325  15.192  1.00  0.00    -0.222 N 
HETATM   23  C1  UNL     1       4.380  13.340  14.975  1.00  0.00     0.168 C 
BRANCH  22  24
HETATM   24  C2  UNL     1       6.559  12.259  14.402  1.00  0.00     0.141 C 
BRANCH  24  25
HETATM   25  C3  UNL     1       6.496  11.549  13.109  1.00  0.00     0.025 C 
BRANCH  25  26
HETATM   26  C4  UNL     1       7.391  10.349  12.980  1.00  0.00     0.040 C 
BRANCH  26  27
HETATM   27  C5  UNL     1       6.488   9.186  12.674  1.00  0.00    -0.058 A 
HETATM   28  C6  UNL     1       5.296   9.402  12.041  1.00  0.00     0.007 A 
HETATM   29  C7  UNL     1       4.454   8.321  11.756  1.00  0.00     0.001 A 
HETATM   30  C8  UNL     1       4.800   7.024  12.103  1.00  0.00     0.000 A 
HETATM   31  C9  UNL     1       6.005   6.826  12.739  1.00  0.00     0.001 A 
HETATM   32  C10 UNL     1       6.842   7.912  13.021  1.00  0.00     0.007 A 
ENDBRANCH  26  27
ENDBRANCH  25  26
ENDBRANCH  24  25
ENDBRANCH  22  24
ENDBRANCH   1  22
BRANCH  14  33
HETATM   33  C18 UNL     1       7.326   3.529  17.375  1.00  0.00    -0.035 A 
HETATM   34  C19 UNL     1       6.975   2.805  18.515  1.00  0.00     0.014 A 
HETATM   35  C20 UNL     1       7.839   1.885  19.067  1.00  0.00     0.043 A 
HETATM   36  C21 UNL     1       9.083   1.647  18.513  1.00  0.00     0.116 A 
HETATM   37  F1  UNL     1       9.955   0.756  19.023  1.00  0.00    -0.206 F 
HETATM   38  C22 UNL     1       9.454   2.347  17.390  1.00  0.00     0.043 A 
HETATM   39  C23 UNL     1       8.600   3.248  16.853  1.00  0.00     0.014 A 
ENDBRANCH  14  33
TORSDOF 6
ENDMDL
