MODEL 1
REMARK VINA RESULT: -8.868365973      0.000      0.000
REMARK  8 active torsions:
REMARK  status: ('A' for Active; 'I' for Inactive)
REMARK    1  A    between atoms: C5_5  and  C6_6 
REMARK    2  A    between atoms: C6_6  and  N1_7 
REMARK    3  A    between atoms: N1_7  and  C8_9 
REMARK    4  A    between atoms: C8_9  and  O1_10 
REMARK    5  A    between atoms: C8_9  and  C9_12 
REMARK    6  A    between atoms: C9_12  and  N2_13 
REMARK       I    between atoms: N2_13  and  C10_14 
REMARK    7  A    between atoms: C10_14  and  C11_16 
REMARK    8  A    between atoms: C14_19  and  N3_20 
ROOT
HETATM    1  C1  UNL     1      10.385   0.593  18.033  1.00  0.00     0.018 C 
HETATM    2  C2  UNL     1       9.409   1.255  18.315  1.00  0.00    -0.076 C 
HETATM    3  C3  UNL     1       8.261   2.048  18.665  1.00  0.00     0.034 A 
HETATM    4  C4  UNL     1       7.696   1.923  19.909  1.00  0.00     0.030 A 
HETATM    5  C5  UNL     1       6.573   2.664  20.331  1.00  0.00    -0.039 A 
HETATM    6  C18 UNL     1       6.063   3.535  19.415  1.00  0.00     0.010 A 
HETATM    7  C19 UNL     1       6.611   3.692  18.136  1.00  0.00     0.021 A 
HETATM    8  C20 UNL     1       7.706   2.947  17.773  1.00  0.00     0.029 A 
HETATM    9 BR1  UNL     1       8.493   3.122  16.060  1.00  0.00    -0.050 Br
ENDROOT
BRANCH   5  10
HETATM   10  C6  UNL     1       6.081   2.443  21.715  1.00  0.00     0.163 C 
BRANCH  10  11
HETATM   11  N1  UNL     1       4.731   2.834  21.956  1.00  0.00    -0.360 N 
HETATM   12  C7  UNL     1       3.684   1.778  21.730  1.00  0.00     0.152 C 
BRANCH  11  13
HETATM   13  C8  UNL     1       4.299   4.090  22.359  1.00  0.00     0.167 C 
BRANCH  13  14
HETATM   14  O1  UNL     1       4.331   4.226  23.685  1.00  0.00    -0.344 OA
ATOM     15  H1  UNL     1       4.046   5.089  23.960  1.00  0.00     0.219 HD
ENDBRANCH  13  14
BRANCH  13  16
HETATM   16  C9  UNL     1       3.826   5.299  21.711  1.00  0.00     0.242 C 
BRANCH  16  17
HETATM   17  N2  UNL     1       4.287   6.547  21.932  1.00  0.00    -0.375 NA
HETATM   18  C10 UNL     1       4.758   7.826  22.157  1.00  0.00     0.325 C 
HETATM   19  O2  UNL     1       4.258   8.910  21.787  1.00  0.00    -0.251 OA
BRANCH  18  20
HETATM   20  C11 UNL     1       6.036   7.935  22.935  1.00  0.00     0.046 A 
HETATM   21  C12 UNL     1       5.986   7.726  24.291  1.00  0.00     0.020 A 
HETATM   22  C13 UNL     1       7.157   7.815  25.040  1.00  0.00     0.032 A 
HETATM   23  C14 UNL     1       8.363   8.110  24.430  1.00  0.00     0.055 A 
HETATM   24  C16 UNL     1       8.342   8.307  23.063  1.00  0.00     0.032 A 
HETATM   25  C17 UNL     1       7.195   8.225  22.300  1.00  0.00     0.020 A 
BRANCH  23  26
HETATM   26  N3  UNL     1       9.539   8.187  25.196  1.00  0.00    -0.236 N 
HETATM   27  C15 UNL     1      10.567   9.015  25.036  1.00  0.00     0.218 A 
HETATM   28  N4  UNL     1      11.532   8.771  25.980  1.00  0.00    -0.280 N 
HETATM   29  N5  UNL     1      11.035   7.771  26.705  1.00  0.00    -0.007 NA
ATOM     30  H4  UNL     1      12.426   9.248  26.100  1.00  0.00     0.184 HD
HETATM   31  N6  UNL     1       9.845   7.428  26.233  1.00  0.00    -0.000 NA
ENDBRANCH  23  26
ENDBRANCH  18  20
ENDBRANCH  16  17
ENDBRANCH  13  16
ENDBRANCH  11  13
ENDBRANCH  10  11
ENDBRANCH   5  10
TORSDOF 8
ENDMDL
MODEL 2
REMARK VINA RESULT: -8.816801345      2.702      3.440
REMARK  8 active torsions:
REMARK  status: ('A' for Active; 'I' for Inactive)
REMARK    1  A    between atoms: C5_5  and  C6_6 
REMARK    2  A    between atoms: C6_6  and  N1_7 
REMARK    3  A    between atoms: N1_7  and  C8_9 
REMARK    4  A    between atoms: C8_9  and  O1_10 
REMARK    5  A    between atoms: C8_9  and  C9_12 
REMARK    6  A    between atoms: C9_12  and  N2_13 
REMARK       I    between atoms: N2_13  and  C10_14 
REMARK    7  A    between atoms: C10_14  and  C11_16 
REMARK    8  A    between atoms: C14_19  and  N3_20 
ROOT
HETATM    1  C1  UNL     1       9.720   1.196  18.268  1.00  0.00     0.018 C 
HETATM    2  C2  UNL     1       9.084   2.229  18.265  1.00  0.00    -0.076 C 
HETATM    3  C3  UNL     1       8.346   3.464  18.263  1.00  0.00     0.034 A 
HETATM    4  C4  UNL     1       8.457   4.329  19.322  1.00  0.00     0.030 A 
HETATM    5  C5  UNL     1       7.771   5.559  19.396  1.00  0.00    -0.039 A 
HETATM    6  C18 UNL     1       6.970   5.852  18.333  1.00  0.00     0.010 A 
HETATM    7  C19 UNL     1       6.829   4.995  17.235  1.00  0.00     0.021 A 
HETATM    8  C20 UNL     1       7.520   3.809  17.210  1.00  0.00     0.029 A 
HETATM    9 BR1  UNL     1       7.374   2.615  15.748  1.00  0.00    -0.050 Br
ENDROOT
BRANCH   5  10
HETATM   10  C6  UNL     1       8.005   6.408  20.592  1.00  0.00     0.163 C 
BRANCH  10  11
HETATM   11  N1  UNL     1       7.523   7.747  20.498  1.00  0.00    -0.360 N 
HETATM   12  C7  UNL     1       8.464   8.750  19.889  1.00  0.00     0.152 C 
BRANCH  11  13
HETATM   13  C8  UNL     1       6.286   8.206  20.929  1.00  0.00     0.167 C 
BRANCH  13  14
HETATM   14  O1  UNL     1       5.620   8.828  19.955  1.00  0.00    -0.344 OA
ATOM     15  H1  UNL     1       5.285   9.672  20.236  1.00  0.00     0.219 HD
ENDBRANCH  13  14
BRANCH  13  16
HETATM   16  C9  UNL     1       5.525   8.183  22.163  1.00  0.00     0.242 C 
BRANCH  16  17
HETATM   17  N2  UNL     1       5.947   8.633  23.362  1.00  0.00    -0.375 NA
HETATM   18  C10 UNL     1       6.378   9.096  24.590  1.00  0.00     0.325 C 
HETATM   19  O2  UNL     1       5.729   9.729  25.449  1.00  0.00    -0.251 OA
BRANCH  18  20
HETATM   20  C11 UNL     1       7.810   8.814  24.939  1.00  0.00     0.046 A 
HETATM   21  C12 UNL     1       8.064   7.916  25.944  1.00  0.00     0.020 A 
HETATM   22  C13 UNL     1       9.384   7.629  26.288  1.00  0.00     0.032 A 
HETATM   23  C14 UNL     1      10.433   8.241  25.626  1.00  0.00     0.055 A 
HETATM   24  C16 UNL     1      10.106   9.134  24.624  1.00  0.00     0.032 A 
HETATM   25  C17 UNL     1       8.808   9.434  24.267  1.00  0.00     0.020 A 
BRANCH  23  26
HETATM   26  N3  UNL     1      11.760   7.936  25.977  1.00  0.00    -0.236 N 
HETATM   27  C15 UNL     1      12.857   8.093  25.243  1.00  0.00     0.218 A 
HETATM   28  N4  UNL     1      13.963   7.667  25.934  1.00  0.00    -0.280 N 
HETATM   29  N5  UNL     1      13.478   7.253  27.103  1.00  0.00    -0.007 NA
ATOM     30  H4  UNL     1      14.934   7.666  25.622  1.00  0.00     0.184 HD
HETATM   31  N6  UNL     1      12.163   7.418  27.123  1.00  0.00    -0.000 NA
ENDBRANCH  23  26
ENDBRANCH  18  20
ENDBRANCH  16  17
ENDBRANCH  13  16
ENDBRANCH  11  13
ENDBRANCH  10  11
ENDBRANCH   5  10
TORSDOF 8
ENDMDL
MODEL 3
REMARK VINA RESULT: -8.791718201      1.217      1.658
REMARK  8 active torsions:
REMARK  status: ('A' for Active; 'I' for Inactive)
REMARK    1  A    between atoms: C5_5  and  C6_6 
REMARK    2  A    between atoms: C6_6  and  N1_7 
REMARK    3  A    between atoms: N1_7  and  C8_9 
REMARK    4  A    between atoms: C8_9  and  O1_10 
REMARK    5  A    between atoms: C8_9  and  C9_12 
REMARK    6  A    between atoms: C9_12  and  N2_13 
REMARK       I    between atoms: N2_13  and  C10_14 
REMARK    7  A    between atoms: C10_14  and  C11_16 
REMARK    8  A    between atoms: C14_19  and  N3_20 
ROOT
HETATM    1  C1  UNL     1       9.895   1.236  18.150  1.00  0.00     0.018 C 
HETATM    2  C2  UNL     1       8.875   1.761  18.540  1.00  0.00    -0.076 C 
HETATM    3  C3  UNL     1       7.673   2.393  19.017  1.00  0.00     0.034 A 
HETATM    4  C4  UNL     1       7.172   2.064  20.251  1.00  0.00     0.030 A 
HETATM    5  C5  UNL     1       6.003   2.638  20.794  1.00  0.00    -0.039 A 
HETATM    6  C18 UNL     1       5.380   3.560  20.007  1.00  0.00     0.010 A 
HETATM    7  C19 UNL     1       5.859   3.922  18.742  1.00  0.00     0.021 A 
HETATM    8  C20 UNL     1       7.003   3.335  18.260  1.00  0.00     0.029 A 
HETATM    9 BR1  UNL     1       7.701   3.790  16.560  1.00  0.00    -0.050 Br
ENDROOT
BRANCH   5  10
HETATM   10  C6  UNL     1       5.589   2.206  22.153  1.00  0.00     0.163 C 
BRANCH  10  11
HETATM   11  N1  UNL     1       4.188   2.261  22.414  1.00  0.00    -0.360 N 
HETATM   12  C7  UNL     1       3.333   1.275  21.664  1.00  0.00     0.152 C 
BRANCH  11  13
HETATM   13  C8  UNL     1       3.547   3.142  23.273  1.00  0.00     0.167 C 
BRANCH  13  14
HETATM   14  O1  UNL     1       3.186   2.552  24.414  1.00  0.00    -0.344 OA
ATOM     15  H1  UNL     1       3.185   3.161  25.143  1.00  0.00     0.219 HD
ENDBRANCH  13  14
BRANCH  13  16
HETATM   16  C9  UNL     1       3.172   4.543  23.257  1.00  0.00     0.242 C 
BRANCH  16  17
HETATM   17  N2  UNL     1       3.790   5.521  22.564  1.00  0.00    -0.375 NA
HETATM   18  C10 UNL     1       4.422   6.521  21.852  1.00  0.00     0.325 C 
HETATM   19  O2  UNL     1       4.081   7.031  20.763  1.00  0.00    -0.251 OA
BRANCH  18  20
HETATM   20  C11 UNL     1       5.686   7.065  22.452  1.00  0.00     0.046 A 
HETATM   21  C12 UNL     1       6.819   7.066  21.677  1.00  0.00     0.020 A 
HETATM   22  C13 UNL     1       8.006   7.570  22.204  1.00  0.00     0.032 A 
HETATM   23  C14 UNL     1       8.050   8.065  23.494  1.00  0.00     0.055 A 
HETATM   24  C16 UNL     1       6.874   8.035  24.218  1.00  0.00     0.032 A 
HETATM   25  C17 UNL     1       5.687   7.541  23.719  1.00  0.00     0.020 A 
BRANCH  23  26
HETATM   26  N3  UNL     1       9.253   8.579  24.011  1.00  0.00    -0.236 N 
HETATM   27  C15 UNL     1       9.744   8.437  25.238  1.00  0.00     0.218 A 
HETATM   28  N4  UNL     1      10.939   9.098  25.357  1.00  0.00    -0.280 N 
HETATM   29  N5  UNL     1      11.137   9.635  24.155  1.00  0.00    -0.007 NA
ATOM     30  H4  UNL     1      11.539   9.164  26.180  1.00  0.00     0.184 HD
HETATM   31  N6  UNL     1      10.128   9.321  23.356  1.00  0.00    -0.000 NA
ENDBRANCH  23  26
ENDBRANCH  18  20
ENDBRANCH  16  17
ENDBRANCH  13  16
ENDBRANCH  11  13
ENDBRANCH  10  11
ENDBRANCH   5  10
TORSDOF 8
ENDMDL
MODEL 4
REMARK VINA RESULT: -8.416378503      1.170      1.977
REMARK  8 active torsions:
REMARK  status: ('A' for Active; 'I' for Inactive)
REMARK    1  A    between atoms: C5_5  and  C6_6 
REMARK    2  A    between atoms: C6_6  and  N1_7 
REMARK    3  A    between atoms: N1_7  and  C8_9 
REMARK    4  A    between atoms: C8_9  and  O1_10 
REMARK    5  A    between atoms: C8_9  and  C9_12 
REMARK    6  A    between atoms: C9_12  and  N2_13 
REMARK       I    between atoms: N2_13  and  C10_14 
REMARK    7  A    between atoms: C10_14  and  C11_16 
REMARK    8  A    between atoms: C14_19  and  N3_20 
ROOT
HETATM    1  C1  UNL     1       6.811   2.663  15.489  1.00  0.00     0.018 C 
HETATM    2  C2  UNL     1       6.737   2.604  16.697  1.00  0.00    -0.076 C 
HETATM    3  C3  UNL     1       6.638   2.519  18.131  1.00  0.00     0.034 A 
HETATM    4  C4  UNL     1       5.419   2.669  18.742  1.00  0.00     0.030 A 
HETATM    5  C5  UNL     1       5.235   2.596  20.138  1.00  0.00    -0.039 A 
HETATM    6  C18 UNL     1       6.361   2.364  20.869  1.00  0.00     0.010 A 
HETATM    7  C19 UNL     1       7.623   2.207  20.283  1.00  0.00     0.021 A 
HETATM    8  C20 UNL     1       7.749   2.285  18.918  1.00  0.00     0.029 A 
HETATM    9 BR1  UNL     1       9.429   2.073  18.071  1.00  0.00    -0.050 Br
ENDROOT
BRANCH   5  10
HETATM   10  C6  UNL     1       3.854   2.753  20.661  1.00  0.00     0.163 C 
BRANCH  10  11
HETATM   11  N1  UNL     1       3.756   3.222  22.004  1.00  0.00    -0.360 N 
HETATM   12  C7  UNL     1       3.448   2.184  23.049  1.00  0.00     0.152 C 
BRANCH  11  13
HETATM   13  C8  UNL     1       3.898   4.536  22.427  1.00  0.00     0.167 C 
BRANCH  13  14
HETATM   14  O1  UNL     1       4.553   4.617  23.586  1.00  0.00    -0.344 OA
ATOM     15  H1  UNL     1       5.488   4.731  23.458  1.00  0.00     0.219 HD
ENDBRANCH  13  14
BRANCH  13  16
HETATM   16  C9  UNL     1       3.524   5.847  21.934  1.00  0.00     0.242 C 
BRANCH  16  17
HETATM   17  N2  UNL     1       4.322   6.934  21.889  1.00  0.00    -0.375 NA
HETATM   18  C10 UNL     1       5.139   8.046  21.842  1.00  0.00     0.325 C 
HETATM   19  O2  UNL     1       5.037   9.050  21.105  1.00  0.00    -0.251 OA
BRANCH  18  20
HETATM   20  C11 UNL     1       6.306   8.053  22.785  1.00  0.00     0.046 A 
HETATM   21  C12 UNL     1       7.550   8.319  22.270  1.00  0.00     0.020 A 
HETATM   22  C13 UNL     1       8.653   8.339  23.123  1.00  0.00     0.032 A 
HETATM   23  C14 UNL     1       8.502   8.093  24.475  1.00  0.00     0.055 A 
HETATM   24  C16 UNL     1       7.222   7.833  24.926  1.00  0.00     0.032 A 
HETATM   25  C17 UNL     1       6.117   7.807  24.102  1.00  0.00     0.020 A 
BRANCH  23  26
HETATM   26  N3  UNL     1       9.621   8.124  25.325  1.00  0.00    -0.236 N 
HETATM   27  C15 UNL     1       9.751   7.576  26.529  1.00  0.00     0.218 A 
HETATM   28  N4  UNL     1      10.994   7.838  27.046  1.00  0.00    -0.280 N 
HETATM   29  N5  UNL     1      11.595   8.560  26.102  1.00  0.00    -0.007 NA
ATOM     30  H4  UNL     1      11.371   7.547  27.948  1.00  0.00     0.184 HD
HETATM   31  N6  UNL     1      10.771   8.726  25.077  1.00  0.00    -0.000 NA
ENDBRANCH  23  26
ENDBRANCH  18  20
ENDBRANCH  16  17
ENDBRANCH  13  16
ENDBRANCH  11  13
ENDBRANCH  10  11
ENDBRANCH   5  10
TORSDOF 8
ENDMDL
MODEL 5
REMARK VINA RESULT: -8.407563118      2.482      2.996
REMARK  8 active torsions:
REMARK  status: ('A' for Active; 'I' for Inactive)
REMARK    1  A    between atoms: C5_5  and  C6_6 
REMARK    2  A    between atoms: C6_6  and  N1_7 
REMARK    3  A    between atoms: N1_7  and  C8_9 
REMARK    4  A    between atoms: C8_9  and  O1_10 
REMARK    5  A    between atoms: C8_9  and  C9_12 
REMARK    6  A    between atoms: C9_12  and  N2_13 
REMARK       I    between atoms: N2_13  and  C10_14 
REMARK    7  A    between atoms: C10_14  and  C11_16 
REMARK    8  A    between atoms: C14_19  and  N3_20 
ROOT
HETATM    1  C1  UNL     1       9.596   1.413  18.389  1.00  0.00     0.018 C 
HETATM    2  C2  UNL     1       8.599   1.965  18.801  1.00  0.00    -0.076 C 
HETATM    3  C3  UNL     1       7.424   2.626  19.307  1.00  0.00     0.034 A 
HETATM    4  C4  UNL     1       6.883   2.235  20.505  1.00  0.00     0.030 A 
HETATM    5  C5  UNL     1       5.737   2.832  21.072  1.00  0.00    -0.039 A 
HETATM    6  C18 UNL     1       5.180   3.844  20.347  1.00  0.00     0.010 A 
HETATM    7  C19 UNL     1       5.703   4.270  19.120  1.00  0.00     0.021 A 
HETATM    8  C20 UNL     1       6.822   3.657  18.612  1.00  0.00     0.029 A 
HETATM    9 BR1  UNL     1       7.576   4.197  16.962  1.00  0.00    -0.050 Br
ENDROOT
BRANCH   5  10
HETATM   10  C6  UNL     1       5.274   2.324  22.388  1.00  0.00     0.163 C 
BRANCH  10  11
HETATM   11  N1  UNL     1       3.861   2.214  22.541  1.00  0.00    -0.360 N 
HETATM   12  C7  UNL     1       3.143   1.391  21.507  1.00  0.00     0.152 C 
BRANCH  11  13
HETATM   13  C8  UNL     1       3.094   2.806  23.535  1.00  0.00     0.167 C 
BRANCH  13  14
HETATM   14  O1  UNL     1       3.185   2.148  24.692  1.00  0.00    -0.344 OA
ATOM     15  H1  UNL     1       2.682   1.342  24.683  1.00  0.00     0.219 HD
ENDBRANCH  13  14
BRANCH  13  16
HETATM   16  C9  UNL     1       2.221   3.959  23.646  1.00  0.00     0.242 C 
BRANCH  16  17
HETATM   17  N2  UNL     1       2.574   5.178  24.103  1.00  0.00    -0.375 NA
HETATM   18  C10 UNL     1       2.933   6.426  24.572  1.00  0.00     0.325 C 
HETATM   19  O2  UNL     1       2.377   7.110  25.458  1.00  0.00    -0.251 OA
BRANCH  18  20
HETATM   20  C11 UNL     1       4.139   7.052  23.934  1.00  0.00     0.046 A 
HETATM   21  C12 UNL     1       4.452   6.687  22.649  1.00  0.00     0.020 A 
HETATM   22  C13 UNL     1       5.562   7.255  22.028  1.00  0.00     0.032 A 
HETATM   23  C14 UNL     1       6.345   8.180  22.694  1.00  0.00     0.055 A 
HETATM   24  C16 UNL     1       5.973   8.503  23.985  1.00  0.00     0.032 A 
HETATM   25  C17 UNL     1       4.879   7.953  24.620  1.00  0.00     0.020 A 
BRANCH  23  26
HETATM   26  N3  UNL     1       7.458   8.753  22.053  1.00  0.00    -0.236 N 
HETATM   27  C15 UNL     1       8.721   8.339  22.079  1.00  0.00     0.218 A 
HETATM   28  N4  UNL     1       9.516   9.172  21.335  1.00  0.00    -0.280 N 
HETATM   29  N5  UNL     1       8.676  10.093  20.866  1.00  0.00    -0.007 NA
ATOM     30  H4  UNL     1      10.521   9.103  21.176  1.00  0.00     0.184 HD
HETATM   31  N6  UNL     1       7.449   9.836  21.298  1.00  0.00    -0.000 NA
ENDBRANCH  23  26
ENDBRANCH  18  20
ENDBRANCH  16  17
ENDBRANCH  13  16
ENDBRANCH  11  13
ENDBRANCH  10  11
ENDBRANCH   5  10
TORSDOF 8
ENDMDL
