MODEL 1
REMARK VINA RESULT: -8.253246688      0.000      0.000
REMARK  7 active torsions:
REMARK  status: ('A' for Active; 'I' for Inactive)
REMARK    1  A    between atoms: N1_2  and  S1_4 
REMARK    2  A    between atoms: S1_4  and  C3_7 
REMARK    3  A    between atoms: C8_14  and  C9_15 
REMARK    4  A    between atoms: C9_15  and  C10_16 
REMARK    5  A    between atoms: C10_16  and  N3_17 
REMARK    6  A    between atoms: C11_19  and  C12_20 
REMARK    7  A    between atoms: N5_27  and  O3_28 
ROOT
HETATM    1  C3  UNL     1       6.889   4.697  19.915  1.00  0.00     0.075 A 
HETATM    2  C4  UNL     1       7.336   5.644  19.012  1.00  0.00     0.027 A 
HETATM    3  C5  UNL     1       7.308   6.997  19.300  1.00  0.00     0.032 A 
HETATM    4  C6  UNL     1       6.828   7.443  20.513  1.00  0.00     0.043 A 
HETATM    5  N2  UNL     1       6.683   8.674  21.055  1.00  0.00    -0.365 N 
ATOM      6  H2  UNL     1       6.934   9.554  20.604  1.00  0.00     0.165 HD
HETATM    7  C7  UNL     1       6.157   8.552  22.282  1.00  0.00     0.096 A 
HETATM    8  C8  UNL     1       5.964   7.189  22.517  1.00  0.00    -0.029 A 
HETATM    9  C16 UNL     1       6.385   6.501  21.407  1.00  0.00    -0.000 A 
HETATM   10  C17 UNL     1       6.408   5.139  21.130  1.00  0.00     0.039 A 
ENDROOT
BRANCH   8  11
HETATM   11  C9  UNL     1       5.394   6.664  23.789  1.00  0.00     0.060 C 
BRANCH  11  12
HETATM   12  C10 UNL     1       5.945   7.478  24.911  1.00  0.00     0.123 C 
BRANCH  12  13
HETATM   13  N3  UNL     1       7.361   7.343  25.133  1.00  0.00    -0.397 N 
HETATM   14  C11 UNL     1       8.031   8.319  25.589  1.00  0.00     0.117 C 
ATOM     15  H3  UNL     1       7.827   6.461  24.922  1.00  0.00     0.158 HD
BRANCH  14  16
HETATM   16  C12 UNL     1       9.457   8.164  25.807  1.00  0.00     0.096 A 
HETATM   17  C13 UNL     1      10.356   8.632  24.866  1.00  0.00     0.038 A 
HETATM   18  C14 UNL     1      11.713   8.505  25.033  1.00  0.00     0.041 A 
HETATM   19  C15 UNL     1      12.177   7.889  26.178  1.00  0.00     0.096 A 
HETATM   20 BR1  UNL     1      14.046   7.724  26.389  1.00  0.00    -0.030 Br
HETATM   21  N4  UNL     1      11.276   7.440  27.080  1.00  0.00    -0.267 N 
HETATM   22  N5  UNL     1       9.974   7.575  26.896  1.00  0.00    -0.162 N 
ATOM     23  H4  UNL     1      11.611   6.983  27.929  1.00  0.00     0.190 HD
BRANCH  22  24
HETATM   24  O3  UNL     1       9.129   7.090  27.865  1.00  0.00    -0.267 OA
ATOM     25  H3  UNL     1       9.090   6.154  28.024  1.00  0.00     0.247 HD
ENDBRANCH  22  24
ENDBRANCH  14  16
ENDBRANCH  12  13
ENDBRANCH  11  12
ENDBRANCH   8  11
BRANCH   1  26
HETATM   26  S1  UNL     1       6.964   3.012  19.467  1.00  0.00     0.243 S 
HETATM   27  O1  UNL     1       7.191   2.152  20.692  1.00  0.00    -0.206 OA
HETATM   28  O2  UNL     1       5.629   2.653  18.825  1.00  0.00    -0.206 OA
BRANCH  26  29
HETATM   29  N1  UNL     1       8.164   2.712  18.279  1.00  0.00    -0.215 NA
HETATM   30  C1  UNL     1       7.503   2.326  17.046  1.00  0.00     0.129 C 
HETATM   31  C2  UNL     1       9.013   1.614  18.683  1.00  0.00     0.129 C 
ENDBRANCH  26  29
ENDBRANCH   1  26
TORSDOF 7
ENDMDL
MODEL 2
REMARK VINA RESULT: -8.021882192      1.808      2.392
REMARK  7 active torsions:
REMARK  status: ('A' for Active; 'I' for Inactive)
REMARK    1  A    between atoms: N1_2  and  S1_4 
REMARK    2  A    between atoms: S1_4  and  C3_7 
REMARK    3  A    between atoms: C8_14  and  C9_15 
REMARK    4  A    between atoms: C9_15  and  C10_16 
REMARK    5  A    between atoms: C10_16  and  N3_17 
REMARK    6  A    between atoms: C11_19  and  C12_20 
REMARK    7  A    between atoms: N5_27  and  O3_28 
ROOT
HETATM    1  C3  UNL     1       5.585   4.545  20.216  1.00  0.00     0.075 A 
HETATM    2  C4  UNL     1       4.506   3.689  20.325  1.00  0.00     0.027 A 
HETATM    3  C5  UNL     1       3.575   3.813  21.341  1.00  0.00     0.032 A 
HETATM    4  C6  UNL     1       3.700   4.810  22.284  1.00  0.00     0.043 A 
HETATM    5  N2  UNL     1       2.962   5.164  23.362  1.00  0.00    -0.365 N 
ATOM      6  H2  UNL     1       2.110   4.699  23.675  1.00  0.00     0.165 HD
HETATM    7  C7  UNL     1       3.532   6.224  23.952  1.00  0.00     0.096 A 
HETATM    8  C8  UNL     1       4.672   6.547  23.215  1.00  0.00    -0.029 A 
HETATM    9  C16 UNL     1       4.773   5.660  22.173  1.00  0.00    -0.000 A 
HETATM   10  C17 UNL     1       5.715   5.545  21.158  1.00  0.00     0.039 A 
ENDROOT
BRANCH   8  11
HETATM   11  C9  UNL     1       5.567   7.683  23.572  1.00  0.00     0.060 C 
BRANCH  11  12
HETATM   12  C10 UNL     1       5.983   7.513  24.995  1.00  0.00     0.123 C 
BRANCH  12  13
HETATM   13  N3  UNL     1       7.399   7.367  25.209  1.00  0.00    -0.397 N 
HETATM   14  C11 UNL     1       8.088   8.353  25.610  1.00  0.00     0.117 C 
ATOM     15  H3  UNL     1       7.848   6.468  25.039  1.00  0.00     0.158 HD
BRANCH  14  16
HETATM   16  C12 UNL     1       9.514   8.186  25.821  1.00  0.00     0.096 A 
HETATM   17  C13 UNL     1      10.412   8.626  24.866  1.00  0.00     0.038 A 
HETATM   18  C14 UNL     1      11.769   8.487  25.027  1.00  0.00     0.041 A 
HETATM   19  C15 UNL     1      12.234   7.887  26.181  1.00  0.00     0.096 A 
HETATM   20 BR1  UNL     1      14.102   7.705  26.383  1.00  0.00    -0.030 Br
HETATM   21  N4  UNL     1      11.334   7.466  27.097  1.00  0.00    -0.267 N 
HETATM   22  N5  UNL     1      10.032   7.612  26.918  1.00  0.00    -0.162 N 
ATOM     23  H4  UNL     1      11.669   7.022  27.952  1.00  0.00     0.190 HD
BRANCH  22  24
HETATM   24  O3  UNL     1       9.187   7.155  27.902  1.00  0.00    -0.267 OA
ATOM     25  H3  UNL     1       9.409   6.362  28.374  1.00  0.00     0.247 HD
ENDBRANCH  22  24
ENDBRANCH  14  16
ENDBRANCH  12  13
ENDBRANCH  11  12
ENDBRANCH   8  11
BRANCH   1  26
HETATM   26  S1  UNL     1       6.709   4.313  18.900  1.00  0.00     0.243 S 
HETATM   27  O1  UNL     1       6.015   3.651  17.729  1.00  0.00    -0.206 OA
HETATM   28  O2  UNL     1       7.217   5.690  18.488  1.00  0.00    -0.206 OA
BRANCH  26  29
HETATM   29  N1  UNL     1       8.089   3.416  19.380  1.00  0.00    -0.215 NA
HETATM   30  C1  UNL     1       9.107   3.556  18.356  1.00  0.00     0.129 C 
HETATM   31  C2  UNL     1       7.767   2.010  19.488  1.00  0.00     0.129 C 
ENDBRANCH  26  29
ENDBRANCH   1  26
TORSDOF 7
ENDMDL
MODEL 3
REMARK VINA RESULT: -7.947636471      3.823      7.352
REMARK  7 active torsions:
REMARK  status: ('A' for Active; 'I' for Inactive)
REMARK    1  A    between atoms: N1_2  and  S1_4 
REMARK    2  A    between atoms: S1_4  and  C3_7 
REMARK    3  A    between atoms: C8_14  and  C9_15 
REMARK    4  A    between atoms: C9_15  and  C10_16 
REMARK    5  A    between atoms: C10_16  and  N3_17 
REMARK    6  A    between atoms: C11_19  and  C12_20 
REMARK    7  A    between atoms: N5_27  and  O3_28 
ROOT
HETATM    1  C3  UNL     1       5.832   8.213  24.222  1.00  0.00     0.075 A 
HETATM    2  C4  UNL     1       5.212   9.131  25.049  1.00  0.00     0.027 A 
HETATM    3  C5  UNL     1       3.939   8.921  25.548  1.00  0.00     0.032 A 
HETATM    4  C6  UNL     1       3.245   7.773  25.230  1.00  0.00     0.043 A 
HETATM    5  N2  UNL     1       2.018   7.310  25.562  1.00  0.00    -0.365 N 
ATOM      6  H2  UNL     1       1.346   7.789  26.163  1.00  0.00     0.165 HD
HETATM    7  C7  UNL     1       1.826   6.120  24.976  1.00  0.00     0.096 A 
HETATM    8  C8  UNL     1       2.979   5.826  24.247  1.00  0.00    -0.029 A 
HETATM    9  C16 UNL     1       3.864   6.863  24.409  1.00  0.00    -0.000 A 
HETATM   10  C17 UNL     1       5.141   7.062  23.901  1.00  0.00     0.039 A 
ENDROOT
BRANCH   8  11
HETATM   11  C9  UNL     1       3.136   4.572  23.458  1.00  0.00     0.060 C 
BRANCH  11  12
HETATM   12  C10 UNL     1       2.943   4.907  22.017  1.00  0.00     0.123 C 
BRANCH  12  13
HETATM   13  N3  UNL     1       4.063   4.615  21.161  1.00  0.00    -0.397 N 
HETATM   14  C11 UNL     1       5.086   4.028  21.629  1.00  0.00     0.117 C 
ATOM     15  H3  UNL     1       4.034   4.879  20.177  1.00  0.00     0.158 HD
BRANCH  14  16
HETATM   16  C12 UNL     1       6.205   3.741  20.750  1.00  0.00     0.096 A 
HETATM   17  C13 UNL     1       6.481   2.436  20.386  1.00  0.00     0.038 A 
HETATM   18  C14 UNL     1       7.529   2.120  19.557  1.00  0.00     0.041 A 
HETATM   19  C15 UNL     1       8.321   3.147  19.081  1.00  0.00     0.096 A 
HETATM   20 BR1  UNL     1       9.757   2.692  17.943  1.00  0.00    -0.030 Br
HETATM   21  N4  UNL     1       8.029   4.412  19.454  1.00  0.00    -0.267 N 
HETATM   22  N5  UNL     1       7.013   4.690  20.254  1.00  0.00    -0.162 N 
ATOM     23  H4  UNL     1       8.609   5.177  19.108  1.00  0.00     0.190 HD
BRANCH  22  24
HETATM   24  O3  UNL     1       6.787   6.006  20.582  1.00  0.00    -0.267 OA
ATOM     25  H3  UNL     1       6.820   6.668  19.902  1.00  0.00     0.247 HD
ENDBRANCH  22  24
ENDBRANCH  14  16
ENDBRANCH  12  13
ENDBRANCH  11  12
ENDBRANCH   8  11
BRANCH   1  26
HETATM   26  S1  UNL     1       7.441   8.562  23.641  1.00  0.00     0.243 S 
HETATM   27  O1  UNL     1       8.053   7.325  23.017  1.00  0.00    -0.206 OA
HETATM   28  O2  UNL     1       7.317   9.660  22.593  1.00  0.00    -0.206 OA
BRANCH  26  29
HETATM   29  N1  UNL     1       8.452   9.187  24.876  1.00  0.00    -0.215 NA
HETATM   30  C1  UNL     1       9.705   9.607  24.276  1.00  0.00     0.129 C 
HETATM   31  C2  UNL     1       8.756   8.163  25.850  1.00  0.00     0.129 C 
ENDBRANCH  26  29
ENDBRANCH   1  26
TORSDOF 7
ENDMDL
MODEL 4
REMARK VINA RESULT: -7.935587226      2.132      2.783
REMARK  7 active torsions:
REMARK  status: ('A' for Active; 'I' for Inactive)
REMARK    1  A    between atoms: N1_2  and  S1_4 
REMARK    2  A    between atoms: S1_4  and  C3_7 
REMARK    3  A    between atoms: C8_14  and  C9_15 
REMARK    4  A    between atoms: C9_15  and  C10_16 
REMARK    5  A    between atoms: C10_16  and  N3_17 
REMARK    6  A    between atoms: C11_19  and  C12_20 
REMARK    7  A    between atoms: N5_27  and  O3_28 
ROOT
HETATM    1  C3  UNL     1       6.822   3.831  19.413  1.00  0.00     0.075 A 
HETATM    2  C4  UNL     1       6.165   2.748  19.967  1.00  0.00     0.027 A 
HETATM    3  C5  UNL     1       5.367   2.875  21.090  1.00  0.00     0.032 A 
HETATM    4  C6  UNL     1       5.204   4.103  21.695  1.00  0.00     0.043 A 
HETATM    5  N2  UNL     1       4.504   4.517  22.777  1.00  0.00    -0.365 N 
ATOM      6  H2  UNL     1       3.928   3.922  23.373  1.00  0.00     0.165 HD
HETATM    7  C7  UNL     1       4.688   5.835  22.938  1.00  0.00     0.096 A 
HETATM    8  C8  UNL     1       5.538   6.263  21.917  1.00  0.00    -0.029 A 
HETATM    9  C16 UNL     1       5.858   5.177  21.143  1.00  0.00    -0.000 A 
HETATM   10  C17 UNL     1       6.661   5.062  20.016  1.00  0.00     0.039 A 
ENDROOT
BRANCH   8  11
HETATM   11  C9  UNL     1       5.969   7.681  21.770  1.00  0.00     0.060 C 
BRANCH  11  12
HETATM   12  C10 UNL     1       6.253   8.221  23.132  1.00  0.00     0.123 C 
BRANCH  12  13
HETATM   13  N3  UNL     1       7.591   8.000  23.614  1.00  0.00    -0.397 N 
HETATM   14  C11 UNL     1       8.026   8.654  24.610  1.00  0.00     0.117 C 
ATOM     15  H3  UNL     1       8.191   7.317  23.153  1.00  0.00     0.158 HD
BRANCH  14  16
HETATM   16  C12 UNL     1       9.377   8.416  25.082  1.00  0.00     0.096 A 
HETATM   17  C13 UNL     1       9.586   7.778  26.291  1.00  0.00     0.038 A 
HETATM   18  C14 UNL     1      10.848   7.534  26.775  1.00  0.00     0.041 A 
HETATM   19  C15 UNL     1      11.930   7.944  26.020  1.00  0.00     0.096 A 
HETATM   20 BR1  UNL     1      13.656   7.599  26.701  1.00  0.00    -0.030 Br
HETATM   21  N4  UNL     1      11.696   8.566  24.843  1.00  0.00    -0.267 N 
HETATM   22  N5  UNL     1      10.470   8.789  24.400  1.00  0.00    -0.162 N 
ATOM     23  H4  UNL     1      12.489   8.873  24.279  1.00  0.00     0.190 HD
BRANCH  22  24
HETATM   24  O3  UNL     1      10.325   9.428  23.191  1.00  0.00    -0.267 OA
ATOM     25  H3  UNL     1      10.802  10.234  23.029  1.00  0.00     0.247 HD
ENDBRANCH  22  24
ENDBRANCH  14  16
ENDBRANCH  12  13
ENDBRANCH  11  12
ENDBRANCH   8  11
BRANCH   1  26
HETATM   26  S1  UNL     1       7.807   3.577  17.994  1.00  0.00     0.243 S 
HETATM   27  O1  UNL     1       7.428   4.563  16.909  1.00  0.00    -0.206 OA
HETATM   28  O2  UNL     1       9.258   3.792  18.403  1.00  0.00    -0.206 OA
BRANCH  26  29
HETATM   29  N1  UNL     1       7.704   1.966  17.417  1.00  0.00    -0.215 NA
HETATM   30  C1  UNL     1       9.050   1.474  17.186  1.00  0.00     0.129 C 
HETATM   31  C2  UNL     1       6.999   1.923  16.155  1.00  0.00     0.129 C 
ENDBRANCH  26  29
ENDBRANCH   1  26
TORSDOF 7
ENDMDL
MODEL 5
REMARK VINA RESULT: -7.876436114      3.445      7.881
REMARK  7 active torsions:
REMARK  status: ('A' for Active; 'I' for Inactive)
REMARK    1  A    between atoms: N1_2  and  S1_4 
REMARK    2  A    between atoms: S1_4  and  C3_7 
REMARK    3  A    between atoms: C8_14  and  C9_15 
REMARK    4  A    between atoms: C9_15  and  C10_16 
REMARK    5  A    between atoms: C10_16  and  N3_17 
REMARK    6  A    between atoms: C11_19  and  C12_20 
REMARK    7  A    between atoms: N5_27  and  O3_28 
ROOT
HETATM    1  C3  UNL     1       9.340   8.543  24.529  1.00  0.00     0.075 A 
HETATM    2  C4  UNL     1       8.421   8.313  25.535  1.00  0.00     0.027 A 
HETATM    3  C5  UNL     1       7.089   8.056  25.263  1.00  0.00     0.032 A 
HETATM    4  C6  UNL     1       6.637   8.020  23.962  1.00  0.00     0.043 A 
HETATM    5  N2  UNL     1       5.422   7.799  23.409  1.00  0.00    -0.365 N 
ATOM      6  H2  UNL     1       4.564   7.603  23.924  1.00  0.00     0.165 HD
HETATM    7  C7  UNL     1       5.528   7.878  22.075  1.00  0.00     0.096 A 
HETATM    8  C8  UNL     1       6.863   8.161  21.781  1.00  0.00    -0.029 A 
HETATM    9  C16 UNL     1       7.552   8.249  22.964  1.00  0.00    -0.000 A 
HETATM   10  C17 UNL     1       8.892   8.508  23.224  1.00  0.00     0.039 A 
ENDROOT
BRANCH   8  11
HETATM   11  C9  UNL     1       7.364   8.319  20.387  1.00  0.00     0.060 C 
BRANCH  11  12
HETATM   12  C10 UNL     1       6.633   7.349  19.521  1.00  0.00     0.123 C 
BRANCH  12  13
HETATM   13  N3  UNL     1       7.383   6.183  19.133  1.00  0.00    -0.397 N 
HETATM   14  C11 UNL     1       7.102   5.050  19.630  1.00  0.00     0.117 C 
ATOM     15  H3  UNL     1       8.141   6.268  18.457  1.00  0.00     0.158 HD
BRANCH  14  16
HETATM   16  C12 UNL     1       7.869   3.886  19.226  1.00  0.00     0.096 A 
HETATM   17  C13 UNL     1       8.901   4.020  18.315  1.00  0.00     0.038 A 
HETATM   18  C14 UNL     1       9.651   2.945  17.905  1.00  0.00     0.041 A 
HETATM   19  C15 UNL     1       9.354   1.701  18.427  1.00  0.00     0.096 A 
HETATM   20 BR1  UNL     1      10.396   0.236  17.852  1.00  0.00    -0.030 Br
HETATM   21  N4  UNL     1       8.340   1.600  19.315  1.00  0.00    -0.267 N 
HETATM   22  N5  UNL     1       7.632   2.651  19.693  1.00  0.00    -0.162 N 
ATOM     23  H4  UNL     1       8.113   0.685  19.705  1.00  0.00     0.190 HD
BRANCH  22  24
HETATM   24  O3  UNL     1       6.619   2.458  20.602  1.00  0.00    -0.267 OA
ATOM     25  H3  UNL     1       6.433   1.580  20.913  1.00  0.00     0.247 HD
ENDBRANCH  22  24
ENDBRANCH  14  16
ENDBRANCH  12  13
ENDBRANCH  11  12
ENDBRANCH   8  11
BRANCH   1  26
HETATM   26  S1  UNL     1      11.001   8.858  24.966  1.00  0.00     0.243 S 
HETATM   27  O1  UNL     1      11.793   9.282  23.747  1.00  0.00    -0.206 OA
HETATM   28  O2  UNL     1      10.994   9.983  25.994  1.00  0.00    -0.206 OA
BRANCH  26  29
HETATM   29  N1  UNL     1      11.733   7.511  25.733  1.00  0.00    -0.215 NA
HETATM   30  C1  UNL     1      11.255   7.446  27.102  1.00  0.00     0.129 C 
HETATM   31  C2  UNL     1      13.169   7.673  25.778  1.00  0.00     0.129 C 
ENDBRANCH  26  29
ENDBRANCH   1  26
TORSDOF 7
ENDMDL
