MODEL 1
REMARK VINA RESULT: -10.671034281      0.000      0.000
REMARK  6 active torsions:
REMARK  status: ('A' for Active; 'I' for Inactive)
REMARK    1  A    between atoms: C5_5  and  C6_6 
REMARK    2  A    between atoms: C6_6  and  N1_7 
REMARK    3  A    between atoms: C8_9  and  C9_10 
REMARK    4  A    between atoms: C9_10  and  N2_11 
REMARK       I    between atoms: N2_11  and  C10_13 
REMARK    5  A    between atoms: C10_13  and  C11_15 
REMARK    6  A    between atoms: C11_15  and  C12_16 
ROOT
HETATM    1  N1  UNL     1       6.553   6.201  19.749  1.00  0.00    -0.343 N 
HETATM    2  C7  UNL     1       5.809   6.126  18.579  1.00  0.00     0.118 A 
HETATM    3  C8  UNL     1       5.571   7.189  17.771  1.00  0.00     0.044 A 
HETATM    4  N3  UNL     1       6.069   8.392  18.094  1.00  0.00    -0.341 N 
ATOM      5  H3  UNL     1       5.894   9.199  17.494  1.00  0.00     0.167 HD
HETATM    6  C18 UNL     1       6.801   8.523  19.215  1.00  0.00     0.144 A 
HETATM    7  C19 UNL     1       7.030   7.417  20.023  1.00  0.00     0.148 A 
HETATM    8  C20 UNL     1       7.822   7.645  21.120  1.00  0.00     0.282 A 
HETATM    9  O2  UNL     1       8.110   6.751  21.905  1.00  0.00    -0.265 OA
HETATM   10  N4  UNL     1       8.348   8.867  21.414  1.00  0.00    -0.269 N 
HETATM   11  C21 UNL     1       9.170   9.025  22.589  1.00  0.00     0.164 C 
HETATM   12  C22 UNL     1       8.096   9.907  20.607  1.00  0.00     0.332 A 
HETATM   13  O3  UNL     1       8.564  11.034  20.855  1.00  0.00    -0.246 OA
HETATM   14  N5  UNL     1       7.335   9.714  19.536  1.00  0.00    -0.287 N 
HETATM   15  C23 UNL     1       7.046  10.828  18.639  1.00  0.00     0.163 C 
ENDROOT
BRANCH   3  16
HETATM   16  C9  UNL     1       4.767   7.098  16.515  1.00  0.00     0.181 C 
BRANCH  16  17
HETATM   17  N2  UNL     1       5.534   7.491  15.353  1.00  0.00    -0.355 N 
HETATM   18  C10 UNL     1       5.835   6.602  14.290  1.00  0.00     0.222 C 
HETATM   19  O1  UNL     1       5.425   5.415  14.345  1.00  0.00    -0.273 OA
ATOM     20  H2  UNL     1       5.873   8.451  15.295  1.00  0.00     0.162 HD
BRANCH  18  21
HETATM   21  C11 UNL     1       6.621   7.011  13.105  1.00  0.00     0.141 C 
BRANCH  21  22
HETATM   22  C12 UNL     1       6.322   8.424  12.728  1.00  0.00    -0.049 A 
HETATM   23  C13 UNL     1       7.268   9.420  12.849  1.00  0.00     0.011 A 
HETATM   24  C14 UNL     1       6.931  10.696  12.488  1.00  0.00     0.043 A 
HETATM   25  C15 UNL     1       5.692  11.053  12.005  1.00  0.00     0.116 A 
HETATM   26  F1  UNL     1       5.396  12.339  11.655  1.00  0.00    -0.206 F 
HETATM   27  C16 UNL     1       4.746  10.049  11.885  1.00  0.00     0.043 A 
HETATM   28  C17 UNL     1       5.074   8.759  12.247  1.00  0.00     0.011 A 
ENDBRANCH  21  22
ENDBRANCH  18  21
ENDBRANCH  16  17
ENDBRANCH   3  16
BRANCH   1  29
HETATM   29  C6  UNL     1       6.623   5.015  20.559  1.00  0.00     0.167 C 
BRANCH  29  30
HETATM   30  C5  UNL     1       7.498   4.031  19.833  1.00  0.00    -0.040 A 
HETATM   31  C4  UNL     1       7.323   2.652  20.055  1.00  0.00     0.009 A 
HETATM   32  C3  UNL     1       8.085   1.690  19.436  1.00  0.00     0.007 A 
HETATM   33  C2  UNL     1       9.078   2.038  18.548  1.00  0.00    -0.062 A 
HETATM   34  C1  UNL     1       9.915   0.996  17.867  1.00  0.00     0.048 C 
HETATM   35  C25 UNL     1       9.266   3.374  18.318  1.00  0.00     0.007 A 
HETATM   36  C24 UNL     1       8.492   4.329  18.948  1.00  0.00     0.009 A 
ENDBRANCH  29  30
ENDBRANCH   1  29
TORSDOF 6
ENDMDL
MODEL 2
REMARK VINA RESULT: -10.611392148      5.097      8.116
REMARK  6 active torsions:
REMARK  status: ('A' for Active; 'I' for Inactive)
REMARK    1  A    between atoms: C5_5  and  C6_6 
REMARK    2  A    between atoms: C6_6  and  N1_7 
REMARK    3  A    between atoms: C8_9  and  C9_10 
REMARK    4  A    between atoms: C9_10  and  N2_11 
REMARK       I    between atoms: N2_11  and  C10_13 
REMARK    5  A    between atoms: C10_13  and  C11_15 
REMARK    6  A    between atoms: C11_15  and  C12_16 
ROOT
HETATM    1  N1  UNL     1       6.344   5.548  19.662  1.00  0.00    -0.343 N 
HETATM    2  C7  UNL     1       7.421   6.422  19.606  1.00  0.00     0.118 A 
HETATM    3  C8  UNL     1       7.741   7.285  20.601  1.00  0.00     0.044 A 
HETATM    4  N3  UNL     1       6.994   7.319  21.714  1.00  0.00    -0.341 N 
ATOM      5  H3  UNL     1       7.224   7.967  22.469  1.00  0.00     0.167 HD
HETATM    6  C18 UNL     1       5.938   6.493  21.826  1.00  0.00     0.144 A 
HETATM    7  C19 UNL     1       5.635   5.618  20.790  1.00  0.00     0.148 A 
HETATM    8  C20 UNL     1       4.566   4.788  21.017  1.00  0.00     0.282 A 
HETATM    9  O2  UNL     1       4.204   3.962  20.189  1.00  0.00    -0.265 OA
HETATM   10  N4  UNL     1       3.839   4.813  22.169  1.00  0.00    -0.269 N 
HETATM   11  C21 UNL     1       2.727   3.908  22.329  1.00  0.00     0.164 C 
HETATM   12  C22 UNL     1       4.166   5.678  23.139  1.00  0.00     0.332 A 
HETATM   13  O3  UNL     1       3.516   5.721  24.201  1.00  0.00    -0.246 OA
HETATM   14  N5  UNL     1       5.199   6.490  22.947  1.00  0.00    -0.287 N 
HETATM   15  C23 UNL     1       5.578   7.441  23.988  1.00  0.00     0.163 C 
ENDROOT
BRANCH   3  16
HETATM   16  C9  UNL     1       8.902   8.223  20.530  1.00  0.00     0.181 C 
BRANCH  16  17
HETATM   17  N2  UNL     1       9.197   8.816  21.816  1.00  0.00    -0.355 N 
HETATM   18  C10 UNL     1       8.534   9.971  22.303  1.00  0.00     0.222 C 
HETATM   19  O1  UNL     1       7.648  10.516  21.599  1.00  0.00    -0.273 OA
ATOM     20  H2  UNL     1       9.914   8.385  22.399  1.00  0.00     0.162 HD
BRANCH  18  21
HETATM   21  C11 UNL     1       8.841  10.572  23.620  1.00  0.00     0.141 C 
BRANCH  21  22
HETATM   22  C12 UNL     1       9.441   9.563  24.541  1.00  0.00    -0.049 A 
HETATM   23  C13 UNL     1       8.657   8.706  25.285  1.00  0.00     0.011 A 
HETATM   24  C14 UNL     1       9.268   7.804  26.112  1.00  0.00     0.043 A 
HETATM   25  C15 UNL     1      10.634   7.695  26.251  1.00  0.00     0.116 A 
HETATM   26  F1  UNL     1      11.204   6.781  27.088  1.00  0.00    -0.206 F 
HETATM   27  C16 UNL     1      11.416   8.557  25.501  1.00  0.00     0.043 A 
HETATM   28  C17 UNL     1      10.812   9.472  24.664  1.00  0.00     0.011 A 
ENDBRANCH  21  22
ENDBRANCH  18  21
ENDBRANCH  16  17
ENDBRANCH   3  16
BRANCH   1  29
HETATM   29  C6  UNL     1       6.063   4.776  18.482  1.00  0.00     0.167 C 
BRANCH  29  30
HETATM   30  C5  UNL     1       7.180   3.782  18.324  1.00  0.00    -0.040 A 
HETATM   31  C4  UNL     1       7.274   2.696  19.216  1.00  0.00     0.009 A 
HETATM   32  C3  UNL     1       8.268   1.750  19.142  1.00  0.00     0.007 A 
HETATM   33  C2  UNL     1       9.240   1.819  18.169  1.00  0.00    -0.062 A 
HETATM   34  C1  UNL     1      10.328   0.790  18.081  1.00  0.00     0.048 C 
HETATM   35  C25 UNL     1       9.168   2.866  17.292  1.00  0.00     0.007 A 
HETATM   36  C24 UNL     1       8.163   3.810  17.380  1.00  0.00     0.009 A 
ENDBRANCH  29  30
ENDBRANCH   1  29
TORSDOF 6
ENDMDL
MODEL 3
REMARK VINA RESULT: -10.550430699      4.743      7.546
REMARK  6 active torsions:
REMARK  status: ('A' for Active; 'I' for Inactive)
REMARK    1  A    between atoms: C5_5  and  C6_6 
REMARK    2  A    between atoms: C6_6  and  N1_7 
REMARK    3  A    between atoms: C8_9  and  C9_10 
REMARK    4  A    between atoms: C9_10  and  N2_11 
REMARK       I    between atoms: N2_11  and  C10_13 
REMARK    5  A    between atoms: C10_13  and  C11_15 
REMARK    6  A    between atoms: C11_15  and  C12_16 
ROOT
HETATM    1  N1  UNL     1       7.347   8.929  23.163  1.00  0.00    -0.343 N 
HETATM    2  C7  UNL     1       7.991   8.544  21.994  1.00  0.00     0.118 A 
HETATM    3  C8  UNL     1       7.541   7.558  21.179  1.00  0.00     0.044 A 
HETATM    4  N3  UNL     1       6.415   6.901  21.492  1.00  0.00    -0.341 N 
ATOM      5  H3  UNL     1       6.068   6.156  20.887  1.00  0.00     0.167 HD
HETATM    6  C18 UNL     1       5.747   7.233  22.611  1.00  0.00     0.144 A 
HETATM    7  C19 UNL     1       6.230   8.248  23.427  1.00  0.00     0.148 A 
HETATM    8  C20 UNL     1       5.456   8.540  24.522  1.00  0.00     0.282 A 
HETATM    9  O2  UNL     1       5.764   9.422  25.313  1.00  0.00    -0.265 OA
HETATM   10  N4  UNL     1       4.295   7.885  24.806  1.00  0.00    -0.269 N 
HETATM   11  C21 UNL     1       3.540   8.251  25.979  1.00  0.00     0.164 C 
HETATM   12  C22 UNL     1       3.871   6.909  23.992  1.00  0.00     0.332 A 
HETATM   13  O3  UNL     1       2.814   6.294  24.230  1.00  0.00    -0.246 OA
HETATM   14  N5  UNL     1       4.599   6.608  22.923  1.00  0.00    -0.287 N 
HETATM   15  C23 UNL     1       4.158   5.551  22.018  1.00  0.00     0.163 C 
ENDROOT
BRANCH   3  16
HETATM   16  C9  UNL     1       8.243   7.150  19.924  1.00  0.00     0.181 C 
BRANCH  16  17
HETATM   17  N2  UNL     1       7.793   5.860  19.449  1.00  0.00    -0.355 N 
HETATM   18  C10 UNL     1       6.907   5.707  18.352  1.00  0.00     0.222 C 
HETATM   19  O1  UNL     1       6.485   6.728  17.755  1.00  0.00    -0.273 OA
ATOM     20  H2  UNL     1       8.128   5.022  19.925  1.00  0.00     0.162 HD
BRANCH  18  21
HETATM   21  C11 UNL     1       6.452   4.384  17.873  1.00  0.00     0.141 C 
BRANCH  21  22
HETATM   22  C12 UNL     1       7.534   3.366  18.006  1.00  0.00    -0.049 A 
HETATM   23  C13 UNL     1       7.531   2.435  19.024  1.00  0.00     0.011 A 
HETATM   24  C14 UNL     1       8.553   1.529  19.092  1.00  0.00     0.043 A 
HETATM   25  C15 UNL     1       9.598   1.485  18.196  1.00  0.00     0.116 A 
HETATM   26  F1  UNL     1      10.600   0.563  18.299  1.00  0.00    -0.206 F 
HETATM   27  C16 UNL     1       9.596   2.421  17.175  1.00  0.00     0.043 A 
HETATM   28  C17 UNL     1       8.572   3.340  17.097  1.00  0.00     0.011 A 
ENDBRANCH  21  22
ENDBRANCH  18  21
ENDBRANCH  16  17
ENDBRANCH   3  16
BRANCH   1  29
HETATM   29  C6  UNL     1       8.006   9.910  23.982  1.00  0.00     0.167 C 
BRANCH  29  30
HETATM   30  C5  UNL     1       9.086   9.197  24.748  1.00  0.00    -0.040 A 
HETATM   31  C4  UNL     1      10.436   9.428  24.420  1.00  0.00     0.009 A 
HETATM   32  C3  UNL     1      11.480   8.812  25.068  1.00  0.00     0.007 A 
HETATM   33  C2  UNL     1      11.250   7.920  26.092  1.00  0.00    -0.062 A 
HETATM   34  C1  UNL     1      12.383   7.243  26.805  1.00  0.00     0.048 C 
HETATM   35  C25 UNL     1       9.945   7.681  26.427  1.00  0.00     0.007 A 
HETATM   36  C24 UNL     1       8.907   8.307  25.766  1.00  0.00     0.009 A 
ENDBRANCH  29  30
ENDBRANCH   1  29
TORSDOF 6
ENDMDL
MODEL 4
REMARK VINA RESULT: -10.533747271      5.142      8.907
REMARK  6 active torsions:
REMARK  status: ('A' for Active; 'I' for Inactive)
REMARK    1  A    between atoms: C5_5  and  C6_6 
REMARK    2  A    between atoms: C6_6  and  N1_7 
REMARK    3  A    between atoms: C8_9  and  C9_10 
REMARK    4  A    between atoms: C9_10  and  N2_11 
REMARK       I    between atoms: N2_11  and  C10_13 
REMARK    5  A    between atoms: C10_13  and  C11_15 
REMARK    6  A    between atoms: C11_15  and  C12_16 
ROOT
HETATM    1  N1  UNL     1       6.140   5.449  19.614  1.00  0.00    -0.343 N 
HETATM    2  C7  UNL     1       7.118   6.309  20.098  1.00  0.00     0.118 A 
HETATM    3  C8  UNL     1       7.058   6.906  21.314  1.00  0.00     0.044 A 
HETATM    4  N3  UNL     1       6.008   6.675  22.115  1.00  0.00    -0.341 N 
ATOM      5  H3  UNL     1       5.951   7.121  23.031  1.00  0.00     0.167 HD
HETATM    6  C18 UNL     1       5.031   5.848  21.700  1.00  0.00     0.144 A 
HETATM    7  C19 UNL     1       5.120   5.248  20.451  1.00  0.00     0.148 A 
HETATM    8  C20 UNL     1       4.097   4.390  20.138  1.00  0.00     0.282 A 
HETATM    9  O2  UNL     1       4.063   3.788  19.072  1.00  0.00    -0.265 OA
HETATM   10  N4  UNL     1       3.055   4.139  20.979  1.00  0.00    -0.269 N 
HETATM   11  C21 UNL     1       2.016   3.224  20.574  1.00  0.00     0.164 C 
HETATM   12  C22 UNL     1       3.009   4.745  22.174  1.00  0.00     0.332 A 
HETATM   13  O3  UNL     1       2.067   4.533  22.961  1.00  0.00    -0.246 OA
HETATM   14  N5  UNL     1       3.989   5.577  22.504  1.00  0.00    -0.287 N 
HETATM   15  C23 UNL     1       3.966   6.249  23.800  1.00  0.00     0.163 C 
ENDROOT
BRANCH   3  16
HETATM   16  C9  UNL     1       8.115   7.832  21.824  1.00  0.00     0.181 C 
BRANCH  16  17
HETATM   17  N2  UNL     1       8.331   7.673  23.245  1.00  0.00    -0.355 N 
HETATM   18  C10 UNL     1       8.040   8.690  24.189  1.00  0.00     0.222 C 
HETATM   19  O1  UNL     1       7.572   9.786  23.789  1.00  0.00    -0.273 OA
ATOM     20  H2  UNL     1       8.711   6.789  23.584  1.00  0.00     0.162 HD
BRANCH  18  21
HETATM   21  C11 UNL     1       8.265   8.520  25.641  1.00  0.00     0.141 C 
BRANCH  21  22
HETATM   22  C12 UNL     1       9.695   8.206  25.927  1.00  0.00    -0.049 A 
HETATM   23  C13 UNL     1      10.721   8.820  25.240  1.00  0.00     0.011 A 
HETATM   24  C14 UNL     1      12.012   8.488  25.549  1.00  0.00     0.043 A 
HETATM   25  C15 UNL     1      12.356   7.569  26.514  1.00  0.00     0.116 A 
HETATM   26  F1  UNL     1      13.658   7.265  26.792  1.00  0.00    -0.206 F 
HETATM   27  C16 UNL     1      11.322   6.956  27.201  1.00  0.00     0.043 A 
HETATM   28  C17 UNL     1      10.016   7.282  26.899  1.00  0.00     0.011 A 
ENDBRANCH  21  22
ENDBRANCH  18  21
ENDBRANCH  16  17
ENDBRANCH   3  16
BRANCH   1  29
HETATM   29  C6  UNL     1       6.287   4.984  18.262  1.00  0.00     0.167 C 
BRANCH  29  30
HETATM   30  C5  UNL     1       7.301   3.872  18.282  1.00  0.00    -0.040 A 
HETATM   31  C4  UNL     1       8.328   3.854  17.319  1.00  0.00     0.009 A 
HETATM   32  C3  UNL     1       9.288   2.871  17.266  1.00  0.00     0.007 A 
HETATM   33  C2  UNL     1       9.291   1.836  18.174  1.00  0.00    -0.062 A 
HETATM   34  C1  UNL     1      10.334   0.759  18.125  1.00  0.00     0.048 C 
HETATM   35  C25 UNL     1       8.301   1.835  19.119  1.00  0.00     0.007 A 
HETATM   36  C24 UNL     1       7.343   2.829  19.158  1.00  0.00     0.009 A 
ENDBRANCH  29  30
ENDBRANCH   1  29
TORSDOF 6
ENDMDL
MODEL 5
REMARK VINA RESULT: -10.266856483      1.414      1.715
REMARK  6 active torsions:
REMARK  status: ('A' for Active; 'I' for Inactive)
REMARK    1  A    between atoms: C5_5  and  C6_6 
REMARK    2  A    between atoms: C6_6  and  N1_7 
REMARK    3  A    between atoms: C8_9  and  C9_10 
REMARK    4  A    between atoms: C9_10  and  N2_11 
REMARK       I    between atoms: N2_11  and  C10_13 
REMARK    5  A    between atoms: C10_13  and  C11_15 
REMARK    6  A    between atoms: C11_15  and  C12_16 
ROOT
HETATM    1  N1  UNL     1       6.603   6.232  19.971  1.00  0.00    -0.343 N 
HETATM    2  C7  UNL     1       5.890   6.147  18.782  1.00  0.00     0.118 A 
HETATM    3  C8  UNL     1       5.614   7.215  17.994  1.00  0.00     0.044 A 
HETATM    4  N3  UNL     1       6.040   8.434  18.355  1.00  0.00    -0.341 N 
ATOM      5  H3  UNL     1       5.836   9.245  17.771  1.00  0.00     0.167 HD
HETATM    6  C18 UNL     1       6.739   8.577  19.496  1.00  0.00     0.144 A 
HETATM    7  C19 UNL     1       7.008   7.465  20.283  1.00  0.00     0.148 A 
HETATM    8  C20 UNL     1       7.762   7.708  21.404  1.00  0.00     0.282 A 
HETATM    9  O2  UNL     1       8.080   6.811  22.175  1.00  0.00    -0.265 OA
HETATM   10  N4  UNL     1       8.217   8.948  21.738  1.00  0.00    -0.269 N 
HETATM   11  C21 UNL     1       9.003   9.121  22.935  1.00  0.00     0.164 C 
HETATM   12  C22 UNL     1       7.927   9.993  20.949  1.00  0.00     0.332 A 
HETATM   13  O3  UNL     1       8.330  11.137  21.233  1.00  0.00    -0.246 OA
HETATM   14  N5  UNL     1       7.202   9.785  19.856  1.00  0.00    -0.287 N 
HETATM   15  C23 UNL     1       6.874  10.905  18.979  1.00  0.00     0.163 C 
ENDROOT
BRANCH   3  16
HETATM   16  C9  UNL     1       4.843   7.112  16.717  1.00  0.00     0.181 C 
BRANCH  16  17
HETATM   17  N2  UNL     1       5.085   8.243  15.848  1.00  0.00    -0.355 N 
HETATM   18  C10 UNL     1       4.058   8.877  15.103  1.00  0.00     0.222 C 
HETATM   19  O1  UNL     1       2.880   8.449  15.190  1.00  0.00    -0.273 OA
ATOM     20  H2  UNL     1       6.037   8.601  15.768  1.00  0.00     0.162 HD
BRANCH  18  21
HETATM   21  C11 UNL     1       4.314  10.034  14.217  1.00  0.00     0.141 C 
BRANCH  21  22
HETATM   22  C12 UNL     1       5.732  10.050  13.755  1.00  0.00    -0.049 A 
HETATM   23  C13 UNL     1       6.547  11.144  13.959  1.00  0.00     0.011 A 
HETATM   24  C14 UNL     1       7.838  11.097  13.511  1.00  0.00     0.043 A 
HETATM   25  C15 UNL     1       8.384  10.013  12.861  1.00  0.00     0.116 A 
HETATM   26  F1  UNL     1       9.679  10.006  12.428  1.00  0.00    -0.206 F 
HETATM   27  C16 UNL     1       7.562   8.917  12.659  1.00  0.00     0.043 A 
HETATM   28  C17 UNL     1       6.258   8.953  13.106  1.00  0.00     0.011 A 
ENDBRANCH  21  22
ENDBRANCH  18  21
ENDBRANCH  16  17
ENDBRANCH   3  16
BRANCH   1  29
HETATM   29  C6  UNL     1       6.717   5.033  20.755  1.00  0.00     0.167 C 
BRANCH  29  30
HETATM   30  C5  UNL     1       7.538   4.056  19.959  1.00  0.00    -0.040 A 
HETATM   31  C4  UNL     1       7.346   2.674  20.146  1.00  0.00     0.009 A 
HETATM   32  C3  UNL     1       8.060   1.719  19.462  1.00  0.00     0.007 A 
HETATM   33  C2  UNL     1       9.016   2.077  18.538  1.00  0.00    -0.062 A 
HETATM   34  C1  UNL     1       9.800   1.043  17.787  1.00  0.00     0.048 C 
HETATM   35  C25 UNL     1       9.219   3.417  18.341  1.00  0.00     0.007 A 
HETATM   36  C24 UNL     1       8.494   4.364  19.037  1.00  0.00     0.009 A 
ENDBRANCH  29  30
ENDBRANCH   1  29
TORSDOF 6
ENDMDL
