MODEL 1
REMARK VINA RESULT: -7.140191375      0.000      0.000
REMARK  8 active torsions:
REMARK  status: ('A' for Active; 'I' for Inactive)
REMARK    1  A    between atoms: C3_5  and  C4_6 
REMARK    2  A    between atoms: C4_6  and  C5_7 
REMARK       I    between atoms: N2_12  and  C9_13 
REMARK    3  A    between atoms: C9_13  and  C10_15 
REMARK    4  A    between atoms: C13_19  and  C14_20 
REMARK    5  A    between atoms: C15_21  and  N3_22 
REMARK    6  A    between atoms: C18_25  and  C19_26 
REMARK    7  A    between atoms: C19_26  and  O4_28 
REMARK    8  A    between atoms: O4_28  and  C20_29 
ROOT
HETATM    1  C1  UNL     1       7.924   7.926  25.598  1.00  0.00     0.044 C 
HETATM    2  C2  UNL     1       7.297   7.878  24.448  1.00  0.00     0.040 A 
HETATM    3  N1  UNL     1       6.235   7.061  24.231  1.00  0.00    -0.355 N 
ATOM      4  H1  UNL     1       5.823   6.425  24.914  1.00  0.00     0.166 HD
HETATM    5  C3  UNL     1       5.824   7.229  22.988  1.00  0.00     0.045 A 
HETATM    6  C13 UNL     1       6.615   8.184  22.316  1.00  0.00     0.010 A 
HETATM    7  C18 UNL     1       7.536   8.585  23.251  1.00  0.00     0.077 A 
ENDROOT
BRANCH   5   8
HETATM    8  C4  UNL     1       4.812   6.589  22.425  1.00  0.00     0.047 C 
BRANCH   8   9
HETATM    9  C5  UNL     1       4.903   5.150  22.124  1.00  0.00     0.036 A 
HETATM   10  C6  UNL     1       5.630   4.665  21.057  1.00  0.00     0.037 A 
HETATM   11  C7  UNL     1       5.711   3.315  20.781  1.00  0.00     0.028 A 
HETATM   12 BR1  UNL     1       6.692   2.603  19.331  1.00  0.00    -0.050 Br
HETATM   13  C8  UNL     1       5.030   2.456  21.623  1.00  0.00     0.122 A 
HETATM   14  N2  UNL     1       4.318   2.939  22.670  1.00  0.00    -0.258 N 
HETATM   15  C9  UNL     1       3.611   2.032  23.542  1.00  0.00     0.230 C 
HETATM   16  C12 UNL     1       4.243   4.255  22.933  1.00  0.00     0.264 A 
HETATM   17  O1  UNL     1       2.952   2.465  24.512  1.00  0.00    -0.273 OA
HETATM   18  O2  UNL     1       3.555   4.631  23.935  1.00  0.00    -0.267 OA
BRANCH  15  19
HETATM   19  C10 UNL     1       3.682   0.580  23.269  1.00  0.00     0.099 C 
HETATM   20  C11 UNL     1       2.969  -0.173  24.359  1.00  0.00     0.014 C 
ENDBRANCH  15  19
ENDBRANCH   8   9
ENDBRANCH   5   8
BRANCH   6  21
HETATM   21  C14 UNL     1       6.343   8.584  20.970  1.00  0.00     0.031 C 
HETATM   22  C15 UNL     1       6.991   8.637  19.865  1.00  0.00     0.085 C 
BRANCH  22  23
HETATM   23  N3  UNL     1       6.356   9.131  18.646  1.00  0.00    -0.398 N 
HETATM   24  C16 UNL     1       6.645  10.451  18.125  1.00  0.00     0.148 C 
HETATM   25  C17 UNL     1       5.408   8.328  17.901  1.00  0.00     0.148 C 
ENDBRANCH  22  23
ENDBRANCH   6  21
BRANCH   7  26
HETATM   26  C19 UNL     1       8.562   9.605  23.112  1.00  0.00     0.296 C 
HETATM   27  O3  UNL     1       8.413  10.810  22.876  1.00  0.00    -0.259 OA
BRANCH  26  28
HETATM   28  O4  UNL     1       9.919   9.247  23.253  1.00  0.00    -0.318 OA
BRANCH  28  29
HETATM   29  C20 UNL     1      10.665   9.732  24.337  1.00  0.00     0.174 C 
HETATM   30  C21 UNL     1      11.393   8.653  25.081  1.00  0.00     0.034 C 
ENDBRANCH  28  29
ENDBRANCH  26  28
ENDBRANCH   7  26
TORSDOF 8
ENDMDL
MODEL 2
REMARK VINA RESULT: -7.107978213      3.012      4.816
REMARK  8 active torsions:
REMARK  status: ('A' for Active; 'I' for Inactive)
REMARK    1  A    between atoms: C3_5  and  C4_6 
REMARK    2  A    between atoms: C4_6  and  C5_7 
REMARK       I    between atoms: N2_12  and  C9_13 
REMARK    3  A    between atoms: C9_13  and  C10_15 
REMARK    4  A    between atoms: C13_19  and  C14_20 
REMARK    5  A    between atoms: C15_21  and  N3_22 
REMARK    6  A    between atoms: C18_25  and  C19_26 
REMARK    7  A    between atoms: C19_26  and  O4_28 
REMARK    8  A    between atoms: O4_28  and  C20_29 
ROOT
HETATM    1  C1  UNL     1       9.416   9.086  22.260  1.00  0.00     0.044 C 
HETATM    2  C2  UNL     1       8.274   8.448  22.186  1.00  0.00     0.040 A 
HETATM    3  N1  UNL     1       7.753   8.022  21.007  1.00  0.00    -0.355 N 
ATOM      4  H1  UNL     1       8.179   8.142  20.089  1.00  0.00     0.166 HD
HETATM    5  C3  UNL     1       6.601   7.424  21.250  1.00  0.00     0.045 A 
HETATM    6  C13 UNL     1       6.305   7.432  22.629  1.00  0.00     0.010 A 
HETATM    7  C18 UNL     1       7.371   8.078  23.204  1.00  0.00     0.077 A 
ENDROOT
BRANCH   5   8
HETATM    8  C4  UNL     1       5.809   6.890  20.334  1.00  0.00     0.047 C 
BRANCH   8   9
HETATM    9  C5  UNL     1       5.852   5.445  20.048  1.00  0.00     0.036 A 
HETATM   10  C6  UNL     1       4.771   4.619  20.270  1.00  0.00     0.037 A 
HETATM   11  C7  UNL     1       4.818   3.266  20.000  1.00  0.00     0.028 A 
HETATM   12 BR1  UNL     1       3.365   2.093  20.288  1.00  0.00    -0.050 Br
HETATM   13  C8  UNL     1       6.001   2.763  19.492  1.00  0.00     0.122 A 
HETATM   14  N2  UNL     1       7.059   3.582  19.276  1.00  0.00    -0.258 N 
HETATM   15  C9  UNL     1       8.290   3.046  18.745  1.00  0.00     0.230 C 
HETATM   16  C12 UNL     1       7.007   4.898  19.541  1.00  0.00     0.264 A 
HETATM   17  O1  UNL     1       9.273   3.791  18.540  1.00  0.00    -0.273 OA
HETATM   18  O2  UNL     1       8.043   5.602  19.311  1.00  0.00    -0.267 OA
BRANCH  15  19
HETATM   19  C10 UNL     1       8.367   1.599  18.446  1.00  0.00     0.099 C 
HETATM   20  C11 UNL     1       9.795   1.218  18.165  1.00  0.00     0.014 C 
ENDBRANCH  15  19
ENDBRANCH   8   9
ENDBRANCH   5   8
BRANCH   6  21
HETATM   21  C14 UNL     1       5.136   6.800  23.159  1.00  0.00     0.031 C 
HETATM   22  C15 UNL     1       4.154   7.139  23.909  1.00  0.00     0.085 C 
BRANCH  22  23
HETATM   23  N3  UNL     1       3.108   6.180  24.255  1.00  0.00    -0.398 N 
HETATM   24  C16 UNL     1       3.029   4.884  23.614  1.00  0.00     0.148 C 
HETATM   25  C17 UNL     1       2.100   6.478  25.252  1.00  0.00     0.148 C 
ENDBRANCH  22  23
ENDBRANCH   6  21
BRANCH   7  26
HETATM   26  C19 UNL     1       7.614   8.310  24.618  1.00  0.00     0.296 C 
HETATM   27  O3  UNL     1       7.155   9.207  25.335  1.00  0.00    -0.259 OA
BRANCH  26  28
HETATM   28  O4  UNL     1       8.471   7.441  25.325  1.00  0.00    -0.318 OA
BRANCH  28  29
HETATM   29  C20 UNL     1       9.355   7.953  26.287  1.00  0.00     0.174 C 
HETATM   30  C21 UNL     1      10.659   8.410  25.705  1.00  0.00     0.034 C 
ENDBRANCH  28  29
ENDBRANCH  26  28
ENDBRANCH   7  26
TORSDOF 8
ENDMDL
MODEL 3
REMARK VINA RESULT: -7.043071087      1.543      2.097
REMARK  8 active torsions:
REMARK  status: ('A' for Active; 'I' for Inactive)
REMARK    1  A    between atoms: C3_5  and  C4_6 
REMARK    2  A    between atoms: C4_6  and  C5_7 
REMARK       I    between atoms: N2_12  and  C9_13 
REMARK    3  A    between atoms: C9_13  and  C10_15 
REMARK    4  A    between atoms: C13_19  and  C14_20 
REMARK    5  A    between atoms: C15_21  and  N3_22 
REMARK    6  A    between atoms: C18_25  and  C19_26 
REMARK    7  A    between atoms: C19_26  and  O4_28 
REMARK    8  A    between atoms: O4_28  and  C20_29 
ROOT
HETATM    1  C1  UNL     1       9.267   7.401  26.612  1.00  0.00     0.044 C 
HETATM    2  C2  UNL     1       8.650   7.810  25.531  1.00  0.00     0.040 A 
HETATM    3  N1  UNL     1       7.378   7.439  25.233  1.00  0.00    -0.355 N 
ATOM      4  H1  UNL     1       6.787   6.830  25.798  1.00  0.00     0.166 HD
HETATM    5  C3  UNL     1       7.035   8.001  24.088  1.00  0.00     0.045 A 
HETATM    6  C13 UNL     1       8.089   8.782  23.569  1.00  0.00     0.010 A 
HETATM    7  C18 UNL     1       9.097   8.653  24.492  1.00  0.00     0.077 A 
ENDROOT
BRANCH   5   8
HETATM    8  C4  UNL     1       5.867   7.855  23.486  1.00  0.00     0.047 C 
BRANCH   8   9
HETATM    9  C5  UNL     1       5.572   6.648  22.693  1.00  0.00     0.036 A 
HETATM   10  C6  UNL     1       6.131   6.427  21.452  1.00  0.00     0.037 A 
HETATM   11  C7  UNL     1       5.850   5.293  20.716  1.00  0.00     0.028 A 
HETATM   12 BR1  UNL     1       6.589   4.946  19.012  1.00  0.00    -0.050 Br
HETATM   13  C8  UNL     1       4.979   4.376  21.274  1.00  0.00     0.122 A 
HETATM   14  N2  UNL     1       4.434   4.600  22.495  1.00  0.00    -0.258 N 
HETATM   15  C9  UNL     1       3.526   3.635  23.068  1.00  0.00     0.230 C 
HETATM   16  C12 UNL     1       4.711   5.705  23.206  1.00  0.00     0.264 A 
HETATM   17  O1  UNL     1       3.017   3.830  24.193  1.00  0.00    -0.273 OA
HETATM   18  O2  UNL     1       4.160   5.844  24.345  1.00  0.00    -0.267 OA
BRANCH  15  19
HETATM   19  C10 UNL     1       3.208   2.412  22.299  1.00  0.00     0.099 C 
HETATM   20  C11 UNL     1       3.792   1.213  22.996  1.00  0.00     0.014 C 
ENDBRANCH  15  19
ENDBRANCH   8   9
ENDBRANCH   5   8
BRANCH   6  21
HETATM   21  C14 UNL     1       7.952   9.537  22.362  1.00  0.00     0.031 C 
HETATM   22  C15 UNL     1       8.226   9.367  21.122  1.00  0.00     0.085 C 
BRANCH  22  23
HETATM   23  N3  UNL     1       7.936  10.408  20.139  1.00  0.00    -0.398 N 
HETATM   24  C16 UNL     1       8.167  11.808  20.431  1.00  0.00     0.148 C 
HETATM   25  C17 UNL     1       7.402  10.094  18.830  1.00  0.00     0.148 C 
ENDBRANCH  22  23
ENDBRANCH   6  21
BRANCH   7  26
HETATM   26  C19 UNL     1      10.397   9.303  24.488  1.00  0.00     0.296 C 
HETATM   27  O3  UNL     1      10.647  10.510  24.391  1.00  0.00    -0.259 OA
BRANCH  26  28
HETATM   28  O4  UNL     1      11.564   8.519  24.609  1.00  0.00    -0.318 OA
BRANCH  28  29
HETATM   29  C20 UNL     1      12.238   8.446  25.837  1.00  0.00     0.174 C 
HETATM   30  C21 UNL     1      13.429   7.535  25.802  1.00  0.00     0.034 C 
ENDBRANCH  28  29
ENDBRANCH  26  28
ENDBRANCH   7  26
TORSDOF 8
ENDMDL
MODEL 4
REMARK VINA RESULT: -7.015647598      3.891      7.148
REMARK  8 active torsions:
REMARK  status: ('A' for Active; 'I' for Inactive)
REMARK    1  A    between atoms: C3_5  and  C4_6 
REMARK    2  A    between atoms: C4_6  and  C5_7 
REMARK       I    between atoms: N2_12  and  C9_13 
REMARK    3  A    between atoms: C9_13  and  C10_15 
REMARK    4  A    between atoms: C13_19  and  C14_20 
REMARK    5  A    between atoms: C15_21  and  N3_22 
REMARK    6  A    between atoms: C18_25  and  C19_26 
REMARK    7  A    between atoms: C19_26  and  O4_28 
REMARK    8  A    between atoms: O4_28  and  C20_29 
ROOT
HETATM    1  C1  UNL     1       5.324  11.746  18.519  1.00  0.00     0.044 C 
HETATM    2  C2  UNL     1       6.037  10.713  18.898  1.00  0.00     0.040 A 
HETATM    3  N1  UNL     1       6.981  10.797  19.870  1.00  0.00    -0.355 N 
ATOM      4  H1  UNL     1       7.226  11.637  20.392  1.00  0.00     0.166 HD
HETATM    5  C3  UNL     1       7.529   9.606  20.025  1.00  0.00     0.045 A 
HETATM    6  C13 UNL     1       6.959   8.665  19.142  1.00  0.00     0.010 A 
HETATM    7  C18 UNL     1       6.019   9.378  18.442  1.00  0.00     0.077 A 
ENDROOT
BRANCH   5   8
HETATM    8  C4  UNL     1       8.494   9.315  20.882  1.00  0.00     0.047 C 
BRANCH   8   9
HETATM    9  C5  UNL     1       8.179   8.788  22.222  1.00  0.00     0.036 A 
HETATM   10  C6  UNL     1       6.937   8.282  22.542  1.00  0.00     0.037 A 
HETATM   11  C7  UNL     1       6.650   7.790  23.800  1.00  0.00     0.028 A 
HETATM   12 BR1  UNL     1       4.965   7.089  24.286  1.00  0.00    -0.050 Br
HETATM   13  C8  UNL     1       7.665   7.823  24.738  1.00  0.00     0.122 A 
HETATM   14  N2  UNL     1       8.884   8.321  24.416  1.00  0.00    -0.258 N 
HETATM   15  C9  UNL     1       9.935   8.349  25.404  1.00  0.00     0.230 C 
HETATM   16  C12 UNL     1       9.156   8.798  23.190  1.00  0.00     0.264 A 
HETATM   17  O1  UNL     1      11.064   8.806  25.120  1.00  0.00    -0.273 OA
HETATM   18  O2  UNL     1      10.325   9.249  22.965  1.00  0.00    -0.267 OA
BRANCH  15  19
HETATM   19  C10 UNL     1       9.654   7.828  26.760  1.00  0.00     0.099 C 
HETATM   20  C11 UNL     1      10.795   6.956  27.211  1.00  0.00     0.014 C 
ENDBRANCH  15  19
ENDBRANCH   8   9
ENDBRANCH   5   8
BRANCH   6  21
HETATM   21  C14 UNL     1       7.345   7.287  19.148  1.00  0.00     0.031 C 
HETATM   22  C15 UNL     1       6.826   6.174  18.779  1.00  0.00     0.085 C 
BRANCH  22  23
HETATM   23  N3  UNL     1       7.546   4.915  18.959  1.00  0.00    -0.398 N 
HETATM   24  C16 UNL     1       8.179   4.241  17.844  1.00  0.00     0.148 C 
HETATM   25  C17 UNL     1       7.660   4.281  20.256  1.00  0.00     0.148 C 
ENDBRANCH  22  23
ENDBRANCH   6  21
BRANCH   7  26
HETATM   26  C19 UNL     1       5.089   8.884  17.440  1.00  0.00     0.296 C 
HETATM   27  O3  UNL     1       3.951   8.430  17.611  1.00  0.00    -0.259 OA
BRANCH  26  28
HETATM   28  O4  UNL     1       5.465   8.896  16.080  1.00  0.00    -0.318 OA
BRANCH  28  29
HETATM   29  C20 UNL     1       5.052   9.945  15.246  1.00  0.00     0.174 C 
HETATM   30  C21 UNL     1       6.129  10.958  14.995  1.00  0.00     0.034 C 
ENDBRANCH  28  29
ENDBRANCH  26  28
ENDBRANCH   7  26
TORSDOF 8
ENDMDL
MODEL 5
REMARK VINA RESULT: -6.962978674      3.380      5.712
REMARK  8 active torsions:
REMARK  status: ('A' for Active; 'I' for Inactive)
REMARK    1  A    between atoms: C3_5  and  C4_6 
REMARK    2  A    between atoms: C4_6  and  C5_7 
REMARK       I    between atoms: N2_12  and  C9_13 
REMARK    3  A    between atoms: C9_13  and  C10_15 
REMARK    4  A    between atoms: C13_19  and  C14_20 
REMARK    5  A    between atoms: C15_21  and  N3_22 
REMARK    6  A    between atoms: C18_25  and  C19_26 
REMARK    7  A    between atoms: C19_26  and  O4_28 
REMARK    8  A    between atoms: O4_28  and  C20_29 
ROOT
HETATM    1  C1  UNL     1       1.746   8.207  21.877  1.00  0.00     0.044 C 
HETATM    2  C2  UNL     1       3.042   8.038  21.985  1.00  0.00     0.040 A 
HETATM    3  N1  UNL     1       3.778   7.420  21.027  1.00  0.00    -0.355 N 
ATOM      4  H1  UNL     1       3.419   7.038  20.153  1.00  0.00     0.166 HD
HETATM    5  C3  UNL     1       5.039   7.396  21.419  1.00  0.00     0.045 A 
HETATM    6  C13 UNL     1       5.192   8.009  22.680  1.00  0.00     0.010 A 
HETATM    7  C18 UNL     1       3.924   8.412  23.020  1.00  0.00     0.077 A 
ENDROOT
BRANCH   5   8
HETATM    8  C4  UNL     1       6.040   6.862  20.738  1.00  0.00     0.047 C 
BRANCH   8   9
HETATM    9  C5  UNL     1       6.215   5.400  20.673  1.00  0.00     0.036 A 
HETATM   10  C6  UNL     1       5.398   4.530  21.364  1.00  0.00     0.037 A 
HETATM   11  C7  UNL     1       5.568   3.161  21.299  1.00  0.00     0.028 A 
HETATM   12 BR1  UNL     1       4.477   1.929  22.227  1.00  0.00    -0.050 Br
HETATM   13  C8  UNL     1       6.597   2.689  20.507  1.00  0.00     0.122 A 
HETATM   14  N2  UNL     1       7.396   3.551  19.830  1.00  0.00    -0.258 N 
HETATM   15  C9  UNL     1       8.468   3.046  19.006  1.00  0.00     0.230 C 
HETATM   16  C12 UNL     1       7.225   4.882  19.898  1.00  0.00     0.264 A 
HETATM   17  O1  UNL     1       9.211   3.830  18.376  1.00  0.00    -0.273 OA
HETATM   18  O2  UNL     1       8.016   5.626  19.233  1.00  0.00    -0.267 OA
BRANCH  15  19
HETATM   19  C10 UNL     1       8.671   1.583  18.918  1.00  0.00     0.099 C 
HETATM   20  C11 UNL     1       9.922   1.294  18.134  1.00  0.00     0.014 C 
ENDBRANCH  15  19
ENDBRANCH   8   9
ENDBRANCH   5   8
BRANCH   6  21
HETATM   21  C14 UNL     1       6.471   8.158  23.302  1.00  0.00     0.031 C 
HETATM   22  C15 UNL     1       6.968   7.959  24.466  1.00  0.00     0.085 C 
BRANCH  22  23
HETATM   23  N3  UNL     1       8.375   8.245  24.741  1.00  0.00    -0.398 N 
HETATM   24  C16 UNL     1       9.235   8.835  23.737  1.00  0.00     0.148 C 
HETATM   25  C17 UNL     1       8.975   7.952  26.026  1.00  0.00     0.148 C 
ENDBRANCH  22  23
ENDBRANCH   6  21
BRANCH   7  26
HETATM   26  C19 UNL     1       3.512   9.156  24.198  1.00  0.00     0.296 C 
HETATM   27  O3  UNL     1       3.198  10.350  24.276  1.00  0.00    -0.259 OA
BRANCH  26  28
HETATM   28  O4  UNL     1       3.437   8.497  25.443  1.00  0.00    -0.318 OA
BRANCH  28  29
HETATM   29  C20 UNL     1       2.578   7.400  25.607  1.00  0.00     0.174 C 
HETATM   30  C21 UNL     1       1.129   7.784  25.631  1.00  0.00     0.034 C 
ENDBRANCH  28  29
ENDBRANCH  26  28
ENDBRANCH   7  26
TORSDOF 8
ENDMDL
