MODEL 1
REMARK VINA RESULT: -6.692395396      0.000      0.000
REMARK  13 active torsions:
REMARK  status: ('A' for Active; 'I' for Inactive)
REMARK    1  A    between atoms: O1_2  and  C2_3 
REMARK    2  A    between atoms: C2_3  and  C3_4 
REMARK    3  A    between atoms: C3_4  and  N1_5 
REMARK    4  A    between atoms: N1_5  and  C4_6 
REMARK    5  A    between atoms: N1_5  and  N5_32 
REMARK    6  A    between atoms: C4_6  and  O2_7 
REMARK    7  A    between atoms: C4_6  and  C5_9 
REMARK    8  A    between atoms: C9_16  and  C10_17 
REMARK    9  A    between atoms: C10_17  and  C11_18 
REMARK   10  A    between atoms: C11_18  and  N3_19 
REMARK   11  A    between atoms: N4_24  and  C16_25 
REMARK   12  A    between atoms: C16_25  and  O4_26 
REMARK   13  A    between atoms: C16_25  and  C17_28 
ROOT
HETATM    1  C5  UNL     1       6.993   6.965  20.975  1.00  0.00     0.173 C 
HETATM    2  C6  UNL     1       8.149   7.838  20.581  1.00  0.00     0.093 C 
HETATM    3  C7  UNL     1       8.785   8.175  21.870  1.00  0.00     0.041 A 
HETATM    4  N2  UNL     1       9.994   8.756  22.054  1.00  0.00    -0.325 N 
ATOM      5  H2  UNL     1      10.555   9.040  21.252  1.00  0.00     0.169 HD
HETATM    6  C8  UNL     1      10.443   8.954  23.288  1.00  0.00     0.252 A 
HETATM    7  O3  UNL     1      11.583   9.500  23.520  1.00  0.00    -0.268 OA
HETATM    8  C9  UNL     1       9.669   8.566  24.353  1.00  0.00     0.014 A 
HETATM    9  C14 UNL     1       8.436   7.973  24.169  1.00  0.00     0.044 A 
HETATM   10  C15 UNL     1       7.950   7.758  22.880  1.00  0.00     0.060 A 
HETATM   11  N4  UNL     1       6.754   7.213  22.396  1.00  0.00    -0.316 N 
ENDROOT
BRANCH   1  12
HETATM   12  C4  UNL     1       7.025   5.625  20.483  1.00  0.00     0.152 C 
BRANCH  12  13
HETATM   13  N1  UNL     1       6.496   5.033  19.336  1.00  0.00    -0.291 N 
BRANCH  13  14
HETATM   14  C3  UNL     1       5.462   4.036  19.230  1.00  0.00     0.171 C 
BRANCH  14  15
HETATM   15  C2  UNL     1       4.431   4.093  20.348  1.00  0.00     0.188 C 
BRANCH  15  16
HETATM   16  O1  UNL     1       4.774   3.485  21.514  1.00  0.00    -0.394 OA
HETATM   17  C1  UNL     1       5.299   2.229  21.453  1.00  0.00     0.201 C 
ENDBRANCH  15  16
ENDBRANCH  14  15
ENDBRANCH  13  14
BRANCH  13  18
HETATM   18  N5  UNL     1       6.990   5.475  18.061  1.00  0.00    -0.236 NA
HETATM   19  C21 UNL     1       6.017   6.106  17.247  1.00  0.00     0.136 C 
HETATM   20  C22 UNL     1       7.639   4.334  17.464  1.00  0.00     0.136 C 
ENDBRANCH  13  18
ENDBRANCH  12  13
BRANCH  12  21
HETATM   21  O2  UNL     1       7.675   4.793  21.255  1.00  0.00    -0.347 OA
ATOM     22  H2  UNL     1       7.641   5.018  22.177  1.00  0.00     0.219 HD
ENDBRANCH  12  21
ENDBRANCH   1  12
BRANCH  11  23
HETATM   23  C16 UNL     1       5.517   6.976  23.016  1.00  0.00     0.126 C 
BRANCH  23  24
HETATM   24  O4  UNL     1       5.321   5.702  23.314  1.00  0.00    -0.349 OA
ATOM     25  H4  UNL     1       4.412   5.499  23.503  1.00  0.00     0.219 HD
ENDBRANCH  23  24
BRANCH  23  26
HETATM   26  C17 UNL     1       4.394   7.797  23.411  1.00  0.00     0.014 C 
HETATM   27  C18 UNL     1       4.639   9.219  22.791  1.00  0.00     0.023 C 
HETATM   28  C19 UNL     1       3.050   7.396  22.890  1.00  0.00     0.023 C 
HETATM   29  C20 UNL     1       4.290   8.102  24.890  1.00  0.00     0.023 C 
ENDBRANCH  23  26
ENDBRANCH  11  23
BRANCH   8  30
HETATM   30  C10 UNL     1      10.191   8.795  25.728  1.00  0.00     0.074 C 
BRANCH  30  31
HETATM   31  C11 UNL     1       9.812   7.621  26.602  1.00  0.00     0.276 C 
BRANCH  31  32
HETATM   32  N3  UNL     1      10.955   7.056  27.282  1.00  0.00     0.080 N 
HETATM   33  C12 UNL     1      12.153   7.336  26.530  1.00  0.00     0.309 C 
HETATM   34  C13 UNL     1      10.780   5.617  27.322  1.00  0.00     0.309 C 
ENDBRANCH  31  32
ENDBRANCH  30  31
ENDBRANCH   8  30
TORSDOF 13
ENDMDL
MODEL 2
REMARK VINA RESULT: -6.687708604      1.045      2.100
REMARK  13 active torsions:
REMARK  status: ('A' for Active; 'I' for Inactive)
REMARK    1  A    between atoms: O1_2  and  C2_3 
REMARK    2  A    between atoms: C2_3  and  C3_4 
REMARK    3  A    between atoms: C3_4  and  N1_5 
REMARK    4  A    between atoms: N1_5  and  C4_6 
REMARK    5  A    between atoms: N1_5  and  N5_32 
REMARK    6  A    between atoms: C4_6  and  O2_7 
REMARK    7  A    between atoms: C4_6  and  C5_9 
REMARK    8  A    between atoms: C9_16  and  C10_17 
REMARK    9  A    between atoms: C10_17  and  C11_18 
REMARK   10  A    between atoms: C11_18  and  N3_19 
REMARK   11  A    between atoms: N4_24  and  C16_25 
REMARK   12  A    between atoms: C16_25  and  O4_26 
REMARK   13  A    between atoms: C16_25  and  C17_28 
ROOT
HETATM    1  C5  UNL     1       6.854   6.618  20.992  1.00  0.00     0.173 C 
HETATM    2  C6  UNL     1       8.001   7.476  20.543  1.00  0.00     0.093 C 
HETATM    3  C7  UNL     1       8.618   7.919  21.809  1.00  0.00     0.041 A 
HETATM    4  N2  UNL     1       9.817   8.531  21.960  1.00  0.00    -0.325 N 
ATOM      5  H2  UNL     1      10.383   8.761  21.143  1.00  0.00     0.169 HD
HETATM    6  C8  UNL     1      10.250   8.828  23.179  1.00  0.00     0.252 A 
HETATM    7  O3  UNL     1      11.380   9.408  23.379  1.00  0.00    -0.268 OA
HETATM    8  C9  UNL     1       9.471   8.511  24.263  1.00  0.00     0.014 A 
HETATM    9  C14 UNL     1       8.249   7.887  24.113  1.00  0.00     0.044 A 
HETATM   10  C15 UNL     1       7.779   7.567  22.840  1.00  0.00     0.060 A 
HETATM   11  N4  UNL     1       6.596   6.969  22.388  1.00  0.00    -0.316 N 
ENDROOT
BRANCH   1  12
HETATM   12  C4  UNL     1       6.910   5.246  20.603  1.00  0.00     0.152 C 
BRANCH  12  13
HETATM   13  N1  UNL     1       6.089   4.467  19.787  1.00  0.00    -0.291 N 
BRANCH  13  14
HETATM   14  C3  UNL     1       6.280   4.094  18.408  1.00  0.00     0.171 C 
BRANCH  14  15
HETATM   15  C2  UNL     1       7.466   4.775  17.742  1.00  0.00     0.188 C 
BRANCH  15  16
HETATM   16  O1  UNL     1       8.416   3.955  17.220  1.00  0.00    -0.394 OA
HETATM   17  C1  UNL     1       9.251   3.310  18.083  1.00  0.00     0.201 C 
ENDBRANCH  15  16
ENDBRANCH  14  15
ENDBRANCH  13  14
BRANCH  13  18
HETATM   18  N5  UNL     1       4.901   3.905  20.367  1.00  0.00    -0.236 NA
HETATM   19  C21 UNL     1       4.769   2.506  20.184  1.00  0.00     0.136 C 
HETATM   20  C22 UNL     1       3.800   4.692  19.869  1.00  0.00     0.136 C 
ENDBRANCH  13  18
ENDBRANCH  12  13
BRANCH  12  21
HETATM   21  O2  UNL     1       7.925   4.594  21.109  1.00  0.00    -0.347 OA
ATOM     22  H2  UNL     1       8.683   5.139  21.284  1.00  0.00     0.219 HD
ENDBRANCH  12  21
ENDBRANCH   1  12
BRANCH  11  23
HETATM   23  C16 UNL     1       5.356   6.762  23.012  1.00  0.00     0.126 C 
BRANCH  23  24
HETATM   24  O4  UNL     1       5.063   5.482  23.171  1.00  0.00    -0.349 OA
ATOM     25  H4  UNL     1       4.658   5.094  22.403  1.00  0.00     0.219 HD
ENDBRANCH  23  24
BRANCH  23  26
HETATM   26  C17 UNL     1       4.311   7.618  23.528  1.00  0.00     0.014 C 
HETATM   27  C18 UNL     1       4.371   8.948  22.695  1.00  0.00     0.023 C 
HETATM   28  C19 UNL     1       2.904   7.141  23.359  1.00  0.00     0.023 C 
HETATM   29  C20 UNL     1       4.508   8.114  24.944  1.00  0.00     0.023 C 
ENDBRANCH  23  26
ENDBRANCH  11  23
BRANCH   8  30
HETATM   30  C10 UNL     1       9.975   8.851  25.622  1.00  0.00     0.074 C 
BRANCH  30  31
HETATM   31  C11 UNL     1       9.706   7.691  26.553  1.00  0.00     0.276 C 
BRANCH  31  32
HETATM   32  N3  UNL     1      10.914   7.202  27.177  1.00  0.00     0.080 N 
HETATM   33  C12 UNL     1      12.049   7.506  26.341  1.00  0.00     0.309 C 
HETATM   34  C13 UNL     1      10.808   5.759  27.279  1.00  0.00     0.309 C 
ENDBRANCH  31  32
ENDBRANCH  30  31
ENDBRANCH   8  30
TORSDOF 13
ENDMDL
MODEL 3
REMARK VINA RESULT: -6.518390893      1.069      2.234
REMARK  13 active torsions:
REMARK  status: ('A' for Active; 'I' for Inactive)
REMARK    1  A    between atoms: O1_2  and  C2_3 
REMARK    2  A    between atoms: C2_3  and  C3_4 
REMARK    3  A    between atoms: C3_4  and  N1_5 
REMARK    4  A    between atoms: N1_5  and  C4_6 
REMARK    5  A    between atoms: N1_5  and  N5_32 
REMARK    6  A    between atoms: C4_6  and  O2_7 
REMARK    7  A    between atoms: C4_6  and  C5_9 
REMARK    8  A    between atoms: C9_16  and  C10_17 
REMARK    9  A    between atoms: C10_17  and  C11_18 
REMARK   10  A    between atoms: C11_18  and  N3_19 
REMARK   11  A    between atoms: N4_24  and  C16_25 
REMARK   12  A    between atoms: C16_25  and  O4_26 
REMARK   13  A    between atoms: C16_25  and  C17_28 
ROOT
HETATM    1  C5  UNL     1       6.761   6.866  21.173  1.00  0.00     0.173 C 
HETATM    2  C6  UNL     1       7.918   7.700  20.702  1.00  0.00     0.093 C 
HETATM    3  C7  UNL     1       8.610   8.070  21.952  1.00  0.00     0.041 A 
HETATM    4  N2  UNL     1       9.837   8.632  22.067  1.00  0.00    -0.325 N 
ATOM      5  H2  UNL     1      10.372   8.875  21.233  1.00  0.00     0.169 HD
HETATM    6  C8  UNL     1      10.338   8.865  23.274  1.00  0.00     0.252 A 
HETATM    7  O3  UNL     1      11.498   9.395  23.441  1.00  0.00    -0.268 OA
HETATM    8  C9  UNL     1       9.600   8.532  24.382  1.00  0.00     0.014 A 
HETATM    9  C14 UNL     1       8.350   7.959  24.269  1.00  0.00     0.044 A 
HETATM   10  C15 UNL     1       7.808   7.707  23.008  1.00  0.00     0.060 A 
HETATM   11  N4  UNL     1       6.584   7.170  22.592  1.00  0.00    -0.316 N 
ENDROOT
BRANCH   1  12
HETATM   12  C4  UNL     1       6.747   5.509  20.730  1.00  0.00     0.152 C 
BRANCH  12  13
HETATM   13  N1  UNL     1       5.820   4.771  19.995  1.00  0.00    -0.291 N 
BRANCH  13  14
HETATM   14  C3  UNL     1       5.592   4.768  18.572  1.00  0.00     0.171 C 
BRANCH  14  15
HETATM   15  C2  UNL     1       6.803   5.187  17.752  1.00  0.00     0.188 C 
BRANCH  15  16
HETATM   16  O1  UNL     1       6.857   6.494  17.382  1.00  0.00    -0.394 OA
HETATM   17  C1  UNL     1       5.694   7.204  17.367  1.00  0.00     0.201 C 
ENDBRANCH  15  16
ENDBRANCH  14  15
ENDBRANCH  13  14
BRANCH  13  18
HETATM   18  N5  UNL     1       4.982   3.845  20.705  1.00  0.00    -0.236 NA
HETATM   19  C21 UNL     1       5.185   2.488  20.353  1.00  0.00     0.136 C 
HETATM   20  C22 UNL     1       3.630   4.322  20.543  1.00  0.00     0.136 C 
ENDBRANCH  13  18
ENDBRANCH  12  13
BRANCH  12  21
HETATM   21  O2  UNL     1       7.807   4.827  21.080  1.00  0.00    -0.347 OA
ATOM     22  H2  UNL     1       8.181   5.098  21.910  1.00  0.00     0.219 HD
ENDBRANCH  12  21
ENDBRANCH   1  12
BRANCH  11  23
HETATM   23  C16 UNL     1       5.368   6.982  23.268  1.00  0.00     0.126 C 
BRANCH  23  24
HETATM   24  O4  UNL     1       5.092   5.709  23.496  1.00  0.00    -0.349 OA
ATOM     25  H4  UNL     1       4.362   5.586  24.091  1.00  0.00     0.219 HD
ENDBRANCH  23  24
BRANCH  23  26
HETATM   26  C17 UNL     1       4.333   7.853  23.780  1.00  0.00     0.014 C 
HETATM   27  C18 UNL     1       3.886   8.768  22.584  1.00  0.00     0.023 C 
HETATM   28  C19 UNL     1       3.068   7.201  24.236  1.00  0.00     0.023 C 
HETATM   29  C20 UNL     1       4.779   8.866  24.813  1.00  0.00     0.023 C 
ENDBRANCH  23  26
ENDBRANCH  11  23
BRANCH   8  30
HETATM   30  C10 UNL     1      10.181   8.799  25.726  1.00  0.00     0.074 C 
BRANCH  30  31
HETATM   31  C11 UNL     1       9.815   7.665  26.657  1.00  0.00     0.276 C 
BRANCH  31  32
HETATM   32  N3  UNL     1      10.977   7.080  27.286  1.00  0.00     0.080 N 
HETATM   33  C12 UNL     1      12.150   7.363  26.496  1.00  0.00     0.309 C 
HETATM   34  C13 UNL     1      10.790   5.642  27.309  1.00  0.00     0.309 C 
ENDBRANCH  31  32
ENDBRANCH  30  31
ENDBRANCH   8  30
TORSDOF 13
ENDMDL
MODEL 4
REMARK VINA RESULT: -6.516125841      2.534      7.120
REMARK  13 active torsions:
REMARK  status: ('A' for Active; 'I' for Inactive)
REMARK    1  A    between atoms: O1_2  and  C2_3 
REMARK    2  A    between atoms: C2_3  and  C3_4 
REMARK    3  A    between atoms: C3_4  and  N1_5 
REMARK    4  A    between atoms: N1_5  and  C4_6 
REMARK    5  A    between atoms: N1_5  and  N5_32 
REMARK    6  A    between atoms: C4_6  and  O2_7 
REMARK    7  A    between atoms: C4_6  and  C5_9 
REMARK    8  A    between atoms: C9_16  and  C10_17 
REMARK    9  A    between atoms: C10_17  and  C11_18 
REMARK   10  A    between atoms: C11_18  and  N3_19 
REMARK   11  A    between atoms: N4_24  and  C16_25 
REMARK   12  A    between atoms: C16_25  and  O4_26 
REMARK   13  A    between atoms: C16_25  and  C17_28 
ROOT
HETATM    1  C5  UNL     1       5.250   6.626  21.518  1.00  0.00     0.173 C 
HETATM    2  C6  UNL     1       4.447   5.867  20.503  1.00  0.00     0.093 C 
HETATM    3  C7  UNL     1       5.394   4.854  19.997  1.00  0.00     0.041 A 
HETATM    4  N2  UNL     1       5.103   3.779  19.227  1.00  0.00    -0.325 N 
ATOM      5  H2  UNL     1       4.147   3.620  18.908  1.00  0.00     0.169 HD
HETATM    6  C8  UNL     1       6.070   2.934  18.891  1.00  0.00     0.252 A 
HETATM    7  O3  UNL     1       5.848   1.898  18.163  1.00  0.00    -0.268 OA
HETATM    8  C9  UNL     1       7.349   3.170  19.330  1.00  0.00     0.014 A 
HETATM    9  C14 UNL     1       7.650   4.264  20.116  1.00  0.00     0.044 A 
HETATM   10  C15 UNL     1       6.645   5.162  20.478  1.00  0.00     0.060 A 
HETATM   11  N4  UNL     1       6.656   6.344  21.228  1.00  0.00    -0.316 N 
ENDROOT
BRANCH   1  12
HETATM   12  C4  UNL     1       4.776   6.564  22.864  1.00  0.00     0.152 C 
BRANCH  12  13
HETATM   13  N1  UNL     1       4.402   7.552  23.775  1.00  0.00    -0.291 N 
BRANCH  13  14
HETATM   14  C3  UNL     1       5.224   8.547  24.415  1.00  0.00     0.171 C 
BRANCH  14  15
HETATM   15  C2  UNL     1       6.544   8.009  24.947  1.00  0.00     0.188 C 
BRANCH  15  16
HETATM   16  O1  UNL     1       7.582   8.887  24.982  1.00  0.00    -0.394 OA
HETATM   17  C1  UNL     1       8.733   8.494  25.597  1.00  0.00     0.201 C 
ENDBRANCH  15  16
ENDBRANCH  14  15
ENDBRANCH  13  14
BRANCH  13  18
HETATM   18  N5  UNL     1       3.012   7.656  24.122  1.00  0.00    -0.236 NA
HETATM   19  C21 UNL     1       2.155   7.908  23.023  1.00  0.00     0.136 C 
HETATM   20  C22 UNL     1       2.936   8.622  25.190  1.00  0.00     0.136 C 
ENDBRANCH  13  18
ENDBRANCH  12  13
BRANCH  12  21
HETATM   21  O2  UNL     1       4.673   5.347  23.333  1.00  0.00    -0.347 OA
ATOM     22  H2  UNL     1       5.326   5.131  23.988  1.00  0.00     0.219 HD
ENDBRANCH  12  21
ENDBRANCH   1  12
BRANCH  11  23
HETATM   23  C16 UNL     1       7.702   7.196  21.616  1.00  0.00     0.126 C 
BRANCH  23  24
HETATM   24  O4  UNL     1       8.366   6.755  22.671  1.00  0.00    -0.349 OA
ATOM     25  H4  UNL     1       8.937   6.021  22.472  1.00  0.00     0.219 HD
ENDBRANCH  23  24
BRANCH  23  26
HETATM   26  C17 UNL     1       8.233   8.452  21.136  1.00  0.00     0.014 C 
HETATM   27  C18 UNL     1       9.496   8.769  22.014  1.00  0.00     0.023 C 
HETATM   28  C19 UNL     1       8.747   8.474  19.732  1.00  0.00     0.023 C 
HETATM   29  C20 UNL     1       7.362   9.667  21.373  1.00  0.00     0.023 C 
ENDBRANCH  23  26
ENDBRANCH  11  23
BRANCH   8  30
HETATM   30  C10 UNL     1       8.419   2.210  18.944  1.00  0.00     0.074 C 
BRANCH  30  31
HETATM   31  C11 UNL     1       9.530   2.963  18.249  1.00  0.00     0.276 C 
BRANCH  31  32
HETATM   32  N3  UNL     1      10.237   2.136  17.298  1.00  0.00     0.080 N 
HETATM   33  C12 UNL     1       9.509   2.097  16.054  1.00  0.00     0.309 C 
HETATM   34  C13 UNL     1      10.282   0.788  17.831  1.00  0.00     0.309 C 
ENDBRANCH  31  32
ENDBRANCH  30  31
ENDBRANCH   8  30
TORSDOF 13
ENDMDL
MODEL 5
REMARK VINA RESULT: -6.500360447      2.878      6.763
REMARK  13 active torsions:
REMARK  status: ('A' for Active; 'I' for Inactive)
REMARK    1  A    between atoms: O1_2  and  C2_3 
REMARK    2  A    between atoms: C2_3  and  C3_4 
REMARK    3  A    between atoms: C3_4  and  N1_5 
REMARK    4  A    between atoms: N1_5  and  C4_6 
REMARK    5  A    between atoms: N1_5  and  N5_32 
REMARK    6  A    between atoms: C4_6  and  O2_7 
REMARK    7  A    between atoms: C4_6  and  C5_9 
REMARK    8  A    between atoms: C9_16  and  C10_17 
REMARK    9  A    between atoms: C10_17  and  C11_18 
REMARK   10  A    between atoms: C11_18  and  N3_19 
REMARK   11  A    between atoms: N4_24  and  C16_25 
REMARK   12  A    between atoms: C16_25  and  O4_26 
REMARK   13  A    between atoms: C16_25  and  C17_28 
ROOT
HETATM    1  C5  UNL     1       5.176   6.754  21.623  1.00  0.00     0.173 C 
HETATM    2  C6  UNL     1       4.442   6.066  20.509  1.00  0.00     0.093 C 
HETATM    3  C7  UNL     1       5.411   5.065  20.022  1.00  0.00     0.041 A 
HETATM    4  N2  UNL     1       5.164   4.038  19.174  1.00  0.00    -0.325 N 
ATOM      5  H2  UNL     1       4.233   3.914  18.775  1.00  0.00     0.169 HD
HETATM    6  C8  UNL     1       6.142   3.195  18.866  1.00  0.00     0.252 A 
HETATM    7  O3  UNL     1       5.962   2.204  18.068  1.00  0.00    -0.268 OA
HETATM    8  C9  UNL     1       7.386   3.383  19.413  1.00  0.00     0.014 A 
HETATM    9  C14 UNL     1       7.641   4.428  20.278  1.00  0.00     0.044 A 
HETATM   10  C15 UNL     1       6.625   5.323  20.613  1.00  0.00     0.060 A 
HETATM   11  N4  UNL     1       6.595   6.463  21.425  1.00  0.00    -0.316 N 
ENDROOT
BRANCH   1  12
HETATM   12  C4  UNL     1       4.599   6.629  22.923  1.00  0.00     0.152 C 
BRANCH  12  13
HETATM   13  N1  UNL     1       3.498   7.238  23.525  1.00  0.00    -0.291 N 
BRANCH  13  14
HETATM   14  C3  UNL     1       2.322   6.624  24.087  1.00  0.00     0.171 C 
BRANCH  14  15
HETATM   15  C2  UNL     1       2.063   5.211  23.585  1.00  0.00     0.188 C 
BRANCH  15  16
HETATM   16  O1  UNL     1       2.561   4.200  24.345  1.00  0.00    -0.394 OA
HETATM   17  C1  UNL     1       2.732   2.982  23.760  1.00  0.00     0.201 C 
ENDBRANCH  15  16
ENDBRANCH  14  15
ENDBRANCH  13  14
BRANCH  13  18
HETATM   18  N5  UNL     1       3.511   8.668  23.661  1.00  0.00    -0.236 NA
HETATM   19  C21 UNL     1       4.655   9.179  24.320  1.00  0.00     0.136 C 
HETATM   20  C22 UNL     1       2.249   9.025  24.263  1.00  0.00     0.136 C 
ENDBRANCH  13  18
ENDBRANCH  12  13
BRANCH  12  21
HETATM   21  O2  UNL     1       5.223   5.780  23.699  1.00  0.00    -0.347 OA
ATOM     22  H2  UNL     1       5.927   6.168  24.205  1.00  0.00     0.219 HD
ENDBRANCH  12  21
ENDBRANCH   1  12
BRANCH  11  23
HETATM   23  C16 UNL     1       7.621   7.273  21.937  1.00  0.00     0.126 C 
BRANCH  23  24
HETATM   24  O4  UNL     1       8.071   6.861  23.110  1.00  0.00    -0.349 OA
ATOM     25  H4  UNL     1       7.612   7.252  23.845  1.00  0.00     0.219 HD
ENDBRANCH  23  24
BRANCH  23  26
HETATM   26  C17 UNL     1       8.310   8.462  21.488  1.00  0.00     0.014 C 
HETATM   27  C18 UNL     1       9.466   8.726  22.517  1.00  0.00     0.023 C 
HETATM   28  C19 UNL     1       9.006   8.379  20.167  1.00  0.00     0.023 C 
HETATM   29  C20 UNL     1       7.515   9.749  21.558  1.00  0.00     0.023 C 
ENDBRANCH  23  26
ENDBRANCH  11  23
BRANCH   8  30
HETATM   30  C10 UNL     1       8.469   2.426  19.057  1.00  0.00     0.074 C 
BRANCH  30  31
HETATM   31  C11 UNL     1       9.493   3.135  18.202  1.00  0.00     0.276 C 
BRANCH  31  32
HETATM   32  N3  UNL     1      10.206   2.223  17.336  1.00  0.00     0.080 N 
HETATM   33  C12 UNL     1       9.520   2.121  16.071  1.00  0.00     0.309 C 
HETATM   34  C13 UNL     1      10.189   0.915  17.961  1.00  0.00     0.309 C 
ENDBRANCH  31  32
ENDBRANCH  30  31
ENDBRANCH   8  30
TORSDOF 13
ENDMDL
