MODEL 1
REMARK VINA RESULT: -7.650567406      0.000      0.000
REMARK  10 active torsions:
REMARK  status: ('A' for Active; 'I' for Inactive)
REMARK    1  A    between atoms: C3_3  and  C4_4 
REMARK    2  A    between atoms: C4_4  and  C5_5 
REMARK    3  A    between atoms: C5_5  and  N1_6 
REMARK    4  A    between atoms: C5_5  and  C15_24 
REMARK    5  A    between atoms: N1_6  and  C6_9 
REMARK    6  A    between atoms: C6_9  and  C7_10 
REMARK    7  A    between atoms: N3_21  and  O1_22 
REMARK    8  A    between atoms: C15_24  and  O3_26 
REMARK    9  A    between atoms: O3_26  and  C16_27 
REMARK   10  A    between atoms: C16_27  and  C17_28 
REMARK       I    between atoms: C17_28  and  N4_30 
ROOT
HETATM    1  C1  UNL     1       7.169  12.553  20.014  1.00  0.00     0.112 C 
HETATM    2  C2  UNL     1       7.108  11.075  19.993  1.00  0.00    -0.111 C 
HETATM    3  C3  UNL     1       7.084   9.861  19.977  1.00  0.00    -0.104 C 
ENDROOT
BRANCH   3   4
HETATM    4  C4  UNL     1       7.093   8.404  19.959  1.00  0.00     0.137 C 
BRANCH   4   5
HETATM    5  C5  UNL     1       8.460   7.908  20.271  1.00  0.00     0.296 C 
BRANCH   5   6
HETATM    6  N1  UNL     1       8.620   6.491  19.996  1.00  0.00    -0.057 N 
ATOM      7  H12 UNL     1       9.389   6.334  19.344  1.00  0.00     0.278 HD
ATOM      8  H11 UNL     1       8.988   6.003  20.812  1.00  0.00     0.278 HD
BRANCH   6   9
HETATM    9  C6  UNL     1       7.424   5.864  19.528  1.00  0.00     0.274 C 
BRANCH   9  10
HETATM   10  C7  UNL     1       7.740   4.934  18.409  1.00  0.00    -0.002 A 
HETATM   11  C8  UNL     1       8.622   3.888  18.572  1.00  0.00     0.030 A 
HETATM   12  C9  UNL     1       8.889   3.035  17.512  1.00  0.00     0.013 A 
HETATM   13 BR1  UNL     1      10.113   1.606  17.793  1.00  0.00    -0.051 Br
HETATM   14  C10 UNL     1       8.276   3.225  16.292  1.00  0.00     0.053 A 
HETATM   15  C11 UNL     1       7.385   4.269  16.100  1.00  0.00     0.090 A 
HETATM   16  C12 UNL     1       7.128   5.110  17.158  1.00  0.00     0.069 A 
HETATM   17  N3  UNL     1       6.775   4.474  14.908  1.00  0.00    -0.233 N 
HETATM   18  N2  UNL     1       6.271   6.142  17.019  1.00  0.00    -0.362 N 
HETATM   19  C13 UNL     1       5.676   6.322  15.819  1.00  0.00     0.108 A 
ATOM     20  H2  UNL     1       6.076   6.769  17.799  1.00  0.00     0.165 HD
HETATM   21  C14 UNL     1       5.911   5.496  14.734  1.00  0.00     0.140 A 
BRANCH  17  22
HETATM   22  O1  UNL     1       7.077   3.595  13.890  1.00  0.00    -0.283 OA
ATOM     23  H1  UNL     1       6.476   3.562  13.156  1.00  0.00     0.245 HD
ENDBRANCH  17  22
ENDBRANCH   9  10
ENDBRANCH   6   9
ENDBRANCH   5   6
BRANCH   5  24
HETATM   24  C15 UNL     1       8.706   8.097  21.721  1.00  0.00     0.291 C 
HETATM   25  O2  UNL     1       8.278   7.187  22.505  1.00  0.00    -0.263 OA
BRANCH  24  26
HETATM   26  O3  UNL     1       9.364   9.189  22.271  1.00  0.00    -0.310 OA
BRANCH  26  27
HETATM   27  C16 UNL     1       9.398   9.233  23.702  1.00  0.00     0.281 C 
BRANCH  27  28
HETATM   28  C17 UNL     1      10.698   8.811  24.254  1.00  0.00     0.243 C 
HETATM   29  O4  UNL     1      11.737   9.063  23.612  1.00  0.00    -0.271 OA
HETATM   30  N4  UNL     1      10.728   8.136  25.492  1.00  0.00    -0.359 N 
HETATM   31  C18 UNL     1       9.528   7.835  26.255  1.00  0.00     0.152 C 
HETATM   32  C19 UNL     1      12.041   7.730  26.004  1.00  0.00     0.152 C 
ENDBRANCH  27  28
ENDBRANCH  26  27
ENDBRANCH  24  26
ENDBRANCH   5  24
ENDBRANCH   4   5
ENDBRANCH   3   4
TORSDOF 10
ENDMDL
MODEL 2
REMARK VINA RESULT: -7.586627516      2.021      2.749
REMARK  10 active torsions:
REMARK  status: ('A' for Active; 'I' for Inactive)
REMARK    1  A    between atoms: C3_3  and  C4_4 
REMARK    2  A    between atoms: C4_4  and  C5_5 
REMARK    3  A    between atoms: C5_5  and  N1_6 
REMARK    4  A    between atoms: C5_5  and  C15_24 
REMARK    5  A    between atoms: N1_6  and  C6_9 
REMARK    6  A    between atoms: C6_9  and  C7_10 
REMARK    7  A    between atoms: N3_21  and  O1_22 
REMARK    8  A    between atoms: C15_24  and  O3_26 
REMARK    9  A    between atoms: O3_26  and  C16_27 
REMARK   10  A    between atoms: C16_27  and  C17_28 
REMARK       I    between atoms: C17_28  and  N4_30 
ROOT
HETATM    1  C1  UNL     1       5.634   9.929  17.877  1.00  0.00     0.112 C 
HETATM    2  C2  UNL     1       6.876   9.406  18.486  1.00  0.00    -0.111 C 
HETATM    3  C3  UNL     1       7.884   8.977  19.011  1.00  0.00    -0.104 C 
ENDROOT
BRANCH   3   4
HETATM    4  C4  UNL     1       9.077   8.465  19.673  1.00  0.00     0.137 C 
BRANCH   4   5
HETATM    5  C5  UNL     1       8.687   7.478  20.715  1.00  0.00     0.296 C 
BRANCH   5   6
HETATM    6  N1  UNL     1       7.523   6.695  20.339  1.00  0.00    -0.057 N 
ATOM      7  H12 UNL     1       6.798   6.761  21.053  1.00  0.00     0.278 HD
ATOM      8  H11 UNL     1       7.032   7.129  19.558  1.00  0.00     0.278 HD
BRANCH   6   9
HETATM    9  C6  UNL     1       7.826   5.328  20.050  1.00  0.00     0.274 C 
BRANCH   9  10
HETATM   10  C7  UNL     1       7.554   5.039  18.615  1.00  0.00    -0.002 A 
HETATM   11  C8  UNL     1       6.607   5.746  17.908  1.00  0.00     0.030 A 
HETATM   12  C9  UNL     1       6.384   5.457  16.569  1.00  0.00     0.013 A 
HETATM   13 BR1  UNL     1       5.065   6.466  15.640  1.00  0.00    -0.051 Br
HETATM   14  C10 UNL     1       7.105   4.467  15.939  1.00  0.00     0.053 A 
HETATM   15  C11 UNL     1       8.063   3.739  16.627  1.00  0.00     0.090 A 
HETATM   16  C12 UNL     1       8.277   4.033  17.954  1.00  0.00     0.069 A 
HETATM   17  N3  UNL     1       8.780   2.760  16.027  1.00  0.00    -0.233 N 
HETATM   18  N2  UNL     1       9.197   3.352  18.666  1.00  0.00    -0.362 N 
HETATM   19  C13 UNL     1       9.898   2.381  18.041  1.00  0.00     0.108 A 
ATOM     20  H2  UNL     1       9.360   3.564  19.651  1.00  0.00     0.165 HD
HETATM   21  C14 UNL     1       9.710   2.058  16.709  1.00  0.00     0.140 A 
BRANCH  17  22
HETATM   22  O1  UNL     1       8.517   2.517  14.696  1.00  0.00    -0.283 OA
ATOM     23  H1  UNL     1       8.402   1.610  14.437  1.00  0.00     0.245 HD
ENDBRANCH  17  22
ENDBRANCH   9  10
ENDBRANCH   6   9
ENDBRANCH   5   6
BRANCH   5  24
HETATM   24  C15 UNL     1       8.330   8.218  21.949  1.00  0.00     0.291 C 
HETATM   25  O2  UNL     1       7.423   7.710  22.688  1.00  0.00    -0.263 OA
BRANCH  24  26
HETATM   26  O3  UNL     1       8.913   9.415  22.346  1.00  0.00    -0.310 OA
BRANCH  26  27
HETATM   27  C16 UNL     1       9.124   9.563  23.754  1.00  0.00     0.281 C 
BRANCH  27  28
HETATM   28  C17 UNL     1      10.432   9.043  24.191  1.00  0.00     0.243 C 
HETATM   29  O4  UNL     1      11.433   9.243  23.473  1.00  0.00    -0.271 OA
HETATM   30  N4  UNL     1      10.515   8.335  25.408  1.00  0.00    -0.359 N 
HETATM   31  C18 UNL     1       9.361   8.093  26.258  1.00  0.00     0.152 C 
HETATM   32  C19 UNL     1      11.834   7.831  25.805  1.00  0.00     0.152 C 
ENDBRANCH  27  28
ENDBRANCH  26  27
ENDBRANCH  24  26
ENDBRANCH   5  24
ENDBRANCH   4   5
ENDBRANCH   3   4
TORSDOF 10
ENDMDL
MODEL 3
REMARK VINA RESULT: -7.530434139      2.553      3.183
REMARK  10 active torsions:
REMARK  status: ('A' for Active; 'I' for Inactive)
REMARK    1  A    between atoms: C3_3  and  C4_4 
REMARK    2  A    between atoms: C4_4  and  C5_5 
REMARK    3  A    between atoms: C5_5  and  N1_6 
REMARK    4  A    between atoms: C5_5  and  C15_24 
REMARK    5  A    between atoms: N1_6  and  C6_9 
REMARK    6  A    between atoms: C6_9  and  C7_10 
REMARK    7  A    between atoms: N3_21  and  O1_22 
REMARK    8  A    between atoms: C15_24  and  O3_26 
REMARK    9  A    between atoms: O3_26  and  C16_27 
REMARK   10  A    between atoms: C16_27  and  C17_28 
REMARK       I    between atoms: C17_28  and  N4_30 
ROOT
HETATM    1  C1  UNL     1       6.422  12.909  19.664  1.00  0.00     0.112 C 
HETATM    2  C2  UNL     1       6.617  11.453  19.835  1.00  0.00    -0.111 C 
HETATM    3  C3  UNL     1       6.760  10.253  19.957  1.00  0.00    -0.104 C 
ENDROOT
BRANCH   3   4
HETATM    4  C4  UNL     1       6.904   8.808  20.078  1.00  0.00     0.137 C 
BRANCH   4   5
HETATM    5  C5  UNL     1       8.337   8.463  20.280  1.00  0.00     0.296 C 
BRANCH   5   6
HETATM    6  N1  UNL     1       8.691   7.177  19.705  1.00  0.00    -0.057 N 
ATOM      7  H12 UNL     1       9.527   7.259  19.126  1.00  0.00     0.278 HD
ATOM      8  H11 UNL     1       9.045   6.545  20.423  1.00  0.00     0.278 HD
BRANCH   6   9
HETATM    9  C6  UNL     1       7.625   6.567  18.974  1.00  0.00     0.274 C 
BRANCH   9  10
HETATM   10  C7  UNL     1       7.524   5.126  19.329  1.00  0.00    -0.002 A 
HETATM   11  C8  UNL     1       8.360   4.187  18.767  1.00  0.00     0.030 A 
HETATM   12  C9  UNL     1       8.245   2.852  19.127  1.00  0.00     0.013 A 
HETATM   13 BR1  UNL     1       9.427   1.598  18.320  1.00  0.00    -0.051 Br
HETATM   14  C10 UNL     1       7.298   2.456  20.046  1.00  0.00     0.053 A 
HETATM   15  C11 UNL     1       6.443   3.379  20.627  1.00  0.00     0.090 A 
HETATM   16  C12 UNL     1       6.565   4.701  20.263  1.00  0.00     0.069 A 
HETATM   17  N3  UNL     1       5.504   3.010  21.530  1.00  0.00    -0.233 N 
HETATM   18  N2  UNL     1       5.755   5.635  20.800  1.00  0.00    -0.362 N 
HETATM   19  C13 UNL     1       4.828   5.238  21.698  1.00  0.00     0.108 A 
ATOM     20  H2  UNL     1       5.840   6.617  20.534  1.00  0.00     0.165 HD
HETATM   21  C14 UNL     1       4.676   3.919  22.088  1.00  0.00     0.140 A 
BRANCH  17  22
HETATM   22  O1  UNL     1       5.435   1.671  21.850  1.00  0.00    -0.283 OA
ATOM     23  H1  UNL     1       4.854   1.131  21.327  1.00  0.00     0.245 HD
ENDBRANCH  17  22
ENDBRANCH   9  10
ENDBRANCH   6   9
ENDBRANCH   5   6
BRANCH   5  24
HETATM   24  C15 UNL     1       8.594   8.371  21.737  1.00  0.00     0.291 C 
HETATM   25  O2  UNL     1       8.320   7.262  22.305  1.00  0.00    -0.263 OA
BRANCH  24  26
HETATM   26  O3  UNL     1       9.108   9.402  22.512  1.00  0.00    -0.310 OA
BRANCH  26  27
HETATM   27  C16 UNL     1       9.207   9.132  23.914  1.00  0.00     0.281 C 
BRANCH  27  28
HETATM   28  C17 UNL     1      10.579   8.789  24.331  1.00  0.00     0.243 C 
HETATM   29  O4  UNL     1      11.536   9.145  23.615  1.00  0.00    -0.271 OA
HETATM   30  N4  UNL     1      10.769   8.068  25.530  1.00  0.00    -0.359 N 
HETATM   31  C18 UNL     1       9.667   7.647  26.378  1.00  0.00     0.152 C 
HETATM   32  C19 UNL     1      12.149   7.744  25.907  1.00  0.00     0.152 C 
ENDBRANCH  27  28
ENDBRANCH  26  27
ENDBRANCH  24  26
ENDBRANCH   5  24
ENDBRANCH   4   5
ENDBRANCH   3   4
TORSDOF 10
ENDMDL
MODEL 4
REMARK VINA RESULT: -7.468375957      3.959      7.048
REMARK  10 active torsions:
REMARK  status: ('A' for Active; 'I' for Inactive)
REMARK    1  A    between atoms: C3_3  and  C4_4 
REMARK    2  A    between atoms: C4_4  and  C5_5 
REMARK    3  A    between atoms: C5_5  and  N1_6 
REMARK    4  A    between atoms: C5_5  and  C15_24 
REMARK    5  A    between atoms: N1_6  and  C6_9 
REMARK    6  A    between atoms: C6_9  and  C7_10 
REMARK    7  A    between atoms: N3_21  and  O1_22 
REMARK    8  A    between atoms: C15_24  and  O3_26 
REMARK    9  A    between atoms: O3_26  and  C16_27 
REMARK   10  A    between atoms: C16_27  and  C17_28 
REMARK       I    between atoms: C17_28  and  N4_30 
ROOT
HETATM    1  C1  UNL     1       9.766   1.159  17.996  1.00  0.00     0.112 C 
HETATM    2  C2  UNL     1       8.708   1.675  18.891  1.00  0.00    -0.111 C 
HETATM    3  C3  UNL     1       7.855   2.119  19.633  1.00  0.00    -0.104 C 
ENDROOT
BRANCH   3   4
HETATM    4  C4  UNL     1       6.855   2.679  20.533  1.00  0.00     0.137 C 
BRANCH   4   5
HETATM    5  C5  UNL     1       6.611   4.104  20.187  1.00  0.00     0.296 C 
BRANCH   5   6
HETATM    6  N1  UNL     1       7.529   5.010  20.856  1.00  0.00    -0.057 N 
ATOM      7  H12 UNL     1       7.182   5.256  21.782  1.00  0.00     0.278 HD
ATOM      8  H11 UNL     1       8.387   4.525  21.120  1.00  0.00     0.278 HD
BRANCH   6   9
HETATM    9  C6  UNL     1       7.824   6.184  20.097  1.00  0.00     0.274 C 
BRANCH   9  10
HETATM   10  C7  UNL     1       7.978   7.353  21.006  1.00  0.00    -0.002 A 
HETATM   11  C8  UNL     1       8.153   7.188  22.362  1.00  0.00     0.030 A 
HETATM   12  C9  UNL     1       8.303   8.298  23.181  1.00  0.00     0.013 A 
HETATM   13 BR1  UNL     1       8.542   8.013  25.047  1.00  0.00    -0.051 Br
HETATM   14  C10 UNL     1       8.279   9.568  22.647  1.00  0.00     0.053 A 
HETATM   15  C11 UNL     1       8.104   9.762  21.286  1.00  0.00     0.090 A 
HETATM   16  C12 UNL     1       7.957   8.655  20.482  1.00  0.00     0.069 A 
HETATM   17  N3  UNL     1       8.075  11.002  20.742  1.00  0.00    -0.233 N 
HETATM   18  N2  UNL     1       7.782   8.794  19.152  1.00  0.00    -0.362 N 
HETATM   19  C13 UNL     1       7.758  10.042  18.637  1.00  0.00     0.108 A 
ATOM     20  H2  UNL     1       7.671   7.977  18.551  1.00  0.00     0.165 HD
HETATM   21  C14 UNL     1       7.903  11.178  19.414  1.00  0.00     0.140 A 
BRANCH  17  22
HETATM   22  O1  UNL     1       8.229  12.068  21.602  1.00  0.00    -0.283 OA
ATOM     23  H1  UNL     1       7.841  12.894  21.341  1.00  0.00     0.245 HD
ENDBRANCH  17  22
ENDBRANCH   9  10
ENDBRANCH   6   9
ENDBRANCH   5   6
BRANCH   5  24
HETATM   24  C15 UNL     1       5.245   4.467  20.633  1.00  0.00     0.291 C 
HETATM   25  O2  UNL     1       4.287   4.212  19.830  1.00  0.00    -0.263 OA
BRANCH  24  26
HETATM   26  O3  UNL     1       4.946   5.058  21.853  1.00  0.00    -0.310 OA
BRANCH  26  27
HETATM   27  C16 UNL     1       4.424   6.389  21.784  1.00  0.00     0.281 C 
BRANCH  27  28
HETATM   28  C17 UNL     1       4.646   7.152  23.025  1.00  0.00     0.243 C 
HETATM   29  O4  UNL     1       4.826   6.533  24.092  1.00  0.00    -0.271 OA
HETATM   30  N4  UNL     1       4.649   8.562  22.969  1.00  0.00    -0.359 N 
HETATM   31  C18 UNL     1       4.443   9.302  21.736  1.00  0.00     0.152 C 
HETATM   32  C19 UNL     1       4.870   9.284  24.227  1.00  0.00     0.152 C 
ENDBRANCH  27  28
ENDBRANCH  26  27
ENDBRANCH  24  26
ENDBRANCH   5  24
ENDBRANCH   4   5
ENDBRANCH   3   4
TORSDOF 10
ENDMDL
MODEL 5
REMARK VINA RESULT: -7.423765217      2.318      3.136
REMARK  10 active torsions:
REMARK  status: ('A' for Active; 'I' for Inactive)
REMARK    1  A    between atoms: C3_3  and  C4_4 
REMARK    2  A    between atoms: C4_4  and  C5_5 
REMARK    3  A    between atoms: C5_5  and  N1_6 
REMARK    4  A    between atoms: C5_5  and  C15_24 
REMARK    5  A    between atoms: N1_6  and  C6_9 
REMARK    6  A    between atoms: C6_9  and  C7_10 
REMARK    7  A    between atoms: N3_21  and  O1_22 
REMARK    8  A    between atoms: C15_24  and  O3_26 
REMARK    9  A    between atoms: O3_26  and  C16_27 
REMARK   10  A    between atoms: C16_27  and  C17_28 
REMARK       I    between atoms: C17_28  and  N4_30 
ROOT
HETATM    1  C1  UNL     1       4.266   9.177  24.384  1.00  0.00     0.112 C 
HETATM    2  C2  UNL     1       5.112   8.344  23.502  1.00  0.00    -0.111 C 
HETATM    3  C3  UNL     1       5.794   7.671  22.756  1.00  0.00    -0.104 C 
ENDROOT
BRANCH   3   4
HETATM    4  C4  UNL     1       6.594   6.876  21.833  1.00  0.00     0.137 C 
BRANCH   4   5
HETATM    5  C5  UNL     1       7.428   7.776  20.991  1.00  0.00     0.296 C 
BRANCH   5   6
HETATM    6  N1  UNL     1       7.996   7.100  19.838  1.00  0.00    -0.057 N 
ATOM      7  H12 UNL     1       7.706   7.556  18.973  1.00  0.00     0.278 HD
ATOM      8  H11 UNL     1       9.002   7.259  19.785  1.00  0.00     0.278 HD
BRANCH   6   9
HETATM    9  C6  UNL     1       7.702   5.702  19.797  1.00  0.00     0.274 C 
BRANCH   9  10
HETATM   10  C7  UNL     1       7.407   5.285  18.398  1.00  0.00    -0.002 A 
HETATM   11  C8  UNL     1       6.417   5.896  17.661  1.00  0.00     0.030 A 
HETATM   12  C9  UNL     1       6.174   5.489  16.357  1.00  0.00     0.013 A 
HETATM   13 BR1  UNL     1       4.794   6.367  15.384  1.00  0.00    -0.051 Br
HETATM   14  C10 UNL     1       6.917   4.477  15.791  1.00  0.00     0.053 A 
HETATM   15  C11 UNL     1       7.920   3.845  16.510  1.00  0.00     0.090 A 
HETATM   16  C12 UNL     1       8.153   4.255  17.803  1.00  0.00     0.069 A 
HETATM   17  N3  UNL     1       8.660   2.846  15.973  1.00  0.00    -0.233 N 
HETATM   18  N2  UNL     1       9.116   3.669  18.543  1.00  0.00    -0.362 N 
HETATM   19  C13 UNL     1       9.839   2.676  17.981  1.00  0.00     0.108 A 
ATOM     20  H2  UNL     1       9.293   3.968  19.502  1.00  0.00     0.165 HD
HETATM   21  C14 UNL     1       9.633   2.238  16.685  1.00  0.00     0.140 A 
BRANCH  17  22
HETATM   22  O1  UNL     1       8.375   2.484  14.674  1.00  0.00    -0.283 OA
ATOM     23  H1  UNL     1       8.494   3.147  14.005  1.00  0.00     0.245 HD
ENDBRANCH  17  22
ENDBRANCH   9  10
ENDBRANCH   6   9
ENDBRANCH   5   6
BRANCH   5  24
HETATM   24  C15 UNL     1       8.563   8.262  21.810  1.00  0.00     0.291 C 
HETATM   25  O2  UNL     1       9.240   9.237  21.343  1.00  0.00    -0.263 OA
BRANCH  24  26
HETATM   26  O3  UNL     1       8.932   7.730  23.039  1.00  0.00    -0.310 OA
BRANCH  26  27
HETATM   27  C16 UNL     1       9.337   8.681  24.028  1.00  0.00     0.281 C 
BRANCH  27  28
HETATM   28  C17 UNL     1      10.752   8.534  24.413  1.00  0.00     0.243 C 
HETATM   29  O4  UNL     1      11.635   8.990  23.659  1.00  0.00    -0.271 OA
HETATM   30  N4  UNL     1      11.068   7.881  25.624  1.00  0.00    -0.359 N 
HETATM   31  C18 UNL     1      10.055   7.345  26.516  1.00  0.00     0.152 C 
HETATM   32  C19 UNL     1      12.488   7.753  25.968  1.00  0.00     0.152 C 
ENDBRANCH  27  28
ENDBRANCH  26  27
ENDBRANCH  24  26
ENDBRANCH   5  24
ENDBRANCH   4   5
ENDBRANCH   3   4
TORSDOF 10
ENDMDL
