MODEL 1
REMARK VINA RESULT: -6.808789480      0.000      0.000
REMARK  8 active torsions:
REMARK  status: ('A' for Active; 'I' for Inactive)
REMARK    1  A    between atoms: C2_2  and  N1_3 
REMARK    2  A    between atoms: N1_3  and  C3_4 
REMARK    3  A    between atoms: N1_3  and  C5_6 
REMARK    4  A    between atoms: C5_6  and  C6_7 
REMARK    5  A    between atoms: C6_7  and  C7_8 
REMARK    6  A    between atoms: C7_8  and  N2_9 
REMARK    7  A    between atoms: N2_9  and  C8_11 
REMARK    8  A    between atoms: C20_32  and  O3_33 
ROOT
HETATM    1  C8  UNL     1       6.292   5.176  18.681  1.00  0.00     0.119 A 
HETATM    2  N3  UNL     1       6.329   3.966  19.265  1.00  0.00    -0.338 N 
ATOM      3  H3  UNL     1       5.871   3.169  18.823  1.00  0.00     0.168 HD
HETATM    4  C9  UNL     1       6.987   3.811  20.455  1.00  0.00     0.182 A 
HETATM    5  N4  UNL     1       7.606   4.827  21.079  1.00  0.00    -0.354 N 
ATOM      6  H4  UNL     1       8.085   4.670  21.966  1.00  0.00     0.166 HD
HETATM    7  C10 UNL     1       7.589   6.072  20.515  1.00  0.00     0.038 A 
HETATM    8  C11 UNL     1       6.925   6.208  19.322  1.00  0.00     0.099 A 
HETATM    9  C12 UNL     1       6.884   7.517  18.681  1.00  0.00     0.259 C 
HETATM   10  O1  UNL     1       6.282   7.659  17.592  1.00  0.00    -0.267 OA
HETATM   11  N5  UNL     1       7.522   8.628  19.286  1.00  0.00    -0.344 N 
HETATM   12  C13 UNL     1       7.898   9.754  18.480  1.00  0.00     0.153 C 
HETATM   13  C14 UNL     1       7.759   8.561  20.697  1.00  0.00     0.130 C 
HETATM   14  C15 UNL     1       8.255   7.214  21.147  1.00  0.00     0.087 C 
HETATM   15  C16 UNL     1       7.969   7.229  22.629  1.00  0.00     0.134 C 
HETATM   16  N6  UNL     1       8.610   8.332  23.328  1.00  0.00    -0.347 N 
HETATM   17  C17 UNL     1       9.942   8.871  23.451  1.00  0.00     0.153 C 
HETATM   18  C18 UNL     1       7.333   8.680  23.871  1.00  0.00     0.248 C 
HETATM   19  O2  UNL     1       6.886   9.298  24.858  1.00  0.00    -0.271 OA
HETATM   20  C19 UNL     1       6.683   7.974  22.735  1.00  0.00     0.166 C 
HETATM   21 CL1  UNL     1       5.339   6.931  23.166  1.00  0.00    -0.104 Cl
HETATM   22  C20 UNL     1       6.527   8.809  21.507  1.00  0.00     0.179 C 
ENDROOT
BRANCH   1  23
HETATM   23  N2  UNL     1       5.697   5.361  17.579  1.00  0.00    -0.375 N 
ATOM     24  H2  UNL     1       5.138   6.206  17.468  1.00  0.00     0.161 HD
BRANCH  23  25
HETATM   25  C7  UNL     1       5.768   4.434  16.463  1.00  0.00     0.123 C 
BRANCH  25  26
HETATM   26  C6  UNL     1       7.000   4.696  15.620  1.00  0.00     0.039 C 
BRANCH  26  27
HETATM   27  C5  UNL     1       7.753   3.426  15.453  1.00  0.00     0.118 C 
BRANCH  27  28
HETATM   28  N1  UNL     1       8.092   2.721  16.631  1.00  0.00    -0.413 N 
BRANCH  28  29
HETATM   29  C2  UNL     1       9.231   3.199  17.343  1.00  0.00     0.112 C 
HETATM   30  C1  UNL     1      10.215   2.131  17.699  1.00  0.00     0.026 C 
ENDBRANCH  28  29
BRANCH  28  31
HETATM   31  C3  UNL     1       8.042   1.304  16.610  1.00  0.00     0.112 C 
HETATM   32  C4  UNL     1       6.907   0.919  15.647  1.00  0.00     0.026 C 
ENDBRANCH  28  31
ENDBRANCH  27  28
ENDBRANCH  26  27
ENDBRANCH  25  26
ENDBRANCH  23  25
ENDBRANCH   1  23
BRANCH  22  33
HETATM   33  O3  UNL     1       5.377   8.539  20.795  1.00  0.00    -0.386 OA
HETATM   34  C21 UNL     1       4.482   9.581  20.872  1.00  0.00     0.202 C 
ENDBRANCH  22  33
TORSDOF 8
ENDMDL
MODEL 2
REMARK VINA RESULT: -6.742144389      0.158      1.214
REMARK  8 active torsions:
REMARK  status: ('A' for Active; 'I' for Inactive)
REMARK    1  A    between atoms: C2_2  and  N1_3 
REMARK    2  A    between atoms: N1_3  and  C3_4 
REMARK    3  A    between atoms: N1_3  and  C5_6 
REMARK    4  A    between atoms: C5_6  and  C6_7 
REMARK    5  A    between atoms: C6_7  and  C7_8 
REMARK    6  A    between atoms: C7_8  and  N2_9 
REMARK    7  A    between atoms: N2_9  and  C8_11 
REMARK    8  A    between atoms: C20_32  and  O3_33 
ROOT
HETATM    1  C8  UNL     1       6.270   5.212  18.659  1.00  0.00     0.119 A 
HETATM    2  N3  UNL     1       6.313   3.997  19.231  1.00  0.00    -0.338 N 
ATOM      3  H3  UNL     1       5.848   3.205  18.787  1.00  0.00     0.168 HD
HETATM    4  C9  UNL     1       6.985   3.830  20.411  1.00  0.00     0.182 A 
HETATM    5  N4  UNL     1       7.612   4.838  21.037  1.00  0.00    -0.354 N 
ATOM      6  H4  UNL     1       8.102   4.673  21.917  1.00  0.00     0.166 HD
HETATM    7  C10 UNL     1       7.590   6.089  20.486  1.00  0.00     0.038 A 
HETATM    8  C11 UNL     1       6.912   6.237  19.302  1.00  0.00     0.099 A 
HETATM    9  C12 UNL     1       6.866   7.552  18.675  1.00  0.00     0.259 C 
HETATM   10  O1  UNL     1       6.251   7.706  17.594  1.00  0.00    -0.267 OA
HETATM   11  N5  UNL     1       7.512   8.656  19.282  1.00  0.00    -0.344 N 
HETATM   12  C13 UNL     1       7.881   9.790  18.483  1.00  0.00     0.153 C 
HETATM   13  C14 UNL     1       7.766   8.576  20.690  1.00  0.00     0.130 C 
HETATM   14  C15 UNL     1       8.265   7.224  21.121  1.00  0.00     0.087 C 
HETATM   15  C16 UNL     1       7.998   7.225  22.606  1.00  0.00     0.134 C 
HETATM   16  N6  UNL     1       8.649   8.320  23.308  1.00  0.00    -0.347 N 
HETATM   17  C17 UNL     1       9.983   8.856  23.420  1.00  0.00     0.153 C 
HETATM   18  C18 UNL     1       7.378   8.665  23.870  1.00  0.00     0.248 C 
HETATM   19  O2  UNL     1       6.944   9.274  24.868  1.00  0.00    -0.271 OA
HETATM   20  C19 UNL     1       6.715   7.971  22.735  1.00  0.00     0.166 C 
HETATM   21 CL1  UNL     1       5.374   6.926  23.172  1.00  0.00    -0.104 Cl
HETATM   22  C20 UNL     1       6.545   8.817  21.516  1.00  0.00     0.179 C 
ENDROOT
BRANCH   1  23
HETATM   23  N2  UNL     1       5.663   5.408  17.566  1.00  0.00    -0.375 N 
ATOM     24  H2  UNL     1       5.066   6.232  17.486  1.00  0.00     0.161 HD
BRANCH  23  25
HETATM   25  C7  UNL     1       5.770   4.525  16.418  1.00  0.00     0.123 C 
BRANCH  25  26
HETATM   26  C6  UNL     1       7.130   4.652  15.763  1.00  0.00     0.039 C 
BRANCH  26  27
HETATM   27  C5  UNL     1       7.553   3.320  15.259  1.00  0.00     0.118 C 
BRANCH  27  28
HETATM   28  N1  UNL     1       8.438   2.578  16.075  1.00  0.00    -0.413 N 
BRANCH  28  29
HETATM   29  C2  UNL     1       8.005   1.270  16.442  1.00  0.00     0.112 C 
HETATM   30  C1  UNL     1       6.840   0.772  15.649  1.00  0.00     0.026 C 
ENDBRANCH  28  29
BRANCH  28  31
HETATM   31  C3  UNL     1       9.083   3.239  17.151  1.00  0.00     0.112 C 
HETATM   32  C4  UNL     1      10.151   2.270  17.685  1.00  0.00     0.026 C 
ENDBRANCH  28  31
ENDBRANCH  27  28
ENDBRANCH  26  27
ENDBRANCH  25  26
ENDBRANCH  23  25
ENDBRANCH   1  23
BRANCH  22  33
HETATM   33  O3  UNL     1       5.386   8.556  20.816  1.00  0.00    -0.386 OA
HETATM   34  C21 UNL     1       4.494   9.599  20.912  1.00  0.00     0.202 C 
ENDBRANCH  22  33
TORSDOF 8
ENDMDL
MODEL 3
REMARK VINA RESULT: -6.481639769      1.486      1.847
REMARK  8 active torsions:
REMARK  status: ('A' for Active; 'I' for Inactive)
REMARK    1  A    between atoms: C2_2  and  N1_3 
REMARK    2  A    between atoms: N1_3  and  C3_4 
REMARK    3  A    between atoms: N1_3  and  C5_6 
REMARK    4  A    between atoms: C5_6  and  C6_7 
REMARK    5  A    between atoms: C6_7  and  C7_8 
REMARK    6  A    between atoms: C7_8  and  N2_9 
REMARK    7  A    between atoms: N2_9  and  C8_11 
REMARK    8  A    between atoms: C20_32  and  O3_33 
ROOT
HETATM    1  C8  UNL     1       5.660   5.567  18.951  1.00  0.00     0.119 A 
HETATM    2  N3  UNL     1       4.965   4.508  19.397  1.00  0.00    -0.338 N 
ATOM      3  H3  UNL     1       4.479   3.899  18.739  1.00  0.00     0.168 HD
HETATM    4  C9  UNL     1       4.913   4.252  20.741  1.00  0.00     0.182 A 
HETATM    5  N4  UNL     1       5.532   5.022  21.649  1.00  0.00    -0.354 N 
ATOM      6  H4  UNL     1       5.468   4.798  22.643  1.00  0.00     0.166 HD
HETATM    7  C10 UNL     1       6.249   6.108  21.233  1.00  0.00     0.038 A 
HETATM    8  C11 UNL     1       6.290   6.349  19.882  1.00  0.00     0.099 A 
HETATM    9  C12 UNL     1       7.047   7.495  19.392  1.00  0.00     0.259 C 
HETATM   10  O1  UNL     1       7.095   7.729  18.162  1.00  0.00    -0.267 OA
HETATM   11  N5  UNL     1       7.727   8.342  20.299  1.00  0.00    -0.344 N 
HETATM   12  C13 UNL     1       8.824   9.144  19.835  1.00  0.00     0.153 C 
HETATM   13  C14 UNL     1       7.271   8.352  21.658  1.00  0.00     0.130 C 
HETATM   14  C15 UNL     1       6.953   6.978  22.180  1.00  0.00     0.087 C 
HETATM   15  C16 UNL     1       6.074   7.267  23.372  1.00  0.00     0.134 C 
HETATM   16  N6  UNL     1       6.713   8.118  24.366  1.00  0.00    -0.347 N 
HETATM   17  C17 UNL     1       7.946   8.124  25.113  1.00  0.00     0.153 C 
HETATM   18  C18 UNL     1       5.574   8.982  24.301  1.00  0.00     0.248 C 
HETATM   19  O2  UNL     1       5.017   9.831  25.026  1.00  0.00    -0.271 OA
HETATM   20  C19 UNL     1       5.275   8.451  22.946  1.00  0.00     0.166 C 
HETATM   21 CL1  UNL     1       3.593   8.049  22.648  1.00  0.00    -0.104 Cl
HETATM   22  C20 UNL     1       6.014   9.137  21.844  1.00  0.00     0.179 C 
ENDROOT
BRANCH   1  23
HETATM   23  N2  UNL     1       5.736   5.837  17.716  1.00  0.00    -0.375 N 
ATOM     24  H2  UNL     1       5.590   6.802  17.423  1.00  0.00     0.161 HD
BRANCH  23  25
HETATM   25  C7  UNL     1       6.021   4.845  16.694  1.00  0.00     0.123 C 
BRANCH  25  26
HETATM   26  C6  UNL     1       7.471   4.409  16.752  1.00  0.00     0.039 C 
BRANCH  26  27
HETATM   27  C5  UNL     1       7.529   2.950  17.026  1.00  0.00     0.118 C 
BRANCH  27  28
HETATM   28  N1  UNL     1       8.452   2.517  18.005  1.00  0.00    -0.413 N 
BRANCH  28  29
HETATM   29  C2  UNL     1       8.201   2.951  19.340  1.00  0.00     0.112 C 
HETATM   30  C1  UNL     1       7.538   1.921  20.197  1.00  0.00     0.026 C 
ENDBRANCH  28  29
BRANCH  28  31
HETATM   31  C3  UNL     1       9.835   2.551  17.694  1.00  0.00     0.112 C 
HETATM   32  C4  UNL     1      10.364   1.120  17.882  1.00  0.00     0.026 C 
ENDBRANCH  28  31
ENDBRANCH  27  28
ENDBRANCH  26  27
ENDBRANCH  25  26
ENDBRANCH  23  25
ENDBRANCH   1  23
BRANCH  22  33
HETATM   33  O3  UNL     1       5.292   9.243  20.674  1.00  0.00    -0.386 OA
HETATM   34  C21 UNL     1       4.909  10.543  20.435  1.00  0.00     0.202 C 
ENDBRANCH  22  33
TORSDOF 8
ENDMDL
MODEL 4
REMARK VINA RESULT: -6.462464225      2.365      4.101
REMARK  8 active torsions:
REMARK  status: ('A' for Active; 'I' for Inactive)
REMARK    1  A    between atoms: C2_2  and  N1_3 
REMARK    2  A    between atoms: N1_3  and  C3_4 
REMARK    3  A    between atoms: N1_3  and  C5_6 
REMARK    4  A    between atoms: C5_6  and  C6_7 
REMARK    5  A    between atoms: C6_7  and  C7_8 
REMARK    6  A    between atoms: C7_8  and  N2_9 
REMARK    7  A    between atoms: N2_9  and  C8_11 
REMARK    8  A    between atoms: C20_32  and  O3_33 
ROOT
HETATM    1  C8  UNL     1       5.597   5.503  20.486  1.00  0.00     0.119 A 
HETATM    2  N3  UNL     1       5.606   5.156  19.188  1.00  0.00    -0.338 N 
ATOM      3  H3  UNL     1       5.602   4.172  18.920  1.00  0.00     0.168 HD
HETATM    4  C9  UNL     1       5.621   6.132  18.228  1.00  0.00     0.182 A 
HETATM    5  N4  UNL     1       5.629   7.441  18.526  1.00  0.00    -0.354 N 
ATOM      6  H4  UNL     1       5.641   8.138  17.781  1.00  0.00     0.166 HD
HETATM    7  C10 UNL     1       5.620   7.832  19.836  1.00  0.00     0.038 A 
HETATM    8  C11 UNL     1       5.604   6.839  20.784  1.00  0.00     0.099 A 
HETATM    9  C12 UNL     1       5.590   7.210  22.194  1.00  0.00     0.259 C 
HETATM   10  O1  UNL     1       5.576   6.317  23.072  1.00  0.00    -0.267 OA
HETATM   11  N5  UNL     1       5.592   8.574  22.574  1.00  0.00    -0.344 N 
HETATM   12  C13 UNL     1       5.106   8.949  23.871  1.00  0.00     0.153 C 
HETATM   13  C14 UNL     1       6.089   9.521  21.620  1.00  0.00     0.130 C 
HETATM   14  C15 UNL     1       5.618   9.246  20.219  1.00  0.00     0.087 C 
HETATM   15  C16 UNL     1       6.606  10.015  19.376  1.00  0.00     0.134 C 
HETATM   16  N6  UNL     1       6.651  11.435  19.691  1.00  0.00    -0.347 N 
HETATM   17  C17 UNL     1       5.709  12.521  19.803  1.00  0.00     0.153 C 
HETATM   18  C18 UNL     1       8.068  11.315  19.850  1.00  0.00     0.248 C 
HETATM   19  O2  UNL     1       9.069  12.059  19.804  1.00  0.00    -0.271 OA
HETATM   20  C19 UNL     1       7.894   9.862  20.110  1.00  0.00     0.166 C 
HETATM   21 CL1  UNL     1       9.020   8.807  19.273  1.00  0.00    -0.104 Cl
HETATM   22  C20 UNL     1       7.581   9.528  21.532  1.00  0.00     0.179 C 
ENDROOT
BRANCH   1  23
HETATM   23  N2  UNL     1       5.579   4.631  21.404  1.00  0.00    -0.375 N 
ATOM     24  H2  UNL     1       5.478   4.948  22.368  1.00  0.00     0.161 HD
BRANCH  23  25
HETATM   25  C7  UNL     1       5.695   3.204  21.158  1.00  0.00     0.123 C 
BRANCH  25  26
HETATM   26  C6  UNL     1       7.143   2.805  20.961  1.00  0.00     0.039 C 
BRANCH  26  27
HETATM   27  C5  UNL     1       7.270   2.055  19.685  1.00  0.00     0.118 C 
BRANCH  27  28
HETATM   28  N1  UNL     1       8.444   2.273  18.927  1.00  0.00    -0.413 N 
BRANCH  28  29
HETATM   29  C2  UNL     1       8.694   3.619  18.530  1.00  0.00     0.112 C 
HETATM   30  C1  UNL     1       8.321   3.913  17.113  1.00  0.00     0.026 C 
ENDBRANCH  28  29
BRANCH  28  31
HETATM   31  C3  UNL     1       8.763   1.354  17.896  1.00  0.00     0.112 C 
HETATM   32  C4  UNL     1      10.212   0.902  18.144  1.00  0.00     0.026 C 
ENDBRANCH  28  31
ENDBRANCH  27  28
ENDBRANCH  26  27
ENDBRANCH  25  26
ENDBRANCH  23  25
ENDBRANCH   1  23
BRANCH  22  33
HETATM   33  O3  UNL     1       8.130   8.337  21.956  1.00  0.00    -0.386 OA
HETATM   34  C21 UNL     1       9.152   8.546  22.853  1.00  0.00     0.202 C 
ENDBRANCH  22  33
TORSDOF 8
ENDMDL
MODEL 5
REMARK VINA RESULT: -6.392294766      3.883      7.299
REMARK  8 active torsions:
REMARK  status: ('A' for Active; 'I' for Inactive)
REMARK    1  A    between atoms: C2_2  and  N1_3 
REMARK    2  A    between atoms: N1_3  and  C3_4 
REMARK    3  A    between atoms: N1_3  and  C5_6 
REMARK    4  A    between atoms: C5_6  and  C6_7 
REMARK    5  A    between atoms: C6_7  and  C7_8 
REMARK    6  A    between atoms: C7_8  and  N2_9 
REMARK    7  A    between atoms: N2_9  and  C8_11 
REMARK    8  A    between atoms: C20_32  and  O3_33 
ROOT
HETATM    1  C8  UNL     1       7.765   9.496  23.259  1.00  0.00     0.119 A 
HETATM    2  N3  UNL     1       7.328   9.062  24.452  1.00  0.00    -0.338 N 
ATOM      3  H3  UNL     1       7.991   8.874  25.205  1.00  0.00     0.168 HD
HETATM    4  C9  UNL     1       5.987   8.873  24.652  1.00  0.00     0.182 A 
HETATM    5  N4  UNL     1       5.073   9.103  23.696  1.00  0.00    -0.354 N 
ATOM      6  H4  UNL     1       4.082   8.949  23.884  1.00  0.00     0.166 HD
HETATM    7  C10 UNL     1       5.480   9.546  22.469  1.00  0.00     0.038 A 
HETATM    8  C11 UNL     1       6.828   9.730  22.288  1.00  0.00     0.099 A 
HETATM    9  C12 UNL     1       7.309  10.205  20.996  1.00  0.00     0.259 C 
HETATM   10  O1  UNL     1       8.536  10.378  20.813  1.00  0.00    -0.267 OA
HETATM   11  N5  UNL     1       6.394  10.472  19.948  1.00  0.00    -0.344 N 
HETATM   12  C13 UNL     1       6.772  11.361  18.887  1.00  0.00     0.153 C 
HETATM   13  C14 UNL     1       5.118   9.824  20.010  1.00  0.00     0.130 C 
HETATM   14  C15 UNL     1       4.526   9.822  21.392  1.00  0.00     0.087 C 
HETATM   15  C16 UNL     1       3.495   8.722  21.315  1.00  0.00     0.134 C 
HETATM   16  N6  UNL     1       2.502   8.935  20.273  1.00  0.00    -0.347 N 
HETATM   17  C17 UNL     1       1.596   9.985  19.878  1.00  0.00     0.153 C 
HETATM   18  C18 UNL     1       2.798   7.625  19.777  1.00  0.00     0.248 C 
HETATM   19  O2  UNL     1       2.235   6.747  19.093  1.00  0.00    -0.271 OA
HETATM   20  C19 UNL     1       4.130   7.703  20.432  1.00  0.00     0.166 C 
HETATM   21 CL1  UNL     1       4.620   6.266  21.314  1.00  0.00    -0.104 Cl
HETATM   22  C20 UNL     1       5.176   8.385  19.613  1.00  0.00     0.179 C 
ENDROOT
BRANCH   1  23
HETATM   23  N2  UNL     1       8.997   9.687  23.035  1.00  0.00    -0.375 N 
ATOM     24  H2  UNL     1       9.281  10.580  22.633  1.00  0.00     0.161 HD
BRANCH  23  25
HETATM   25  C7  UNL     1      10.027   8.704  23.319  1.00  0.00     0.123 C 
BRANCH  25  26
HETATM   26  C6  UNL     1      11.126   9.303  24.172  1.00  0.00     0.039 C 
BRANCH  26  27
HETATM   27  C5  UNL     1      10.832   9.033  25.603  1.00  0.00     0.118 C 
BRANCH  27  28
HETATM   28  N1  UNL     1      11.660   8.095  26.262  1.00  0.00    -0.413 N 
BRANCH  28  29
HETATM   29  C2  UNL     1      12.781   7.617  25.520  1.00  0.00     0.112 C 
HETATM   30  C1  UNL     1      13.978   7.312  26.362  1.00  0.00     0.026 C 
ENDBRANCH  28  29
BRANCH  28  31
HETATM   31  C3  UNL     1      11.047   7.059  27.011  1.00  0.00     0.112 C 
HETATM   32  C4  UNL     1       9.530   7.204  26.800  1.00  0.00     0.026 C 
ENDBRANCH  28  31
ENDBRANCH  27  28
ENDBRANCH  26  27
ENDBRANCH  25  26
ENDBRANCH  23  25
ENDBRANCH   1  23
BRANCH  22  33
HETATM   33  O3  UNL     1       6.438   7.855  19.772  1.00  0.00    -0.386 OA
HETATM   34  C21 UNL     1       6.830   7.146  18.660  1.00  0.00     0.202 C 
ENDBRANCH  22  33
TORSDOF 8
ENDMDL
