MODEL 1
REMARK VINA RESULT: -8.396856156      0.000      0.000
REMARK  10 active torsions:
REMARK  status: ('A' for Active; 'I' for Inactive)
REMARK    1  A    between atoms: C3_3  and  O1_4 
REMARK    2  A    between atoms: C3_3  and  C4_6 
REMARK    3  A    between atoms: C8_13  and  C9_14 
REMARK    4  A    between atoms: C9_14  and  O3_16 
REMARK    5  A    between atoms: O3_16  and  C10_17 
REMARK    6  A    between atoms: C10_17  and  C11_18 
REMARK       I    between atoms: C11_18  and  N2_20 
REMARK    7  A    between atoms: N2_20  and  C13_22 
REMARK    8  A    between atoms: C13_22  and  C14_23 
REMARK       I    between atoms: C14_23  and  N3_25 
REMARK    9  A    between atoms: N3_25  and  C15_27 
REMARK   10  A    between atoms: C15_27  and  C16_28 
ROOT
HETATM    1  C1  UNL     1       4.477   9.457  24.898  1.00  0.00     0.105 C 
HETATM    2  C2  UNL     1       5.491   8.784  24.683  1.00  0.00    -0.123 C 
HETATM    3  C3  UNL     1       6.626   7.967  24.500  1.00  0.00     0.120 C 
ENDROOT
BRANCH   3   4
HETATM    4  O1  UNL     1       6.431   6.680  24.460  1.00  0.00    -0.353 OA
ATOM      5  H1  UNL     1       7.151   6.141  24.156  1.00  0.00     0.218 HD
ENDBRANCH   3   4
BRANCH   3   6
HETATM    6  C4  UNL     1       7.992   8.394  24.371  1.00  0.00     0.039 A 
HETATM    7  C5  UNL     1       8.900   7.790  25.286  1.00  0.00     0.038 A 
HETATM    8  C6  UNL     1      10.170   8.248  25.469  1.00  0.00     0.027 A 
HETATM    9 BR1  UNL     1      11.350   7.390  26.721  1.00  0.00    -0.050 Br
HETATM   10  C7  UNL     1      10.573   9.335  24.736  1.00  0.00     0.107 A 
HETATM   11  N1  UNL     1       9.745   9.914  23.873  1.00  0.00    -0.359 N 
HETATM   12  C8  UNL     1       8.448   9.459  23.667  1.00  0.00     0.122 A 
ATOM     13  H1  UNL     1      10.073  10.721  23.342  1.00  0.00     0.165 HD
BRANCH  12  14
HETATM   14  C9  UNL     1       7.784  10.024  22.496  1.00  0.00     0.311 C 
HETATM   15  O2  UNL     1       8.350  11.048  21.955  1.00  0.00    -0.258 OA
BRANCH  14  16
HETATM   16  O3  UNL     1       6.651   9.624  21.867  1.00  0.00    -0.307 OA
BRANCH  16  17
HETATM   17  C10 UNL     1       6.537   8.853  20.704  1.00  0.00     0.281 C 
BRANCH  17  18
HETATM   18  C11 UNL     1       5.764   7.627  20.991  1.00  0.00     0.244 C 
HETATM   19  O4  UNL     1       4.554   7.731  21.325  1.00  0.00    -0.271 OA
HETATM   20  N2  UNL     1       6.395   6.353  20.885  1.00  0.00    -0.346 N 
HETATM   21  C12 UNL     1       5.636   5.167  21.165  1.00  0.00     0.153 C 
BRANCH  20  22
HETATM   22  C13 UNL     1       7.783   6.290  20.498  1.00  0.00     0.228 C 
BRANCH  22  23
HETATM   23  C14 UNL     1       7.888   5.609  19.188  1.00  0.00     0.235 C 
HETATM   24  O5  UNL     1       7.477   6.195  18.164  1.00  0.00    -0.272 OA
HETATM   25  N3  UNL     1       8.442   4.306  19.048  1.00  0.00    -0.359 N 
ATOM     26  H3  UNL     1       8.782   3.807  19.870  1.00  0.00     0.162 HD
BRANCH  25  27
HETATM   27  C15 UNL     1       8.521   3.691  17.758  1.00  0.00     0.131 C 
BRANCH  27  28
HETATM   28  C16 UNL     1       8.844   2.218  17.832  1.00  0.00    -0.035 C 
HETATM   29  C17 UNL     1       8.285   1.705  19.156  1.00  0.00     0.016 C 
HETATM   30  C18 UNL     1      10.342   2.048  17.765  1.00  0.00     0.016 C 
HETATM   31  C19 UNL     1       8.236   1.465  16.667  1.00  0.00     0.016 C 
ENDBRANCH  27  28
ENDBRANCH  25  27
ENDBRANCH  22  23
ENDBRANCH  20  22
ENDBRANCH  17  18
ENDBRANCH  16  17
ENDBRANCH  14  16
ENDBRANCH  12  14
ENDBRANCH   3   6
TORSDOF 10
ENDMDL
MODEL 2
REMARK VINA RESULT: -8.228084124      2.401      3.482
REMARK  10 active torsions:
REMARK  status: ('A' for Active; 'I' for Inactive)
REMARK    1  A    between atoms: C3_3  and  O1_4 
REMARK    2  A    between atoms: C3_3  and  C4_6 
REMARK    3  A    between atoms: C8_13  and  C9_14 
REMARK    4  A    between atoms: C9_14  and  O3_16 
REMARK    5  A    between atoms: O3_16  and  C10_17 
REMARK    6  A    between atoms: C10_17  and  C11_18 
REMARK       I    between atoms: C11_18  and  N2_20 
REMARK    7  A    between atoms: N2_20  and  C13_22 
REMARK    8  A    between atoms: C13_22  and  C14_23 
REMARK       I    between atoms: C14_23  and  N3_25 
REMARK    9  A    between atoms: N3_25  and  C15_27 
REMARK   10  A    between atoms: C15_27  and  C16_28 
ROOT
HETATM    1  C1  UNL     1      10.750   9.289  25.219  1.00  0.00     0.105 C 
HETATM    2  C2  UNL     1       9.622   8.832  25.008  1.00  0.00    -0.123 C 
HETATM    3  C3  UNL     1       8.369   8.244  24.737  1.00  0.00     0.120 C 
ENDROOT
BRANCH   3   4
HETATM    4  O1  UNL     1       8.198   7.009  25.114  1.00  0.00    -0.353 OA
ATOM      5  H1  UNL     1       7.308   6.726  25.281  1.00  0.00     0.218 HD
ENDBRANCH   3   4
BRANCH   3   6
HETATM    6  C4  UNL     1       7.252   8.850  24.066  1.00  0.00     0.039 A 
HETATM    7  C5  UNL     1       6.006   8.733  24.745  1.00  0.00     0.038 A 
HETATM    8  C6  UNL     1       4.816   9.029  24.151  1.00  0.00     0.027 A 
HETATM    9 BR1  UNL     1       3.166   8.851  25.120  1.00  0.00    -0.050 Br
HETATM   10  C7  UNL     1       4.837   9.452  22.846  1.00  0.00     0.107 A 
HETATM   11  N1  UNL     1       5.988   9.573  22.191  1.00  0.00    -0.359 N 
HETATM   12  C8  UNL     1       7.212   9.282  22.781  1.00  0.00     0.122 A 
ATOM     13  H1  UNL     1       5.971   9.890  21.222  1.00  0.00     0.165 HD
BRANCH  12  14
HETATM   14  C9  UNL     1       8.375   9.735  22.023  1.00  0.00     0.311 C 
HETATM   15  O2  UNL     1       8.620  11.000  22.053  1.00  0.00    -0.258 OA
BRANCH  14  16
HETATM   16  O3  UNL     1       9.264   9.018  21.291  1.00  0.00    -0.307 OA
BRANCH  16  17
HETATM   17  C10 UNL     1       8.996   8.039  20.327  1.00  0.00     0.281 C 
BRANCH  17  18
HETATM   18  C11 UNL     1       8.129   8.601  19.272  1.00  0.00     0.244 C 
HETATM   19  O4  UNL     1       8.394   9.741  18.805  1.00  0.00    -0.271 OA
HETATM   20  N2  UNL     1       7.013   7.850  18.800  1.00  0.00    -0.346 N 
HETATM   21  C12 UNL     1       6.176   8.403  17.774  1.00  0.00     0.153 C 
BRANCH  20  22
HETATM   22  C13 UNL     1       6.754   6.549  19.368  1.00  0.00     0.228 C 
BRANCH  22  23
HETATM   23  C14 UNL     1       7.445   5.522  18.557  1.00  0.00     0.235 C 
HETATM   24  O5  UNL     1       7.301   5.530  17.315  1.00  0.00    -0.272 OA
HETATM   25  N3  UNL     1       8.272   4.520  19.137  1.00  0.00    -0.359 N 
ATOM     26  H3  UNL     1       8.403   4.493  20.148  1.00  0.00     0.162 HD
BRANCH  25  27
HETATM   27  C15 UNL     1       8.918   3.549  18.308  1.00  0.00     0.131 C 
BRANCH  27  28
HETATM   28  C16 UNL     1       8.380   2.154  18.515  1.00  0.00    -0.035 C 
HETATM   29  C17 UNL     1       9.557   1.195  18.367  1.00  0.00     0.016 C 
HETATM   30  C18 UNL     1       7.320   1.887  17.474  1.00  0.00     0.016 C 
HETATM   31  C19 UNL     1       7.740   2.010  19.880  1.00  0.00     0.016 C 
ENDBRANCH  27  28
ENDBRANCH  25  27
ENDBRANCH  22  23
ENDBRANCH  20  22
ENDBRANCH  17  18
ENDBRANCH  16  17
ENDBRANCH  14  16
ENDBRANCH  12  14
ENDBRANCH   3   6
TORSDOF 10
ENDMDL
MODEL 3
REMARK VINA RESULT: -8.208669177      1.518      2.031
REMARK  10 active torsions:
REMARK  status: ('A' for Active; 'I' for Inactive)
REMARK    1  A    between atoms: C3_3  and  O1_4 
REMARK    2  A    between atoms: C3_3  and  C4_6 
REMARK    3  A    between atoms: C8_13  and  C9_14 
REMARK    4  A    between atoms: C9_14  and  O3_16 
REMARK    5  A    between atoms: O3_16  and  C10_17 
REMARK    6  A    between atoms: C10_17  and  C11_18 
REMARK       I    between atoms: C11_18  and  N2_20 
REMARK    7  A    between atoms: N2_20  and  C13_22 
REMARK    8  A    between atoms: C13_22  and  C14_23 
REMARK       I    between atoms: C14_23  and  N3_25 
REMARK    9  A    between atoms: N3_25  and  C15_27 
REMARK   10  A    between atoms: C15_27  and  C16_28 
ROOT
HETATM    1  C1  UNL     1       4.948   9.160  24.690  1.00  0.00     0.105 C 
HETATM    2  C2  UNL     1       5.931   8.594  24.201  1.00  0.00    -0.123 C 
HETATM    3  C3  UNL     1       7.021   7.877  23.663  1.00  0.00     0.120 C 
ENDROOT
BRANCH   3   4
HETATM    4  O1  UNL     1       6.743   6.858  22.901  1.00  0.00    -0.353 OA
ATOM      5  H1  UNL     1       6.952   6.937  21.979  1.00  0.00     0.218 HD
ENDBRANCH   3   4
BRANCH   3   6
HETATM    6  C4  UNL     1       8.419   8.132  23.878  1.00  0.00     0.039 A 
HETATM    7  C5  UNL     1       8.965   7.538  25.051  1.00  0.00     0.038 A 
HETATM    8  C6  UNL     1      10.194   7.870  25.536  1.00  0.00     0.027 A 
HETATM    9 BR1  UNL     1      10.878   7.032  27.126  1.00  0.00    -0.050 Br
HETATM   10  C7  UNL     1      10.919   8.815  24.857  1.00  0.00     0.107 A 
HETATM   11  N1  UNL     1      10.433   9.382  23.758  1.00  0.00    -0.359 N 
HETATM   12  C8  UNL     1       9.184   9.054  23.243  1.00  0.00     0.122 A 
ATOM     13  H1  UNL     1      10.996  10.082  23.274  1.00  0.00     0.165 HD
BRANCH  12  14
HETATM   14  C9  UNL     1       8.932   9.553  21.895  1.00  0.00     0.311 C 
HETATM   15  O2  UNL     1       8.213  10.620  21.805  1.00  0.00    -0.258 OA
BRANCH  14  16
HETATM   16  O3  UNL     1       9.355   9.071  20.700  1.00  0.00    -0.307 OA
BRANCH  16  17
HETATM   17  C10 UNL     1       8.871   7.962  19.997  1.00  0.00     0.281 C 
BRANCH  17  18
HETATM   18  C11 UNL     1       7.941   8.407  18.939  1.00  0.00     0.244 C 
HETATM   19  O4  UNL     1       8.104   9.544  18.420  1.00  0.00    -0.271 OA
HETATM   20  N2  UNL     1       6.881   7.550  18.524  1.00  0.00    -0.346 N 
HETATM   21  C12 UNL     1       5.982   7.990  17.495  1.00  0.00     0.153 C 
BRANCH  20  22
HETATM   22  C13 UNL     1       6.739   6.258  19.150  1.00  0.00     0.228 C 
BRANCH  22  23
HETATM   23  C14 UNL     1       7.510   5.259  18.376  1.00  0.00     0.235 C 
HETATM   24  O5  UNL     1       7.386   5.226  17.133  1.00  0.00    -0.272 OA
HETATM   25  N3  UNL     1       8.390   4.328  18.995  1.00  0.00    -0.359 N 
ATOM     26  H3  UNL     1       8.506   4.335  20.008  1.00  0.00     0.162 HD
BRANCH  25  27
HETATM   27  C15 UNL     1       9.113   3.382  18.201  1.00  0.00     0.131 C 
BRANCH  27  28
HETATM   28  C16 UNL     1       8.596   1.972  18.359  1.00  0.00    -0.035 C 
HETATM   29  C17 UNL     1       9.806   1.045  18.305  1.00  0.00     0.016 C 
HETATM   30  C18 UNL     1       7.632   1.683  17.235  1.00  0.00     0.016 C 
HETATM   31  C19 UNL     1       7.851   1.805  19.667  1.00  0.00     0.016 C 
ENDBRANCH  27  28
ENDBRANCH  25  27
ENDBRANCH  22  23
ENDBRANCH  20  22
ENDBRANCH  17  18
ENDBRANCH  16  17
ENDBRANCH  14  16
ENDBRANCH  12  14
ENDBRANCH   3   6
TORSDOF 10
ENDMDL
MODEL 4
REMARK VINA RESULT: -8.054379756      1.155      1.492
REMARK  10 active torsions:
REMARK  status: ('A' for Active; 'I' for Inactive)
REMARK    1  A    between atoms: C3_3  and  O1_4 
REMARK    2  A    between atoms: C3_3  and  C4_6 
REMARK    3  A    between atoms: C8_13  and  C9_14 
REMARK    4  A    between atoms: C9_14  and  O3_16 
REMARK    5  A    between atoms: O3_16  and  C10_17 
REMARK    6  A    between atoms: C10_17  and  C11_18 
REMARK       I    between atoms: C11_18  and  N2_20 
REMARK    7  A    between atoms: N2_20  and  C13_22 
REMARK    8  A    between atoms: C13_22  and  C14_23 
REMARK       I    between atoms: C14_23  and  N3_25 
REMARK    9  A    between atoms: N3_25  and  C15_27 
REMARK   10  A    between atoms: C15_27  and  C16_28 
ROOT
HETATM    1  C1  UNL     1       4.697   9.549  24.641  1.00  0.00     0.105 C 
HETATM    2  C2  UNL     1       5.636   8.761  24.481  1.00  0.00    -0.123 C 
HETATM    3  C3  UNL     1       6.682   7.821  24.365  1.00  0.00     0.120 C 
ENDROOT
BRANCH   3   4
HETATM    4  O1  UNL     1       6.367   6.563  24.483  1.00  0.00    -0.353 OA
ATOM      5  H1  UNL     1       5.485   6.312  24.233  1.00  0.00     0.218 HD
ENDBRANCH   3   4
BRANCH   3   6
HETATM    6  C4  UNL     1       8.076   8.096  24.149  1.00  0.00     0.039 A 
HETATM    7  C5  UNL     1       8.942   7.667  25.194  1.00  0.00     0.038 A 
HETATM    8  C6  UNL     1      10.245   8.056  25.272  1.00  0.00     0.027 A 
HETATM    9 BR1  UNL     1      11.367   7.442  26.709  1.00  0.00    -0.050 Br
HETATM   10  C7  UNL     1      10.725   8.896  24.300  1.00  0.00     0.107 A 
HETATM   11  N1  UNL     1       9.937   9.308  23.312  1.00  0.00    -0.359 N 
HETATM   12  C8  UNL     1       8.607   8.918  23.211  1.00  0.00     0.122 A 
ATOM     13  H1  UNL     1      10.322   9.932  22.603  1.00  0.00     0.165 HD
BRANCH  12  14
HETATM   14  C9  UNL     1       7.978   9.229  21.930  1.00  0.00     0.311 C 
HETATM   15  O2  UNL     1       8.276  10.369  21.408  1.00  0.00    -0.258 OA
BRANCH  14  16
HETATM   16  O3  UNL     1       7.126   8.485  21.182  1.00  0.00    -0.307 OA
BRANCH  16  17
HETATM   17  C10 UNL     1       7.441   7.491  20.249  1.00  0.00     0.281 C 
BRANCH  17  18
HETATM   18  C11 UNL     1       6.556   6.324  20.444  1.00  0.00     0.244 C 
HETATM   19  O4  UNL     1       6.189   6.024  21.612  1.00  0.00    -0.271 OA
HETATM   20  N2  UNL     1       6.134   5.561  19.317  1.00  0.00    -0.346 N 
HETATM   21  C12 UNL     1       5.273   4.429  19.516  1.00  0.00     0.153 C 
BRANCH  20  22
HETATM   22  C13 UNL     1       6.582   5.948  18.002  1.00  0.00     0.228 C 
BRANCH  22  23
HETATM   23  C14 UNL     1       7.473   4.894  17.465  1.00  0.00     0.235 C 
HETATM   24  O5  UNL     1       7.397   4.594  16.254  1.00  0.00    -0.272 OA
HETATM   25  N3  UNL     1       8.415   4.205  18.278  1.00  0.00    -0.359 N 
ATOM     26  H3  UNL     1       8.493   4.432  19.269  1.00  0.00     0.162 HD
BRANCH  25  27
HETATM   27  C15 UNL     1       9.253   3.194  17.710  1.00  0.00     0.131 C 
BRANCH  27  28
HETATM   28  C16 UNL     1       8.802   1.796  18.061  1.00  0.00    -0.035 C 
HETATM   29  C17 UNL     1      10.057   0.935  18.163  1.00  0.00     0.016 C 
HETATM   30  C18 UNL     1       7.882   1.299  16.973  1.00  0.00     0.016 C 
HETATM   31  C19 UNL     1       8.034   1.781  19.366  1.00  0.00     0.016 C 
ENDBRANCH  27  28
ENDBRANCH  25  27
ENDBRANCH  22  23
ENDBRANCH  20  22
ENDBRANCH  17  18
ENDBRANCH  16  17
ENDBRANCH  14  16
ENDBRANCH  12  14
ENDBRANCH   3   6
TORSDOF 10
ENDMDL
MODEL 5
REMARK VINA RESULT: -8.008187189      1.275      1.799
REMARK  10 active torsions:
REMARK  status: ('A' for Active; 'I' for Inactive)
REMARK    1  A    between atoms: C3_3  and  O1_4 
REMARK    2  A    between atoms: C3_3  and  C4_6 
REMARK    3  A    between atoms: C8_13  and  C9_14 
REMARK    4  A    between atoms: C9_14  and  O3_16 
REMARK    5  A    between atoms: O3_16  and  C10_17 
REMARK    6  A    between atoms: C10_17  and  C11_18 
REMARK       I    between atoms: C11_18  and  N2_20 
REMARK    7  A    between atoms: N2_20  and  C13_22 
REMARK    8  A    between atoms: C13_22  and  C14_23 
REMARK       I    between atoms: C14_23  and  N3_25 
REMARK    9  A    between atoms: N3_25  and  C15_27 
REMARK   10  A    between atoms: C15_27  and  C16_28 
ROOT
HETATM    1  C1  UNL     1       4.804   9.551  24.403  1.00  0.00     0.105 C 
HETATM    2  C2  UNL     1       5.779   8.793  24.386  1.00  0.00    -0.123 C 
HETATM    3  C3  UNL     1       6.862   7.890  24.433  1.00  0.00     0.120 C 
ENDROOT
BRANCH   3   4
HETATM    4  O1  UNL     1       6.577   6.628  24.580  1.00  0.00    -0.353 OA
ATOM      5  H1  UNL     1       6.546   6.291  25.467  1.00  0.00     0.218 HD
ENDBRANCH   3   4
BRANCH   3   6
HETATM    6  C4  UNL     1       8.262   8.207  24.357  1.00  0.00     0.039 A 
HETATM    7  C5  UNL     1       9.058   7.671  25.408  1.00  0.00     0.038 A 
HETATM    8  C6  UNL     1      10.343   8.066  25.629  1.00  0.00     0.027 A 
HETATM    9 BR1  UNL     1      11.368   7.304  27.066  1.00  0.00    -0.050 Br
HETATM   10  C7  UNL     1      10.874   9.020  24.800  1.00  0.00     0.107 A 
HETATM   11  N1  UNL     1      10.152   9.534  23.809  1.00  0.00    -0.359 N 
HETATM   12  C8  UNL     1       8.842   9.141  23.562  1.00  0.00     0.122 A 
ATOM     13  H1  UNL     1      10.574  10.242  23.208  1.00  0.00     0.165 HD
BRANCH  12  14
HETATM   14  C9  UNL     1       8.303   9.589  22.283  1.00  0.00     0.311 C 
HETATM   15  O2  UNL     1       8.361  10.856  22.049  1.00  0.00    -0.258 OA
BRANCH  14  16
HETATM   16  O3  UNL     1       7.753   8.868  21.274  1.00  0.00    -0.307 OA
BRANCH  16  17
HETATM   17  C10 UNL     1       8.116   7.591  20.830  1.00  0.00     0.281 C 
BRANCH  17  18
HETATM   18  C11 UNL     1       7.588   7.366  19.469  1.00  0.00     0.244 C 
HETATM   19  O4  UNL     1       7.934   8.146  18.542  1.00  0.00    -0.271 OA
HETATM   20  N2  UNL     1       6.701   6.277  19.226  1.00  0.00    -0.346 N 
HETATM   21  C12 UNL     1       6.194   6.065  17.900  1.00  0.00     0.153 C 
BRANCH  20  22
HETATM   22  C13 UNL     1       6.337   5.413  20.322  1.00  0.00     0.228 C 
BRANCH  22  23
HETATM   23  C14 UNL     1       6.548   4.004  19.918  1.00  0.00     0.235 C 
HETATM   24  O5  UNL     1       5.554   3.287  19.672  1.00  0.00    -0.272 OA
HETATM   25  N3  UNL     1       7.845   3.431  19.798  1.00  0.00    -0.359 N 
ATOM     26  H3  UNL     1       8.670   3.997  19.995  1.00  0.00     0.162 HD
BRANCH  25  27
HETATM   27  C15 UNL     1       7.995   2.064  19.404  1.00  0.00     0.131 C 
BRANCH  27  28
HETATM   28  C16 UNL     1       8.805   1.907  18.139  1.00  0.00    -0.035 C 
HETATM   29  C17 UNL     1       7.836   1.485  17.039  1.00  0.00     0.016 C 
HETATM   30  C18 UNL     1       9.864   0.858  18.371  1.00  0.00     0.016 C 
HETATM   31  C19 UNL     1       9.502   3.200  17.771  1.00  0.00     0.016 C 
ENDBRANCH  27  28
ENDBRANCH  25  27
ENDBRANCH  22  23
ENDBRANCH  20  22
ENDBRANCH  17  18
ENDBRANCH  16  17
ENDBRANCH  14  16
ENDBRANCH  12  14
ENDBRANCH   3   6
TORSDOF 10
ENDMDL
