MODEL 1
REMARK VINA RESULT: -6.468234789      0.000      0.000
REMARK  4 active torsions:
REMARK  status: ('A' for Active; 'I' for Inactive)
REMARK    1  A    between atoms: C2_2  and  C3_3 
REMARK    2  A    between atoms: N1_4  and  C4_6 
REMARK    3  A    between atoms: C4_6  and  C5_7 
REMARK    4  A    between atoms: C5_7  and  C6_8 
ROOT
HETATM    1  C3  UNL     1      21.095  34.045  -5.229  1.00  0.00     0.095 C 
HETATM    2  N1  UNL     1      20.757  35.127  -4.745  1.00  0.00    -0.378 N 
ATOM      3  H1  UNL     1      20.422  35.031  -3.787  1.00  0.00     0.164 HD
ENDROOT
BRANCH   1   4
HETATM    4  C2  UNL     1      21.619  33.705  -6.523  1.00  0.00    -0.023 C 
HETATM    5  C1  UNL     1      20.798  33.363  -7.686  1.00  0.00     0.051 C 
HETATM    6  C9  UNL     1      22.943  33.688  -6.706  1.00  0.00     0.053 C 
HETATM    7  S1  UNL     1      24.004  34.091  -5.339  1.00  0.00    -0.102 SA
HETATM    8  S2  UNL     1      23.719  33.283  -8.246  1.00  0.00    -0.047 SA
HETATM    9  C10 UNL     1      25.727  34.270  -5.882  1.00  0.00     0.202 C 
HETATM   10  N4  UNL     1      25.826  34.785  -7.218  1.00  0.00    -0.362 N 
HETATM   11  C11 UNL     1      25.241  34.197  -8.372  1.00  0.00     0.139 C 
ATOM     12  H4  UNL     1      26.360  35.644  -7.351  1.00  0.00     0.162 HD
HETATM   13  N5  UNL     1      25.796  34.312  -9.520  1.00  0.00    -0.380 N 
ATOM     14  H52 UNL     1      26.668  34.836  -9.591  1.00  0.00     0.158 HD
ATOM     15  H51 UNL     1      25.376  33.890 -10.348  1.00  0.00     0.158 HD
ENDBRANCH   1   4
BRANCH   2  16
HETATM   16  C4  UNL     1      20.720  36.432  -5.180  1.00  0.00     0.064 C 
BRANCH  16  17
HETATM   17  C5  UNL     1      21.767  37.345  -4.546  1.00  0.00     0.099 C 
BRANCH  17  18
HETATM   18  C6  UNL     1      21.776  38.614  -5.396  1.00  0.00     0.288 C 
HETATM   19  N2  UNL     1      20.450  39.109  -5.438  1.00  0.00    -0.374 N 
HETATM   20  C7  UNL     1      20.382  40.144  -4.719  1.00  0.00     0.084 C 
ATOM     21  H2  UNL     1      19.678  38.697  -5.963  1.00  0.00     0.160 HD
HETATM   22  C8  UNL     1      21.684  40.467  -4.099  1.00  0.00     0.279 C 
HETATM   23  N3  UNL     1      22.620  39.607  -4.804  1.00  0.00    -0.050 N 
ATOM     24  H32 UNL     1      23.372  39.233  -4.224  1.00  0.00     0.280 HD
ATOM     25  H31 UNL     1      23.229  40.093  -5.463  1.00  0.00     0.280 HD
ENDBRANCH  17  18
ENDBRANCH  16  17
ENDBRANCH   2  16
TORSDOF 4
ENDMDL
MODEL 2
REMARK VINA RESULT: -6.415210625      1.667      2.492
REMARK  4 active torsions:
REMARK  status: ('A' for Active; 'I' for Inactive)
REMARK    1  A    between atoms: C2_2  and  C3_3 
REMARK    2  A    between atoms: N1_4  and  C4_6 
REMARK    3  A    between atoms: C4_6  and  C5_7 
REMARK    4  A    between atoms: C5_7  and  C6_8 
ROOT
HETATM    1  C3  UNL     1      22.812  34.543  -3.853  1.00  0.00     0.095 C 
HETATM    2  N1  UNL     1      22.215  35.540  -3.439  1.00  0.00    -0.378 N 
ATOM      3  H1  UNL     1      21.487  35.301  -2.767  1.00  0.00     0.164 HD
ENDROOT
BRANCH   1   4
HETATM    4  C2  UNL     1      23.891  34.402  -4.790  1.00  0.00    -0.023 C 
HETATM    5  C1  UNL     1      25.310  34.485  -4.439  1.00  0.00     0.051 C 
HETATM    6  C9  UNL     1      23.610  34.182  -6.079  1.00  0.00     0.053 C 
HETATM    7  S1  UNL     1      21.909  34.070  -6.579  1.00  0.00    -0.102 SA
HETATM    8  S2  UNL     1      24.842  33.991  -7.337  1.00  0.00    -0.047 SA
HETATM    9  C10 UNL     1      21.771  33.501  -8.298  1.00  0.00     0.202 C 
HETATM   10  N4  UNL     1      22.827  32.597  -8.658  1.00  0.00    -0.362 N 
HETATM   11  C11 UNL     1      24.217  32.883  -8.581  1.00  0.00     0.139 C 
ATOM     12  H4  UNL     1      22.558  31.674  -8.998  1.00  0.00     0.162 HD
HETATM   13  N5  UNL     1      25.043  32.352  -9.402  1.00  0.00    -0.380 N 
ATOM     14  H52 UNL     1      24.684  31.717 -10.115  1.00  0.00     0.158 HD
ATOM     15  H51 UNL     1      26.040  32.557  -9.346  1.00  0.00     0.158 HD
ENDBRANCH   1   4
BRANCH   2  16
HETATM   16  C4  UNL     1      22.291  36.895  -3.663  1.00  0.00     0.064 C 
BRANCH  16  17
HETATM   17  C5  UNL     1      21.428  37.400  -4.819  1.00  0.00     0.099 C 
BRANCH  17  18
HETATM   18  C6  UNL     1      22.096  38.687  -5.300  1.00  0.00     0.288 C 
HETATM   19  N2  UNL     1      21.113  39.452  -5.973  1.00  0.00    -0.374 N 
HETATM   20  C7  UNL     1      20.795  40.433  -5.245  1.00  0.00     0.084 C 
ATOM     21  H2  UNL     1      20.725  39.244  -6.894  1.00  0.00     0.160 HD
HETATM   22  C8  UNL     1      21.547  40.437  -3.973  1.00  0.00     0.279 C 
HETATM   23  N3  UNL     1      22.585  39.443  -4.187  1.00  0.00    -0.050 N 
ATOM     24  H32 UNL     1      22.814  38.885  -3.364  1.00  0.00     0.280 HD
ATOM     25  H31 UNL     1      23.521  39.828  -4.316  1.00  0.00     0.280 HD
ENDBRANCH  17  18
ENDBRANCH  16  17
ENDBRANCH   2  16
TORSDOF 4
ENDMDL
MODEL 3
REMARK VINA RESULT: -6.348801794      1.857      2.185
REMARK  4 active torsions:
REMARK  status: ('A' for Active; 'I' for Inactive)
REMARK    1  A    between atoms: C2_2  and  C3_3 
REMARK    2  A    between atoms: N1_4  and  C4_6 
REMARK    3  A    between atoms: C4_6  and  C5_7 
REMARK    4  A    between atoms: C5_7  and  C6_8 
ROOT
HETATM    1  C3  UNL     1      24.096  34.499  -4.361  1.00  0.00     0.095 C 
HETATM    2  N1  UNL     1      23.463  35.524  -4.101  1.00  0.00    -0.378 N 
ATOM      3  H1  UNL     1      24.003  36.178  -3.534  1.00  0.00     0.164 HD
ENDROOT
BRANCH   1   4
HETATM    4  C2  UNL     1      23.745  33.330  -5.116  1.00  0.00    -0.023 C 
HETATM    5  C1  UNL     1      22.727  32.358  -4.713  1.00  0.00     0.051 C 
HETATM    6  C9  UNL     1      24.376  33.084  -6.269  1.00  0.00     0.053 C 
HETATM    7  S1  UNL     1      25.625  34.220  -6.823  1.00  0.00    -0.102 SA
HETATM    8  S2  UNL     1      24.041  31.679  -7.295  1.00  0.00    -0.047 SA
HETATM    9  C10 UNL     1      26.144  33.841  -8.521  1.00  0.00     0.202 C 
HETATM   10  N4  UNL     1      25.073  33.301  -9.310  1.00  0.00    -0.362 N 
HETATM   11  C11 UNL     1      24.324  32.136  -8.992  1.00  0.00     0.139 C 
ATOM     12  H4  UNL     1      24.830  33.793 -10.169  1.00  0.00     0.162 HD
HETATM   13  N5  UNL     1      23.841  31.394  -9.917  1.00  0.00    -0.380 N 
ATOM     14  H52 UNL     1      24.003  31.656 -10.889  1.00  0.00     0.158 HD
ATOM     15  H51 UNL     1      23.303  30.558  -9.688  1.00  0.00     0.158 HD
ENDBRANCH   1   4
BRANCH   2  16
HETATM   16  C4  UNL     1      22.205  36.003  -4.390  1.00  0.00     0.064 C 
BRANCH  16  17
HETATM   17  C5  UNL     1      21.887  37.368  -3.781  1.00  0.00     0.099 C 
BRANCH  17  18
HETATM   18  C6  UNL     1      22.005  38.369  -4.929  1.00  0.00     0.288 C 
HETATM   19  N2  UNL     1      20.692  38.729  -5.317  1.00  0.00    -0.374 N 
HETATM   20  C7  UNL     1      20.464  39.907  -4.924  1.00  0.00     0.084 C 
ATOM     21  H2  UNL     1      20.038  38.136  -5.828  1.00  0.00     0.160 HD
HETATM   22  C8  UNL     1      21.625  40.482  -4.213  1.00  0.00     0.279 C 
HETATM   23  N3  UNL     1      22.699  39.544  -4.499  1.00  0.00    -0.050 N 
ATOM     24  H32 UNL     1      23.348  39.395  -3.726  1.00  0.00     0.280 HD
ATOM     25  H31 UNL     1      23.398  39.888  -5.158  1.00  0.00     0.280 HD
ENDBRANCH  17  18
ENDBRANCH  16  17
ENDBRANCH   2  16
TORSDOF 4
ENDMDL
MODEL 4
REMARK VINA RESULT: -6.330029438      1.315      1.536
REMARK  4 active torsions:
REMARK  status: ('A' for Active; 'I' for Inactive)
REMARK    1  A    between atoms: C2_2  and  C3_3 
REMARK    2  A    between atoms: N1_4  and  C4_6 
REMARK    3  A    between atoms: C4_6  and  C5_7 
REMARK    4  A    between atoms: C5_7  and  C6_8 
ROOT
HETATM    1  C3  UNL     1      20.787  33.915  -5.474  1.00  0.00     0.095 C 
HETATM    2  N1  UNL     1      20.124  34.921  -5.214  1.00  0.00    -0.378 N 
ATOM      3  H1  UNL     1      19.355  34.720  -4.575  1.00  0.00     0.164 HD
ENDROOT
BRANCH   1   4
HETATM    4  C2  UNL     1      21.940  33.727  -6.309  1.00  0.00    -0.023 C 
HETATM    5  C1  UNL     1      21.889  33.516  -7.757  1.00  0.00     0.051 C 
HETATM    6  C9  UNL     1      23.157  33.737  -5.754  1.00  0.00     0.053 C 
HETATM    7  S1  UNL     1      23.297  33.987  -4.000  1.00  0.00    -0.102 SA
HETATM    8  S2  UNL     1      24.658  33.514  -6.667  1.00  0.00    -0.047 SA
HETATM    9  C10 UNL     1      25.029  34.235  -3.514  1.00  0.00     0.202 C 
HETATM   10  N4  UNL     1      25.791  34.899  -4.534  1.00  0.00    -0.362 N 
HETATM   11  C11 UNL     1      25.950  34.443  -5.870  1.00  0.00     0.139 C 
ATOM     12  H4  UNL     1      26.257  35.770  -4.278  1.00  0.00     0.162 HD
HETATM   13  N5  UNL     1      27.022  34.690  -6.524  1.00  0.00    -0.380 N 
ATOM     14  H52 UNL     1      27.762  35.223  -6.067  1.00  0.00     0.158 HD
ATOM     15  H51 UNL     1      27.136  34.362  -7.483  1.00  0.00     0.158 HD
ENDBRANCH   1   4
BRANCH   2  16
HETATM   16  C4  UNL     1      20.166  36.248  -5.575  1.00  0.00     0.064 C 
BRANCH  16  17
HETATM   17  C5  UNL     1      21.260  37.062  -4.886  1.00  0.00     0.099 C 
BRANCH  17  18
HETATM   18  C6  UNL     1      21.220  38.442  -5.540  1.00  0.00     0.288 C 
HETATM   19  N2  UNL     1      20.142  39.156  -4.963  1.00  0.00    -0.374 N 
HETATM   20  C7  UNL     1      20.610  40.042  -4.194  1.00  0.00     0.084 C 
ATOM     21  H2  UNL     1      19.152  38.984  -5.139  1.00  0.00     0.160 HD
HETATM   22  C8  UNL     1      22.087  40.020  -4.168  1.00  0.00     0.279 C 
HETATM   23  N3  UNL     1      22.435  39.153  -5.281  1.00  0.00    -0.050 N 
ATOM     24  H32 UNL     1      23.248  38.558  -5.116  1.00  0.00     0.280 HD
ATOM     25  H31 UNL     1      22.823  39.638  -6.091  1.00  0.00     0.280 HD
ENDBRANCH  17  18
ENDBRANCH  16  17
ENDBRANCH   2  16
TORSDOF 4
ENDMDL
MODEL 5
REMARK VINA RESULT: -6.276593436      2.135      2.491
REMARK  4 active torsions:
REMARK  status: ('A' for Active; 'I' for Inactive)
REMARK    1  A    between atoms: C2_2  and  C3_3 
REMARK    2  A    between atoms: N1_4  and  C4_6 
REMARK    3  A    between atoms: C4_6  and  C5_7 
REMARK    4  A    between atoms: C5_7  and  C6_8 
ROOT
HETATM    1  C3  UNL     1      18.727  35.293  -4.610  1.00  0.00     0.095 C 
HETATM    2  N1  UNL     1      18.903  36.444  -4.204  1.00  0.00    -0.378 N 
ATOM      3  H1  UNL     1      18.632  36.553  -3.227  1.00  0.00     0.164 HD
ENDROOT
BRANCH   1   4
HETATM    4  C2  UNL     1      18.963  34.690  -5.892  1.00  0.00    -0.023 C 
HETATM    5  C1  UNL     1      18.065  34.810  -7.042  1.00  0.00     0.051 C 
HETATM    6  C9  UNL     1      20.070  33.963  -6.076  1.00  0.00     0.053 C 
HETATM    7  S1  UNL     1      21.207  33.773  -4.724  1.00  0.00    -0.102 SA
HETATM    8  S2  UNL     1      20.481  33.164  -7.603  1.00  0.00    -0.047 SA
HETATM    9  C10 UNL     1      22.749  32.989  -5.274  1.00  0.00     0.202 C 
HETATM   10  N4  UNL     1      23.083  33.334  -6.627  1.00  0.00    -0.362 N 
HETATM   11  C11 UNL     1      22.253  33.119  -7.760  1.00  0.00     0.139 C 
ATOM     12  H4  UNL     1      23.991  33.770  -6.788  1.00  0.00     0.162 HD
HETATM   13  N5  UNL     1      22.762  32.888  -8.911  1.00  0.00    -0.380 N 
ATOM     14  H52 UNL     1      23.778  32.862  -9.001  1.00  0.00     0.158 HD
ATOM     15  H51 UNL     1      22.166  32.733  -9.725  1.00  0.00     0.158 HD
ENDBRANCH   1   4
BRANCH   2  16
HETATM   16  C4  UNL     1      19.376  37.617  -4.746  1.00  0.00     0.064 C 
BRANCH  16  17
HETATM   17  C5  UNL     1      20.831  37.565  -5.207  1.00  0.00     0.099 C 
BRANCH  17  18
HETATM   18  C6  UNL     1      21.162  38.977  -5.687  1.00  0.00     0.288 C 
HETATM   19  N2  UNL     1      20.443  39.884  -4.871  1.00  0.00    -0.374 N 
HETATM   20  C7  UNL     1      21.255  40.456  -4.091  1.00  0.00     0.084 C 
ATOM     21  H2  UNL     1      19.437  40.048  -4.907  1.00  0.00     0.160 HD
HETATM   22  C8  UNL     1      22.640  39.986  -4.301  1.00  0.00     0.279 C 
HETATM   23  N3  UNL     1      22.562  39.239  -5.546  1.00  0.00    -0.050 N 
ATOM     24  H32 UNL     1      23.154  38.408  -5.579  1.00  0.00     0.280 HD
ATOM     25  H31 UNL     1      22.988  39.704  -6.347  1.00  0.00     0.280 HD
ENDBRANCH  17  18
ENDBRANCH  16  17
ENDBRANCH   2  16
TORSDOF 4
ENDMDL
