MODEL 1
REMARK VINA RESULT: -6.697441369      0.000      0.000
REMARK  7 active torsions:
REMARK  status: ('A' for Active; 'I' for Inactive)
REMARK    1  A    between atoms: C2_2  and  C3_3 
REMARK    2  A    between atoms: C2_2  and  C4_6 
REMARK    3  A    between atoms: C3_3  and  O1_4 
REMARK    4  A    between atoms: C4_6  and  C5_7 
REMARK       I    between atoms: C5_7  and  N1_9 
REMARK    5  A    between atoms: N2_11  and  C6_13 
REMARK    6  A    between atoms: C6_13  and  C7_17 
REMARK    7  A    between atoms: N4_19  and  O3_21 
ROOT
HETATM    1  C6  UNL     1      15.484  32.518  -4.895  1.00  0.00     0.099 C 
HETATM    2  N3  UNL     1      16.485  31.850  -4.455  1.00  0.00    -0.387 N 
ATOM      3  H31 UNL     1      16.455  31.497  -3.499  1.00  0.00     0.157 HD
ATOM      4  H32 UNL     1      17.320  31.655  -5.007  1.00  0.00     0.157 HD
ENDROOT
BRANCH   1   5
HETATM    5  N2  UNL     1      15.525  33.007  -6.219  1.00  0.00    -0.286 N 
HETATM    6  N1  UNL     1      15.243  32.255  -7.175  1.00  0.00    -0.269 N 
HETATM    7  C5  UNL     1      14.881  30.909  -6.948  1.00  0.00     0.236 C 
ATOM      8  H1  UNL     1      15.275  32.616  -8.129  1.00  0.00     0.190 HD
HETATM    9  O2  UNL     1      15.645  30.056  -6.438  1.00  0.00    -0.272 OA
ATOM     10  H2  UNL     1      15.786  33.978  -6.394  1.00  0.00     0.188 HD
BRANCH   7  11
HETATM   11  C4  UNL     1      13.513  30.502  -7.343  1.00  0.00     0.110 C 
BRANCH  11  12
HETATM   12  C2  UNL     1      12.632  31.711  -7.398  1.00  0.00     0.014 C 
HETATM   13  C1  UNL     1      11.558  31.614  -6.347  1.00  0.00     0.012 C 
BRANCH  12  14
HETATM   14  C3  UNL     1      12.049  31.791  -8.794  1.00  0.00     0.168 C 
BRANCH  14  15
HETATM   15  O1  UNL     1      13.007  32.286  -9.675  1.00  0.00    -0.400 OA
ATOM     16  H1  UNL     1      13.186  33.197  -9.474  1.00  0.00     0.209 HD
ENDBRANCH  14  15
ENDBRANCH  12  14
ENDBRANCH  11  12
ENDBRANCH   7  11
ENDBRANCH   1   5
BRANCH   1  17
HETATM   17  C7  UNL     1      14.272  32.802  -4.095  1.00  0.00     0.105 C 
HETATM   18  C8  UNL     1      13.942  31.539  -3.347  1.00  0.00     0.021 C 
HETATM   19  N4  UNL     1      14.199  30.393  -3.849  1.00  0.00    -0.277 N 
HETATM   20  C9  UNL     1      13.314  31.702  -2.014  1.00  0.00     0.055 C 
ATOM     21  H4  UNL     1      14.633  30.364  -4.771  1.00  0.00     0.193 HD
HETATM   22  C10 UNL     1      14.249  32.476  -1.128  1.00  0.00     0.006 C 
HETATM   23  C11 UNL     1      15.174  33.373  -1.910  1.00  0.00     0.006 C 
HETATM   24  C12 UNL     1      14.444  33.940  -3.120  1.00  0.00    -0.002 C 
HETATM   25  C13 UNL     1      15.123  35.142  -3.671  1.00  0.00     0.011 C 
BRANCH  19  26
HETATM   26  O3  UNL     1      13.930  29.206  -3.234  1.00  0.00    -0.290 OA
ATOM     27  H3  UNL     1      13.514  28.465  -3.658  1.00  0.00     0.244 HD
ENDBRANCH  19  26
ENDBRANCH   1  17
TORSDOF 7
ENDMDL
MODEL 2
REMARK VINA RESULT: -6.331292700      1.626      1.977
REMARK  7 active torsions:
REMARK  status: ('A' for Active; 'I' for Inactive)
REMARK    1  A    between atoms: C2_2  and  C3_3 
REMARK    2  A    between atoms: C2_2  and  C4_6 
REMARK    3  A    between atoms: C3_3  and  O1_4 
REMARK    4  A    between atoms: C4_6  and  C5_7 
REMARK       I    between atoms: C5_7  and  N1_9 
REMARK    5  A    between atoms: N2_11  and  C6_13 
REMARK    6  A    between atoms: C6_13  and  C7_17 
REMARK    7  A    between atoms: N4_19  and  O3_21 
ROOT
HETATM    1  C6  UNL     1      16.356  33.713  -4.570  1.00  0.00     0.099 C 
HETATM    2  N3  UNL     1      17.320  33.248  -3.865  1.00  0.00    -0.387 N 
ATOM      3  H31 UNL     1      17.199  33.180  -2.855  1.00  0.00     0.157 HD
ATOM      4  H32 UNL     1      18.212  32.946  -4.257  1.00  0.00     0.157 HD
ENDROOT
BRANCH   1   5
HETATM    5  N2  UNL     1      16.524  33.808  -5.969  1.00  0.00    -0.286 N 
HETATM    6  N1  UNL     1      16.094  32.904  -6.715  1.00  0.00    -0.269 N 
HETATM    7  C5  UNL     1      15.436  31.778  -6.174  1.00  0.00     0.236 C 
ATOM      8  H1  UNL     1      16.218  32.980  -7.725  1.00  0.00     0.190 HD
HETATM    9  O2  UNL     1      15.983  30.951  -5.406  1.00  0.00    -0.272 OA
ATOM     10  H2  UNL     1      16.998  34.617  -6.370  1.00  0.00     0.188 HD
BRANCH   7  11
HETATM   11  C4  UNL     1      14.017  31.579  -6.548  1.00  0.00     0.110 C 
BRANCH  11  12
HETATM   12  C2  UNL     1      13.897  31.554  -8.040  1.00  0.00     0.014 C 
HETATM   13  C1  UNL     1      12.463  31.776  -8.445  1.00  0.00     0.012 C 
BRANCH  12  14
HETATM   14  C3  UNL     1      14.417  30.214  -8.521  1.00  0.00     0.168 C 
BRANCH  14  15
HETATM   15  O1  UNL     1      14.775  30.304  -9.863  1.00  0.00    -0.400 OA
ATOM     16  H1  UNL     1      15.302  31.083 -10.002  1.00  0.00     0.209 HD
ENDBRANCH  14  15
ENDBRANCH  12  14
ENDBRANCH  11  12
ENDBRANCH   7  11
ENDBRANCH   1   5
BRANCH   1  17
HETATM   17  C7  UNL     1      15.063  34.152  -4.002  1.00  0.00     0.105 C 
HETATM   18  C8  UNL     1      14.777  33.252  -2.830  1.00  0.00     0.021 C 
HETATM   19  N4  UNL     1      15.169  32.036  -2.827  1.00  0.00    -0.277 N 
HETATM   20  C9  UNL     1      14.029  33.850  -1.700  1.00  0.00     0.055 C 
ATOM     21  H4  UNL     1      15.680  31.698  -3.642  1.00  0.00     0.193 HD
HETATM   22  C10 UNL     1      14.819  35.006  -1.152  1.00  0.00     0.006 C 
HETATM   23  C11 UNL     1      15.729  35.622  -2.183  1.00  0.00     0.006 C 
HETATM   24  C12 UNL     1      15.058  35.591  -3.550  1.00  0.00    -0.002 C 
HETATM   25  C13 UNL     1      15.679  36.551  -4.500  1.00  0.00     0.011 C 
BRANCH  19  26
HETATM   26  O3  UNL     1      14.949  31.160  -1.805  1.00  0.00    -0.290 OA
ATOM     27  H3  UNL     1      14.302  30.465  -1.826  1.00  0.00     0.244 HD
ENDBRANCH  19  26
ENDBRANCH   1  17
TORSDOF 7
ENDMDL
MODEL 3
REMARK VINA RESULT: -6.299397621      7.892     10.073
REMARK  7 active torsions:
REMARK  status: ('A' for Active; 'I' for Inactive)
REMARK    1  A    between atoms: C2_2  and  C3_3 
REMARK    2  A    between atoms: C2_2  and  C4_6 
REMARK    3  A    between atoms: C3_3  and  O1_4 
REMARK    4  A    between atoms: C4_6  and  C5_7 
REMARK       I    between atoms: C5_7  and  N1_9 
REMARK    5  A    between atoms: N2_11  and  C6_13 
REMARK    6  A    between atoms: C6_13  and  C7_17 
REMARK    7  A    between atoms: N4_19  and  O3_21 
ROOT
HETATM    1  C6  UNL     1      21.260  34.425  -5.022  1.00  0.00     0.099 C 
HETATM    2  N3  UNL     1      21.589  33.753  -3.982  1.00  0.00    -0.387 N 
ATOM      3  H31 UNL     1      22.505  33.304  -3.960  1.00  0.00     0.157 HD
ATOM      4  H32 UNL     1      20.982  33.632  -3.171  1.00  0.00     0.157 HD
ENDROOT
BRANCH   1   5
HETATM    5  N2  UNL     1      19.992  35.046  -5.053  1.00  0.00    -0.286 N 
HETATM    6  N1  UNL     1      19.875  36.251  -4.746  1.00  0.00    -0.269 N 
HETATM    7  C5  UNL     1      21.004  37.007  -4.363  1.00  0.00     0.236 C 
ATOM      8  H1  UNL     1      18.956  36.692  -4.771  1.00  0.00     0.190 HD
HETATM    9  O2  UNL     1      21.697  36.764  -3.347  1.00  0.00    -0.272 OA
ATOM     10  H2  UNL     1      19.169  34.508  -5.328  1.00  0.00     0.188 HD
BRANCH   7  11
HETATM   11  C4  UNL     1      21.375  38.151  -5.227  1.00  0.00     0.110 C 
BRANCH  11  12
HETATM   12  C2  UNL     1      20.714  39.393  -4.715  1.00  0.00     0.014 C 
HETATM   13  C1  UNL     1      20.097  40.156  -5.858  1.00  0.00     0.012 C 
BRANCH  12  14
HETATM   14  C3  UNL     1      21.768  40.211  -3.996  1.00  0.00     0.168 C 
BRANCH  14  15
HETATM   15  O1  UNL     1      23.032  39.871  -4.473  1.00  0.00    -0.400 OA
ATOM     16  H1  UNL     1      23.128  38.926  -4.478  1.00  0.00     0.209 HD
ENDBRANCH  14  15
ENDBRANCH  12  14
ENDBRANCH  11  12
ENDBRANCH   7  11
ENDBRANCH   1   5
BRANCH   1  17
HETATM   17  C7  UNL     1      22.140  34.600  -6.198  1.00  0.00     0.105 C 
HETATM   18  C8  UNL     1      23.552  34.625  -5.682  1.00  0.00     0.021 C 
HETATM   19  N4  UNL     1      23.820  35.103  -4.528  1.00  0.00    -0.277 N 
HETATM   20  C9  UNL     1      24.597  34.071  -6.575  1.00  0.00     0.055 C 
ATOM     21  H4  UNL     1      23.046  35.466  -3.971  1.00  0.00     0.193 HD
HETATM   22  C10 UNL     1      24.282  32.627  -6.851  1.00  0.00     0.006 C 
HETATM   23  C11 UNL     1      22.811  32.324  -6.728  1.00  0.00     0.006 C 
HETATM   24  C12 UNL     1      21.995  33.508  -7.229  1.00  0.00    -0.002 C 
HETATM   25  C13 UNL     1      20.595  33.127  -7.549  1.00  0.00     0.011 C 
BRANCH  19  26
HETATM   26  O3  UNL     1      25.072  35.162  -3.991  1.00  0.00    -0.290 OA
ATOM     27  H3  UNL     1      25.870  34.970  -4.470  1.00  0.00     0.244 HD
ENDBRANCH  19  26
ENDBRANCH   1  17
TORSDOF 7
ENDMDL
MODEL 4
REMARK VINA RESULT: -6.235716219      2.804      5.759
REMARK  7 active torsions:
REMARK  status: ('A' for Active; 'I' for Inactive)
REMARK    1  A    between atoms: C2_2  and  C3_3 
REMARK    2  A    between atoms: C2_2  and  C4_6 
REMARK    3  A    between atoms: C3_3  and  O1_4 
REMARK    4  A    between atoms: C4_6  and  C5_7 
REMARK       I    between atoms: C5_7  and  N1_9 
REMARK    5  A    between atoms: N2_11  and  C6_13 
REMARK    6  A    between atoms: C6_13  and  C7_17 
REMARK    7  A    between atoms: N4_19  and  O3_21 
ROOT
HETATM    1  C6  UNL     1      13.643  31.285  -2.167  1.00  0.00     0.099 C 
HETATM    2  N3  UNL     1      12.494  31.273  -2.734  1.00  0.00    -0.387 N 
ATOM      3  H31 UNL     1      12.426  31.567  -3.708  1.00  0.00     0.157 HD
ATOM      4  H32 UNL     1      11.634  30.992  -2.263  1.00  0.00     0.157 HD
ENDROOT
BRANCH   1   5
HETATM    5  N2  UNL     1      13.736  30.878  -0.817  1.00  0.00    -0.286 N 
HETATM    6  N1  UNL     1      13.900  29.672  -0.535  1.00  0.00    -0.269 N 
HETATM    7  C5  UNL     1      13.995  28.702  -1.557  1.00  0.00     0.236 C 
ATOM      8  H1  UNL     1      13.967  29.387   0.441  1.00  0.00     0.190 HD
HETATM    9  O2  UNL     1      13.067  28.439  -2.359  1.00  0.00    -0.272 OA
ATOM     10  H2  UNL     1      13.668  31.571  -0.071  1.00  0.00     0.188 HD
BRANCH   7  11
HETATM   11  C4  UNL     1      15.272  27.963  -1.670  1.00  0.00     0.110 C 
BRANCH  11  12
HETATM   12  C2  UNL     1      16.381  28.801  -1.115  1.00  0.00     0.014 C 
HETATM   13  C1  UNL     1      17.417  29.056  -2.179  1.00  0.00     0.012 C 
BRANCH  12  14
HETATM   14  C3  UNL     1      16.965  28.062   0.073  1.00  0.00     0.168 C 
BRANCH  14  15
HETATM   15  O1  UNL     1      16.136  28.226   1.180  1.00  0.00    -0.400 OA
ATOM     16  H1  UNL     1      16.617  28.654   1.879  1.00  0.00     0.209 HD
ENDBRANCH  14  15
ENDBRANCH  12  14
ENDBRANCH  11  12
ENDBRANCH   7  11
ENDBRANCH   1   5
BRANCH   1  17
HETATM   17  C7  UNL     1      14.889  31.693  -2.849  1.00  0.00     0.105 C 
HETATM   18  C8  UNL     1      14.773  31.232  -4.276  1.00  0.00     0.021 C 
HETATM   19  N4  UNL     1      14.127  30.170  -4.571  1.00  0.00    -0.277 N 
HETATM   20  C9  UNL     1      15.440  32.069  -5.301  1.00  0.00     0.055 C 
ATOM     21  H4  UNL     1      13.695  29.648  -3.809  1.00  0.00     0.193 HD
HETATM   22  C10 UNL     1      14.845  33.449  -5.262  1.00  0.00     0.006 C 
HETATM   23  C11 UNL     1      14.276  33.793  -3.910  1.00  0.00     0.006 C 
HETATM   24  C12 UNL     1      15.139  33.181  -2.814  1.00  0.00    -0.002 C 
HETATM   25  C13 UNL     1      14.910  33.826  -1.495  1.00  0.00     0.011 C 
BRANCH  19  26
HETATM   26  O3  UNL     1      13.977  29.688  -5.838  1.00  0.00    -0.290 OA
ATOM     27  H3  UNL     1      13.648  28.822  -6.046  1.00  0.00     0.244 HD
ENDBRANCH  19  26
ENDBRANCH   1  17
TORSDOF 7
ENDMDL
MODEL 5
REMARK VINA RESULT: -6.235306607      2.135      2.698
REMARK  7 active torsions:
REMARK  status: ('A' for Active; 'I' for Inactive)
REMARK    1  A    between atoms: C2_2  and  C3_3 
REMARK    2  A    between atoms: C2_2  and  C4_6 
REMARK    3  A    between atoms: C3_3  and  O1_4 
REMARK    4  A    between atoms: C4_6  and  C5_7 
REMARK       I    between atoms: C5_7  and  N1_9 
REMARK    5  A    between atoms: N2_11  and  C6_13 
REMARK    6  A    between atoms: C6_13  and  C7_17 
REMARK    7  A    between atoms: N4_19  and  O3_21 
ROOT
HETATM    1  C6  UNL     1      16.010  30.063  -3.899  1.00  0.00     0.099 C 
HETATM    2  N3  UNL     1      15.559  28.897  -3.616  1.00  0.00    -0.387 N 
ATOM      3  H31 UNL     1      15.051  28.769  -2.741  1.00  0.00     0.157 HD
ATOM      4  H32 UNL     1      15.685  28.082  -4.215  1.00  0.00     0.157 HD
ENDROOT
BRANCH   1   5
HETATM    5  N2  UNL     1      16.714  30.240  -5.110  1.00  0.00    -0.286 N 
HETATM    6  N1  UNL     1      16.092  30.396  -6.181  1.00  0.00    -0.269 N 
HETATM    7  C5  UNL     1      14.680  30.396  -6.198  1.00  0.00     0.236 C 
ATOM      8  H1  UNL     1      16.607  30.524  -7.051  1.00  0.00     0.190 HD
HETATM    9  O2  UNL     1      13.976  29.409  -5.875  1.00  0.00    -0.272 OA
ATOM     10  H2  UNL     1      17.735  30.242  -5.109  1.00  0.00     0.188 HD
BRANCH   7  11
HETATM   11  C4  UNL     1      14.009  31.644  -6.624  1.00  0.00     0.110 C 
BRANCH  11  12
HETATM   12  C2  UNL     1      12.845  31.307  -7.504  1.00  0.00     0.014 C 
HETATM   13  C1  UNL     1      13.013  31.957  -8.853  1.00  0.00     0.012 C 
BRANCH  12  14
HETATM   14  C3  UNL     1      11.587  31.779  -6.803  1.00  0.00     0.168 C 
BRANCH  14  15
HETATM   15  O1  UNL     1      11.618  31.384  -5.468  1.00  0.00    -0.400 OA
ATOM     16  H1  UNL     1      11.958  30.499  -5.405  1.00  0.00     0.209 HD
ENDBRANCH  14  15
ENDBRANCH  12  14
ENDBRANCH  11  12
ENDBRANCH   7  11
ENDBRANCH   1   5
BRANCH   1  17
HETATM   17  C7  UNL     1      15.827  31.245  -3.030  1.00  0.00     0.105 C 
HETATM   18  C8  UNL     1      14.430  31.167  -2.480  1.00  0.00     0.021 C 
HETATM   19  N4  UNL     1      13.484  30.645  -3.163  1.00  0.00    -0.277 N 
HETATM   20  C9  UNL     1      14.218  31.719  -1.121  1.00  0.00     0.055 C 
ATOM     21  H4  UNL     1      13.709  30.286  -4.091  1.00  0.00     0.193 HD
HETATM   22  C10 UNL     1      15.088  30.968  -0.151  1.00  0.00     0.006 C 
HETATM   23  C11 UNL     1      16.309  30.379  -0.809  1.00  0.00     0.006 C 
HETATM   24  C12 UNL     1      16.817  31.320  -1.894  1.00  0.00    -0.002 C 
HETATM   25  C13 UNL     1      18.227  31.033  -2.268  1.00  0.00     0.011 C 
BRANCH  19  26
HETATM   26  O3  UNL     1      12.195  30.538  -2.734  1.00  0.00    -0.290 OA
ATOM     27  H3  UNL     1      11.742  31.200  -2.225  1.00  0.00     0.244 HD
ENDBRANCH  19  26
ENDBRANCH   1  17
TORSDOF 7
ENDMDL
