MODEL 1
REMARK VINA RESULT: -4.722778896      0.000      0.000
REMARK  1 active torsions:
REMARK  status: ('A' for Active; 'I' for Inactive)
REMARK    1  A    between atoms: C4_8  and  O3_9 
ROOT
HETATM    1  O1  UNL     1      35.735  24.284  22.671  1.00  0.00    -0.217 OA
HETATM    2  S1  UNL     1      37.018  23.705  22.087  1.00  0.00     0.195 S 
HETATM    3  O2  UNL     1      37.447  24.587  20.951  1.00  0.00    -0.217 OA
HETATM    4  C1  UNL     1      36.667  22.062  21.478  1.00  0.00     0.177 C 
HETATM    5  C2  UNL     1      38.092  21.668  21.748  1.00  0.00     0.131 C 
HETATM    6  S2  UNL     1      38.183  20.162  22.795  1.00  0.00    -0.149 SA
HETATM    7  C3  UNL     1      37.457  20.738  24.333  1.00  0.00     0.117 C 
HETATM    8  C4  UNL     1      38.294  21.935  24.777  1.00  0.00     0.195 C 
HETATM    9  S3  UNL     1      38.362  23.045  23.183  1.00  0.00    -0.058 SA
ENDROOT
BRANCH   8  10
HETATM   10  O3  UNL     1      37.735  22.533  25.872  1.00  0.00    -0.384 OA
ATOM     11  H3  UNL     1      38.249  22.352  26.651  1.00  0.00     0.211 HD
ENDBRANCH   8  10
TORSDOF 1
ENDMDL
MODEL 2
REMARK VINA RESULT: -3.935526813      1.194      1.194
REMARK  1 active torsions:
REMARK  status: ('A' for Active; 'I' for Inactive)
REMARK    1  A    between atoms: C4_8  and  O3_9 
ROOT
HETATM    1  O1  UNL     1      35.812  23.612  21.041  1.00  0.00    -0.217 OA
HETATM    2  S1  UNL     1      37.152  22.917  20.839  1.00  0.00     0.195 S 
HETATM    3  O2  UNL     1      37.732  23.402  19.541  1.00  0.00    -0.217 OA
HETATM    4  C1  UNL     1      36.865  21.156  20.751  1.00  0.00     0.177 C 
HETATM    5  C2  UNL     1      38.240  20.913  21.308  1.00  0.00     0.131 C 
HETATM    6  S2  UNL     1      38.182  19.825  22.786  1.00  0.00    -0.149 SA
HETATM    7  C3  UNL     1      37.272  20.841  23.956  1.00  0.00     0.117 C 
HETATM    8  C4  UNL     1      38.058  22.142  24.091  1.00  0.00     0.195 C 
HETATM    9  S3  UNL     1      38.339  22.685  22.246  1.00  0.00    -0.058 SA
ENDROOT
BRANCH   8  10
HETATM   10  O3  UNL     1      37.370  23.041  24.857  1.00  0.00    -0.384 OA
ATOM     11  H3  UNL     1      37.047  22.627  25.650  1.00  0.00     0.211 HD
ENDBRANCH   8  10
TORSDOF 1
ENDMDL
MODEL 3
REMARK VINA RESULT: -3.782561241      2.250      2.806
REMARK  1 active torsions:
REMARK  status: ('A' for Active; 'I' for Inactive)
REMARK    1  A    between atoms: C4_8  and  O3_9 
ROOT
HETATM    1  O1  UNL     1      38.999  22.427  20.128  1.00  0.00    -0.217 OA
HETATM    2  S1  UNL     1      37.841  22.984  20.948  1.00  0.00     0.195 S 
HETATM    3  O2  UNL     1      37.029  23.876  20.054  1.00  0.00    -0.217 OA
HETATM    4  C1  UNL     1      38.517  23.937  22.300  1.00  0.00     0.177 C 
HETATM    5  C2  UNL     1      37.303  23.610  23.124  1.00  0.00     0.131 C 
HETATM    6  S2  UNL     1      37.769  22.877  24.742  1.00  0.00    -0.149 SA
HETATM    7  C3  UNL     1      38.540  21.335  24.240  1.00  0.00     0.117 C 
HETATM    8  C4  UNL     1      37.494  20.583  23.421  1.00  0.00     0.195 C 
HETATM    9  S3  UNL     1      36.898  21.912  22.134  1.00  0.00    -0.058 SA
ENDROOT
BRANCH   8  10
HETATM   10  O3  UNL     1      38.034  19.453  22.874  1.00  0.00    -0.384 OA
ATOM     11  H3  UNL     1      37.354  18.907  22.494  1.00  0.00     0.211 HD
ENDBRANCH   8  10
TORSDOF 1
ENDMDL
MODEL 4
REMARK VINA RESULT: -3.672710273      2.351      3.849
REMARK  1 active torsions:
REMARK  status: ('A' for Active; 'I' for Inactive)
REMARK    1  A    between atoms: C4_8  and  O3_9 
ROOT
HETATM    1  O1  UNL     1      38.688  21.409  23.994  1.00  0.00    -0.217 OA
HETATM    2  S1  UNL     1      38.122  22.713  23.444  1.00  0.00     0.195 S 
HETATM    3  O2  UNL     1      38.326  23.778  24.482  1.00  0.00    -0.217 OA
HETATM    4  C1  UNL     1      36.375  22.486  23.146  1.00  0.00     0.177 C 
HETATM    5  C2  UNL     1      36.440  23.507  22.045  1.00  0.00     0.131 C 
HETATM    6  S2  UNL     1      35.763  22.841  20.473  1.00  0.00    -0.149 SA
HETATM    7  C3  UNL     1      36.930  21.529  20.095  1.00  0.00     0.117 C 
HETATM    8  C4  UNL     1      38.304  22.189  20.025  1.00  0.00     0.195 C 
HETATM    9  S3  UNL     1      38.391  23.210  21.676  1.00  0.00    -0.058 SA
ENDROOT
BRANCH   8  10
HETATM   10  O3  UNL     1      39.283  21.246  19.879  1.00  0.00    -0.384 OA
ATOM     11  H3  UNL     1      38.958  20.499  19.389  1.00  0.00     0.211 HD
ENDBRANCH   8  10
TORSDOF 1
ENDMDL
MODEL 5
REMARK VINA RESULT: -3.602578804      2.929      3.646
REMARK  1 active torsions:
REMARK  status: ('A' for Active; 'I' for Inactive)
REMARK    1  A    between atoms: C4_8  and  O3_9 
ROOT
HETATM    1  O1  UNL     1      37.724  24.907  20.783  1.00  0.00    -0.217 OA
HETATM    2  S1  UNL     1      37.399  23.493  21.248  1.00  0.00     0.195 S 
HETATM    3  O2  UNL     1      38.691  22.737  21.363  1.00  0.00    -0.217 OA
HETATM    4  C1  UNL     1      36.354  22.723  20.020  1.00  0.00     0.177 C 
HETATM    5  C2  UNL     1      35.731  21.877  21.095  1.00  0.00     0.131 C 
HETATM    6  S2  UNL     1      33.901  22.027  21.089  1.00  0.00    -0.149 SA
HETATM    7  C3  UNL     1      33.671  23.754  21.527  1.00  0.00     0.117 C 
HETATM    8  C4  UNL     1      34.372  23.948  22.869  1.00  0.00     0.195 C 
HETATM    9  S3  UNL     1      36.131  23.180  22.568  1.00  0.00    -0.058 SA
ENDROOT
BRANCH   8  10
HETATM   10  O3  UNL     1      34.373  25.269  23.223  1.00  0.00    -0.384 OA
ATOM     11  H3  UNL     1      33.575  25.694  22.930  1.00  0.00     0.211 HD
ENDBRANCH   8  10
TORSDOF 1
ENDMDL
