MODEL 1
REMARK VINA RESULT: -4.794750111      0.000      0.000
REMARK  0 active torsions:
REMARK  status: ('A' for Active; 'I' for Inactive)
ROOT
HETATM    1  O1  UNL     1      33.268  23.924  24.071  1.00  0.00    -0.199 OA
HETATM    2  S1  UNL     1      33.761  24.056  22.680  1.00  0.00     0.271 S 
HETATM    3  O2  UNL     1      32.909  24.916  21.813  1.00  0.00    -0.199 OA
HETATM    4  C1  UNL     1      33.958  22.451  21.888  1.00  0.00     0.214 C 
HETATM    5  C2  UNL     1      35.354  22.668  21.284  1.00  0.00     0.261 C 
HETATM    6  F1  UNL     1      36.004  21.471  21.116  1.00  0.00    -0.242 F 
HETATM    7  C3  UNL     1      36.044  23.409  22.403  1.00  0.00     0.322 C 
HETATM    8  N1  UNL     1      36.177  22.527  23.513  1.00  0.00    -0.028 N 
ATOM      9  H11 UNL     1      36.131  21.546  23.236  1.00  0.00     0.282 HD
ATOM     10  H12 UNL     1      35.358  22.543  24.120  1.00  0.00     0.282 HD
HETATM   11  C4  UNL     1      37.388  22.836  24.222  1.00  0.00     0.247 C 
HETATM   12  C5  UNL     1      38.530  22.713  23.235  1.00  0.00     0.106 C 
HETATM   13  S2  UNL     1      37.775  23.675  21.857  1.00  0.00    -0.096 SA
HETATM   14  O3  UNL     1      35.383  24.571  22.632  1.00  0.00    -0.221 OA
ENDROOT
TORSDOF 0
ENDMDL
MODEL 2
REMARK VINA RESULT: -4.282190624      3.400      4.039
REMARK  0 active torsions:
REMARK  status: ('A' for Active; 'I' for Inactive)
ROOT
HETATM    1  O1  UNL     1      38.584  21.271  23.939  1.00  0.00    -0.199 OA
HETATM    2  S1  UNL     1      38.272  22.636  23.457  1.00  0.00     0.271 S 
HETATM    3  O2  UNL     1      38.857  23.723  24.290  1.00  0.00    -0.199 OA
HETATM    4  C1  UNL     1      36.497  22.904  23.320  1.00  0.00     0.214 C 
HETATM    5  C2  UNL     1      36.474  23.546  21.925  1.00  0.00     0.261 C 
HETATM    6  F1  UNL     1      35.260  23.344  21.314  1.00  0.00    -0.242 F 
HETATM    7  C3  UNL     1      37.495  22.706  21.199  1.00  0.00     0.322 C 
HETATM    8  N1  UNL     1      36.987  21.380  21.082  1.00  0.00    -0.028 N 
ATOM      9  H11 UNL     1      35.970  21.347  21.162  1.00  0.00     0.282 HD
ATOM     10  H12 UNL     1      37.214  20.806  21.894  1.00  0.00     0.282 HD
HETATM   11  C4  UNL     1      37.456  20.799  19.854  1.00  0.00     0.247 C 
HETATM   12  C5  UNL     1      37.001  21.704  18.728  1.00  0.00     0.106 C 
HETATM   13  S2  UNL     1      37.525  23.308  19.466  1.00  0.00    -0.096 SA
HETATM   14  O3  UNL     1      38.694  22.839  21.820  1.00  0.00    -0.221 OA
ENDROOT
TORSDOF 0
ENDMDL
MODEL 3
REMARK VINA RESULT: -4.268473765      3.176      3.501
REMARK  0 active torsions:
REMARK  status: ('A' for Active; 'I' for Inactive)
ROOT
HETATM    1  O1  UNL     1      38.159  25.074  20.585  1.00  0.00    -0.199 OA
HETATM    2  S1  UNL     1      37.854  23.654  20.293  1.00  0.00     0.271 S 
HETATM    3  O2  UNL     1      38.045  23.274  18.866  1.00  0.00    -0.199 OA
HETATM    4  C1  UNL     1      36.180  23.218  20.791  1.00  0.00     0.214 C 
HETATM    5  C2  UNL     1      36.498  21.903  21.519  1.00  0.00     0.261 C 
HETATM    6  F1  UNL     1      35.548  21.632  22.473  1.00  0.00    -0.242 F 
HETATM    7  C3  UNL     1      37.773  22.268  22.237  1.00  0.00     0.322 C 
HETATM    8  N1  UNL     1      37.472  23.255  23.219  1.00  0.00    -0.028 N 
ATOM      9  H11 UNL     1      36.487  23.247  23.485  1.00  0.00     0.282 HD
ATOM     10  H12 UNL     1      37.512  24.201  22.842  1.00  0.00     0.282 HD
HETATM   11  C4  UNL     1      38.342  23.081  24.349  1.00  0.00     0.247 C 
HETATM   12  C5  UNL     1      38.143  21.668  24.856  1.00  0.00     0.106 C 
HETATM   13  S2  UNL     1      38.246  20.802  23.233  1.00  0.00    -0.096 SA
HETATM   14  O3  UNL     1      38.714  22.602  21.318  1.00  0.00    -0.221 OA
ENDROOT
TORSDOF 0
ENDMDL
MODEL 4
REMARK VINA RESULT: -4.231965670      2.901      3.453
REMARK  0 active torsions:
REMARK  status: ('A' for Active; 'I' for Inactive)
ROOT
HETATM    1  O1  UNL     1      36.483  21.538  19.089  1.00  0.00    -0.199 OA
HETATM    2  S1  UNL     1      36.242  22.764  19.885  1.00  0.00     0.271 S 
HETATM    3  O2  UNL     1      35.151  23.627  19.353  1.00  0.00    -0.199 OA
HETATM    4  C1  UNL     1      37.736  23.754  20.051  1.00  0.00     0.214 C 
HETATM    5  C2  UNL     1      37.656  24.029  21.560  1.00  0.00     0.261 C 
HETATM    6  F1  UNL     1      38.906  24.260  22.080  1.00  0.00    -0.242 F 
HETATM    7  C3  UNL     1      37.190  22.690  22.076  1.00  0.00     0.322 C 
HETATM    8  N1  UNL     1      38.223  21.736  21.856  1.00  0.00    -0.028 N 
ATOM      9  H11 UNL     1      39.138  22.174  21.752  1.00  0.00     0.282 HD
ATOM     10  H12 UNL     1      38.162  21.307  20.933  1.00  0.00     0.282 HD
HETATM   11  C4  UNL     1      38.203  20.762  22.912  1.00  0.00     0.247 C 
HETATM   12  C5  UNL     1      38.366  21.513  24.217  1.00  0.00     0.106 C 
HETATM   13  S2  UNL     1      37.122  22.834  23.904  1.00  0.00    -0.096 SA
HETATM   14  O3  UNL     1      35.981  22.407  21.529  1.00  0.00    -0.221 OA
ENDROOT
TORSDOF 0
ENDMDL
MODEL 5
REMARK VINA RESULT: -4.178033262      3.108      3.716
REMARK  0 active torsions:
REMARK  status: ('A' for Active; 'I' for Inactive)
ROOT
HETATM    1  O1  UNL     1      38.414  24.032  23.435  1.00  0.00    -0.199 OA
HETATM    2  S1  UNL     1      38.177  23.696  22.011  1.00  0.00     0.271 S 
HETATM    3  O2  UNL     1      38.549  24.782  21.062  1.00  0.00    -0.199 OA
HETATM    4  C1  UNL     1      36.464  23.229  21.714  1.00  0.00     0.214 C 
HETATM    5  C2  UNL     1      36.718  21.967  20.875  1.00  0.00     0.261 C 
HETATM    6  F1  UNL     1      35.665  21.093  20.979  1.00  0.00    -0.242 F 
HETATM    7  C3  UNL     1      37.888  21.359  21.609  1.00  0.00     0.322 C 
HETATM    8  N1  UNL     1      37.448  20.949  22.899  1.00  0.00    -0.028 N 
ATOM      9  H11 UNL     1      36.438  20.808  22.937  1.00  0.00     0.282 HD
ATOM     10  H12 UNL     1      37.514  21.699  23.587  1.00  0.00     0.282 HD
HETATM   11  C4  UNL     1      38.177  19.777  23.299  1.00  0.00     0.247 C 
HETATM   12  C5  UNL     1      37.946  18.722  22.237  1.00  0.00     0.106 C 
HETATM   13  S2  UNL     1      38.266  19.777  20.761  1.00  0.00    -0.096 SA
HETATM   14  O3  UNL     1      38.927  22.232  21.576  1.00  0.00    -0.221 OA
ENDROOT
TORSDOF 0
ENDMDL
