MODEL 1
REMARK VINA RESULT: -5.423587736      0.000      0.000
REMARK  4 active torsions:
REMARK  status: ('A' for Active; 'I' for Inactive)
REMARK    1  A    between atoms: O1_1  and  C1_3 
REMARK    2  A    between atoms: C3_6  and  O3_7 
REMARK    3  A    between atoms: O3_7  and  C4_8 
REMARK    4  A    between atoms: C9_15  and  O6_16 
ROOT
HETATM    1  C1  UNL     1      37.676  22.350  24.373  1.00  0.00     0.170 C 
HETATM    2  C2  UNL     1      38.285  21.213  25.111  1.00  0.00     0.205 C 
HETATM    3  O2  UNL     1      37.701  20.000  24.735  1.00  0.00    -0.359 OA
HETATM    4  C3  UNL     1      38.136  19.754  23.435  1.00  0.00     0.262 C 
HETATM    5  C8  UNL     1      37.550  20.729  22.454  1.00  0.00     0.095 C 
HETATM    6  C9  UNL     1      37.141  22.027  23.025  1.00  0.00     0.153 C 
ENDROOT
BRANCH   4   7
HETATM    7  O3  UNL     1      37.765  18.459  23.094  1.00  0.00    -0.352 OA
BRANCH   7   8
HETATM    8  C4  UNL     1      38.223  18.120  21.842  1.00  0.00     0.172 C 
HETATM    9  C5  UNL     1      39.470  17.285  22.012  1.00  0.00     0.204 C 
HETATM   10  O4  UNL     1      39.723  16.729  20.741  1.00  0.00    -0.364 OA
HETATM   11  C6  UNL     1      38.780  15.766  20.522  1.00  0.00     0.337 C 
HETATM   12  O5  UNL     1      37.487  16.125  20.695  1.00  0.00    -0.364 OA
HETATM   13  C7  UNL     1      37.214  17.417  20.986  1.00  0.00     0.204 C 
ENDBRANCH   7   8
ENDBRANCH   4   7
BRANCH   6  14
HETATM   14  O6  UNL     1      35.731  22.145  23.026  1.00  0.00    -0.393 OA
ATOM     15  H6  UNL     1      35.334  21.285  23.097  1.00  0.00     0.210 HD
ENDBRANCH   6  14
BRANCH   1  16
HETATM   16  O1  UNL     1      38.652  23.372  24.298  1.00  0.00    -0.391 OA
ATOM     17  H1  UNL     1      39.395  23.016  23.823  1.00  0.00     0.210 HD
ENDBRANCH   1  16
TORSDOF 4
ENDMDL
MODEL 2
REMARK VINA RESULT: -5.316575207      1.203      2.285
REMARK  4 active torsions:
REMARK  status: ('A' for Active; 'I' for Inactive)
REMARK    1  A    between atoms: O1_1  and  C1_3 
REMARK    2  A    between atoms: C3_6  and  O3_7 
REMARK    3  A    between atoms: O3_7  and  C4_8 
REMARK    4  A    between atoms: C9_15  and  O6_16 
ROOT
HETATM    1  C1  UNL     1      37.419  22.613  24.022  1.00  0.00     0.170 C 
HETATM    2  C2  UNL     1      37.640  22.757  22.561  1.00  0.00     0.205 C 
HETATM    3  O2  UNL     1      38.569  21.821  22.097  1.00  0.00    -0.359 OA
HETATM    4  C3  UNL     1      37.930  20.586  22.162  1.00  0.00     0.262 C 
HETATM    5  C8  UNL     1      37.690  20.151  23.580  1.00  0.00     0.095 C 
HETATM    6  C9  UNL     1      37.617  21.245  24.568  1.00  0.00     0.153 C 
ENDROOT
BRANCH   4   7
HETATM    7  O3  UNL     1      38.726  19.653  21.509  1.00  0.00    -0.352 OA
BRANCH   7   8
HETATM    8  C4  UNL     1      38.307  18.368  21.766  1.00  0.00     0.172 C 
HETATM    9  C5  UNL     1      37.349  17.963  20.670  1.00  0.00     0.204 C 
HETATM   10  O4  UNL     1      37.186  16.569  20.815  1.00  0.00    -0.364 OA
HETATM   11  C6  UNL     1      38.342  15.977  20.397  1.00  0.00     0.337 C 
HETATM   12  O5  UNL     1      39.495  16.433  20.940  1.00  0.00    -0.364 OA
HETATM   13  C7  UNL     1      39.418  17.373  21.909  1.00  0.00     0.204 C 
ENDBRANCH   7   8
ENDBRANCH   4   7
BRANCH   6  14
HETATM   14  O6  UNL     1      38.749  21.224  25.416  1.00  0.00    -0.393 OA
ATOM     15  H6  UNL     1      38.873  22.079  25.811  1.00  0.00     0.210 HD
ENDBRANCH   6  14
BRANCH   1  16
HETATM   16  O1  UNL     1      36.113  23.083  24.298  1.00  0.00    -0.391 OA
ATOM     17  H1  UNL     1      36.202  23.849  24.853  1.00  0.00     0.210 HD
ENDBRANCH   1  16
TORSDOF 4
ENDMDL
MODEL 3
REMARK VINA RESULT: -5.033899372      1.310      2.216
REMARK  4 active torsions:
REMARK  status: ('A' for Active; 'I' for Inactive)
REMARK    1  A    between atoms: O1_1  and  C1_3 
REMARK    2  A    between atoms: C3_6  and  O3_7 
REMARK    3  A    between atoms: O3_7  and  C4_8 
REMARK    4  A    between atoms: C9_15  and  O6_16 
ROOT
HETATM    1  C1  UNL     1      36.601  23.122  23.471  1.00  0.00     0.170 C 
HETATM    2  C2  UNL     1      36.338  22.257  22.292  1.00  0.00     0.205 C 
HETATM    3  O2  UNL     1      37.474  21.521  21.944  1.00  0.00    -0.359 OA
HETATM    4  C3  UNL     1      37.639  20.575  22.953  1.00  0.00     0.262 C 
HETATM    5  C8  UNL     1      38.033  21.208  24.257  1.00  0.00     0.095 C 
HETATM    6  C9  UNL     1      37.632  22.619  24.416  1.00  0.00     0.153 C 
ENDROOT
BRANCH   4   7
HETATM    7  O3  UNL     1      38.619  19.678  22.547  1.00  0.00    -0.352 OA
BRANCH   7   8
HETATM    8  C4  UNL     1      38.079  18.633  21.834  1.00  0.00     0.172 C 
HETATM    9  C5  UNL     1      38.821  18.531  20.522  1.00  0.00     0.204 C 
HETATM   10  O4  UNL     1      38.437  17.291  19.972  1.00  0.00    -0.364 OA
HETATM   11  C6  UNL     1      39.047  16.313  20.704  1.00  0.00     0.337 C 
HETATM   12  O5  UNL     1      38.890  16.368  22.048  1.00  0.00    -0.364 OA
HETATM   13  C7  UNL     1      38.082  17.323  22.560  1.00  0.00     0.204 C 
ENDBRANCH   7   8
ENDBRANCH   4   7
BRANCH   6  14
HETATM   14  O6  UNL     1      38.767  23.464  24.385  1.00  0.00    -0.393 OA
ATOM     15  H6  UNL     1      38.911  23.845  25.243  1.00  0.00     0.210 HD
ENDBRANCH   6  14
BRANCH   1  16
HETATM   16  O1  UNL     1      35.365  23.322  24.129  1.00  0.00    -0.391 OA
ATOM     17  H1  UNL     1      35.046  24.179  23.874  1.00  0.00     0.210 HD
ENDBRANCH   1  16
TORSDOF 4
ENDMDL
MODEL 4
REMARK VINA RESULT: -5.018752687      3.047      4.730
REMARK  4 active torsions:
REMARK  status: ('A' for Active; 'I' for Inactive)
REMARK    1  A    between atoms: O1_1  and  C1_3 
REMARK    2  A    between atoms: C3_6  and  O3_7 
REMARK    3  A    between atoms: O3_7  and  C4_8 
REMARK    4  A    between atoms: C9_15  and  O6_16 
ROOT
HETATM    1  C1  UNL     1      37.735  21.407  24.792  1.00  0.00     0.170 C 
HETATM    2  C2  UNL     1      38.137  20.302  23.886  1.00  0.00     0.205 C 
HETATM    3  O2  UNL     1      37.632  20.498  22.597  1.00  0.00    -0.359 OA
HETATM    4  C3  UNL     1      38.347  21.569  22.067  1.00  0.00     0.262 C 
HETATM    5  C8  UNL     1      38.020  22.861  22.759  1.00  0.00     0.095 C 
HETATM    6  C9  UNL     1      37.516  22.724  24.139  1.00  0.00     0.153 C 
ENDROOT
BRANCH   4   7
HETATM    7  O3  UNL     1      38.040  21.665  20.715  1.00  0.00    -0.352 OA
BRANCH   7   8
HETATM    8  C4  UNL     1      37.144  22.681  20.475  1.00  0.00     0.172 C 
HETATM    9  C5  UNL     1      37.644  23.473  19.290  1.00  0.00     0.204 C 
HETATM   10  O4  UNL     1      36.564  24.298  18.911  1.00  0.00    -0.364 OA
HETATM   11  C6  UNL     1      35.625  23.498  18.326  1.00  0.00     0.337 C 
HETATM   12  O5  UNL     1      35.236  22.403  19.019  1.00  0.00    -0.364 OA
HETATM   13  C7  UNL     1      35.733  22.223  20.264  1.00  0.00     0.204 C 
ENDBRANCH   7   8
ENDBRANCH   4   7
BRANCH   6  14
HETATM   14  O6  UNL     1      36.145  23.071  24.203  1.00  0.00    -0.393 OA
ATOM     15  H6  UNL     1      36.016  23.945  23.855  1.00  0.00     0.210 HD
ENDBRANCH   6  14
BRANCH   1  16
HETATM   16  O1  UNL     1      38.722  21.501  25.802  1.00  0.00    -0.391 OA
ATOM     17  H1  UNL     1      39.118  22.362  25.728  1.00  0.00     0.210 HD
ENDBRANCH   1  16
TORSDOF 4
ENDMDL
MODEL 5
REMARK VINA RESULT: -4.986779510      1.142      1.256
REMARK  4 active torsions:
REMARK  status: ('A' for Active; 'I' for Inactive)
REMARK    1  A    between atoms: O1_1  and  C1_3 
REMARK    2  A    between atoms: C3_6  and  O3_7 
REMARK    3  A    between atoms: O3_7  and  C4_8 
REMARK    4  A    between atoms: C9_15  and  O6_16 
ROOT
HETATM    1  C1  UNL     1      37.919  22.530  25.049  1.00  0.00     0.170 C 
HETATM    2  C2  UNL     1      38.521  21.174  25.123  1.00  0.00     0.205 C 
HETATM    3  O2  UNL     1      37.835  20.273  24.303  1.00  0.00    -0.359 OA
HETATM    4  C3  UNL     1      38.139  20.642  22.995  1.00  0.00     0.262 C 
HETATM    5  C8  UNL     1      37.529  21.965  22.628  1.00  0.00     0.095 C 
HETATM    6  C9  UNL     1      37.250  22.864  23.765  1.00  0.00     0.153 C 
ENDROOT
BRANCH   4   7
HETATM    7  O3  UNL     1      37.663  19.650  22.145  1.00  0.00    -0.352 OA
BRANCH   7   8
HETATM    8  C4  UNL     1      38.599  18.660  21.958  1.00  0.00     0.172 C 
HETATM    9  C5  UNL     1      38.023  17.368  22.489  1.00  0.00     0.204 C 
HETATM   10  O4  UNL     1      38.880  16.354  22.013  1.00  0.00    -0.364 OA
HETATM   11  C6  UNL     1      38.652  16.222  20.674  1.00  0.00     0.337 C 
HETATM   12  O5  UNL     1      38.705  17.351  19.929  1.00  0.00    -0.364 OA
HETATM   13  C7  UNL     1      39.058  18.505  20.540  1.00  0.00     0.204 C 
ENDBRANCH   7   8
ENDBRANCH   4   7
BRANCH   6  14
HETATM   14  O6  UNL     1      35.855  22.988  23.967  1.00  0.00    -0.393 OA
ATOM     15  H6  UNL     1      35.393  22.345  23.442  1.00  0.00     0.210 HD
ENDBRANCH   6  14
BRANCH   1  16
HETATM   16  O1  UNL     1      38.944  23.460  25.342  1.00  0.00    -0.391 OA
ATOM     17  H1  UNL     1      39.143  23.377  26.267  1.00  0.00     0.210 HD
ENDBRANCH   1  16
TORSDOF 4
ENDMDL
