MODEL 1
REMARK VINA RESULT: -5.645405467      0.000      0.000
REMARK  3 active torsions:
REMARK  status: ('A' for Active; 'I' for Inactive)
REMARK    1  A    between atoms: N1_1  and  C1_4 
REMARK    2  A    between atoms: N3_7  and  C2_8 
REMARK    3  A    between atoms: C2_8  and  N4_9 
ROOT
HETATM    1  N4  UNL     1      38.258  22.430  22.232  1.00  0.00     0.113 N 
HETATM    2  C3  UNL     1      37.860  23.705  21.756  1.00  0.00     0.301 C 
HETATM    3  C4  UNL     1      38.151  24.004  20.338  1.00  0.00     0.198 C 
HETATM    4  O1  UNL     1      36.987  24.011  19.534  1.00  0.00    -0.387 OA
HETATM    5  C5  UNL     1      37.037  23.079  18.530  1.00  0.00     0.193 C 
HETATM    6  C6  UNL     1      36.093  21.920  18.745  1.00  0.00     0.193 C 
HETATM    7  O2  UNL     1      36.793  20.895  19.411  1.00  0.00    -0.387 OA
HETATM    8  C7  UNL     1      36.786  21.194  20.775  1.00  0.00     0.198 C 
HETATM    9  C8  UNL     1      38.205  21.367  21.265  1.00  0.00     0.301 C 
ENDROOT
BRANCH   1  10
HETATM   10  C2  UNL     1      37.413  21.984  23.354  1.00  0.00     0.449 C 
BRANCH  10  11
HETATM   11  N3  UNL     1      37.981  22.414  24.618  1.00  0.00    -0.158 N 
HETATM   12  N2  UNL     1      37.988  21.941  25.850  1.00  0.00    -0.240 N 
HETATM   13  C1  UNL     1      38.715  22.989  26.212  1.00  0.00     0.259 A 
ATOM     14  H2  UNL     1      37.601  21.122  26.319  1.00  0.00     0.193 HD
HETATM   15  O3  UNL     1      38.692  23.427  25.002  1.00  0.00    -0.180 OA
BRANCH  13  16
HETATM   16  N1  UNL     1      39.243  23.409  27.338  1.00  0.00    -0.363 N 
ATOM     17  H12 UNL     1      39.871  23.005  28.032  1.00  0.00     0.159 HD
ATOM     18  H11 UNL     1      39.195  24.272  27.879  1.00  0.00     0.159 HD
ENDBRANCH  13  16
ENDBRANCH  10  11
ENDBRANCH   1  10
TORSDOF 3
ENDMDL
MODEL 2
REMARK VINA RESULT: -5.627419836      0.986      2.041
REMARK  3 active torsions:
REMARK  status: ('A' for Active; 'I' for Inactive)
REMARK    1  A    between atoms: N1_1  and  C1_4 
REMARK    2  A    between atoms: N3_7  and  C2_8 
REMARK    3  A    between atoms: C2_8  and  N4_9 
ROOT
HETATM    1  N4  UNL     1      36.997  22.475  22.731  1.00  0.00     0.113 N 
HETATM    2  C3  UNL     1      36.379  21.497  21.912  1.00  0.00     0.301 C 
HETATM    3  C4  UNL     1      35.412  21.988  20.907  1.00  0.00     0.198 C 
HETATM    4  O1  UNL     1      35.911  21.905  19.586  1.00  0.00    -0.387 OA
HETATM    5  C5  UNL     1      35.974  23.128  18.970  1.00  0.00     0.193 C 
HETATM    6  C6  UNL     1      37.386  23.627  18.778  1.00  0.00     0.193 C 
HETATM    7  O2  UNL     1      37.728  24.430  19.884  1.00  0.00    -0.387 OA
HETATM    8  C7  UNL     1      38.135  23.581  20.914  1.00  0.00     0.198 C 
HETATM    9  C8  UNL     1      37.222  23.751  22.105  1.00  0.00     0.301 C 
ENDROOT
BRANCH   1  10
HETATM   10  C2  UNL     1      38.321  22.029  23.200  1.00  0.00     0.449 C 
BRANCH  10  11
HETATM   11  N3  UNL     1      38.502  22.363  24.601  1.00  0.00    -0.158 N 
HETATM   12  N2  UNL     1      38.281  21.745  25.746  1.00  0.00    -0.240 N 
HETATM   13  C1  UNL     1      38.743  22.818  26.374  1.00  0.00     0.259 A 
ATOM     14  H2  UNL     1      37.915  20.835  26.026  1.00  0.00     0.193 HD
HETATM   15  O3  UNL     1      38.948  23.397  25.243  1.00  0.00    -0.180 OA
BRANCH  13  16
HETATM   16  N1  UNL     1      38.919  23.154  27.630  1.00  0.00    -0.363 N 
ATOM     17  H12 UNL     1      38.419  23.746  28.293  1.00  0.00     0.159 HD
ATOM     18  H11 UNL     1      39.611  22.934  28.346  1.00  0.00     0.159 HD
ENDBRANCH  13  16
ENDBRANCH  10  11
ENDBRANCH   1  10
TORSDOF 3
ENDMDL
MODEL 3
REMARK VINA RESULT: -5.514725111      1.322      2.056
REMARK  3 active torsions:
REMARK  status: ('A' for Active; 'I' for Inactive)
REMARK    1  A    between atoms: N1_1  and  C1_4 
REMARK    2  A    between atoms: N3_7  and  C2_8 
REMARK    3  A    between atoms: C2_8  and  N4_9 
ROOT
HETATM    1  N4  UNL     1      36.913  21.822  22.544  1.00  0.00     0.113 N 
HETATM    2  C3  UNL     1      38.193  21.238  22.371  1.00  0.00     0.301 C 
HETATM    3  C4  UNL     1      38.356  20.325  21.220  1.00  0.00     0.198 C 
HETATM    4  O1  UNL     1      39.141  20.888  20.187  1.00  0.00    -0.387 OA
HETATM    5  C5  UNL     1      38.457  20.989  19.003  1.00  0.00     0.193 C 
HETATM    6  C6  UNL     1      38.117  22.412  18.631  1.00  0.00     0.193 C 
HETATM    7  O2  UNL     1      36.831  22.705  19.128  1.00  0.00    -0.387 OA
HETATM    8  C7  UNL     1      36.965  23.056  20.472  1.00  0.00     0.198 C 
HETATM    9  C8  UNL     1      36.187  22.086  21.331  1.00  0.00     0.301 C 
ENDROOT
BRANCH   1  10
HETATM   10  C2  UNL     1      37.000  23.118  23.240  1.00  0.00     0.449 C 
BRANCH  10  11
HETATM   11  N3  UNL     1      37.740  22.978  24.481  1.00  0.00    -0.158 N 
HETATM   12  N2  UNL     1      37.573  22.295  25.598  1.00  0.00    -0.240 N 
HETATM   13  C1  UNL     1      38.703  22.822  26.049  1.00  0.00     0.259 A 
ATOM     14  H2  UNL     1      36.876  21.643  25.958  1.00  0.00     0.193 HD
HETATM   15  O3  UNL     1      38.841  23.477  24.949  1.00  0.00    -0.180 OA
BRANCH  13  16
HETATM   16  N1  UNL     1      39.398  22.721  27.157  1.00  0.00    -0.363 N 
ATOM     17  H12 UNL     1      39.171  22.739  28.151  1.00  0.00     0.159 HD
ATOM     18  H11 UNL     1      40.384  22.592  27.382  1.00  0.00     0.159 HD
ENDBRANCH  13  16
ENDBRANCH  10  11
ENDBRANCH   1  10
TORSDOF 3
ENDMDL
MODEL 4
REMARK VINA RESULT: -5.424360132      1.735      2.121
REMARK  3 active torsions:
REMARK  status: ('A' for Active; 'I' for Inactive)
REMARK    1  A    between atoms: N1_1  and  C1_4 
REMARK    2  A    between atoms: N3_7  and  C2_8 
REMARK    3  A    between atoms: C2_8  and  N4_9 
ROOT
HETATM    1  N4  UNL     1      37.206  23.215  22.735  1.00  0.00     0.113 N 
HETATM    2  C3  UNL     1      35.936  22.934  23.302  1.00  0.00     0.301 C 
HETATM    3  C4  UNL     1      34.754  23.303  22.495  1.00  0.00     0.198 C 
HETATM    4  O1  UNL     1      34.089  22.177  21.957  1.00  0.00    -0.387 OA
HETATM    5  C5  UNL     1      34.049  22.196  20.587  1.00  0.00     0.193 C 
HETATM    6  C6  UNL     1      34.942  21.158  19.950  1.00  0.00     0.193 C 
HETATM    7  O2  UNL     1      36.193  21.751  19.686  1.00  0.00    -0.387 OA
HETATM    8  C7  UNL     1      36.937  21.713  20.867  1.00  0.00     0.198 C 
HETATM    9  C8  UNL     1      37.275  23.120  21.301  1.00  0.00     0.301 C 
ENDROOT
BRANCH   1  10
HETATM   10  C2  UNL     1      38.239  22.294  23.241  1.00  0.00     0.449 C 
BRANCH  10  11
HETATM   11  N3  UNL     1      38.462  22.512  24.658  1.00  0.00    -0.158 N 
HETATM   12  N2  UNL     1      38.184  21.846  25.762  1.00  0.00    -0.240 N 
HETATM   13  C1  UNL     1      38.761  22.819  26.454  1.00  0.00     0.259 A 
ATOM     14  H2  UNL     1      37.725  20.963  25.986  1.00  0.00     0.193 HD
HETATM   15  O3  UNL     1      39.020  23.448  25.361  1.00  0.00    -0.180 OA
BRANCH  13  16
HETATM   16  N1  UNL     1      38.980  23.050  27.727  1.00  0.00    -0.363 N 
ATOM     17  H12 UNL     1      39.600  22.653  28.433  1.00  0.00     0.159 HD
ATOM     18  H11 UNL     1      38.604  23.698  28.418  1.00  0.00     0.159 HD
ENDBRANCH  13  16
ENDBRANCH  10  11
ENDBRANCH   1  10
TORSDOF 3
ENDMDL
MODEL 5
REMARK VINA RESULT: -5.385039114      1.984      3.195
REMARK  3 active torsions:
REMARK  status: ('A' for Active; 'I' for Inactive)
REMARK    1  A    between atoms: N1_1  and  C1_4 
REMARK    2  A    between atoms: N3_7  and  C2_8 
REMARK    3  A    between atoms: C2_8  and  N4_9 
ROOT
HETATM    1  N4  UNL     1      37.475  21.109  23.016  1.00  0.00     0.113 N 
HETATM    2  C3  UNL     1      38.248  20.008  23.467  1.00  0.00     0.301 C 
HETATM    3  C4  UNL     1      38.006  18.711  22.801  1.00  0.00     0.198 C 
HETATM    4  O1  UNL     1      39.068  18.331  21.948  1.00  0.00    -0.387 OA
HETATM    5  C5  UNL     1      38.668  18.180  20.645  1.00  0.00     0.193 C 
HETATM    6  C6  UNL     1      39.188  19.265  19.733  1.00  0.00     0.193 C 
HETATM    7  O2  UNL     1      38.221  20.288  19.665  1.00  0.00    -0.387 OA
HETATM    8  C7  UNL     1      38.390  21.106  20.784  1.00  0.00     0.198 C 
HETATM    9  C8  UNL     1      37.131  21.089  21.619  1.00  0.00     0.301 C 
ENDROOT
BRANCH   1  10
HETATM   10  C2  UNL     1      38.178  22.386  23.230  1.00  0.00     0.449 C 
BRANCH  10  11
HETATM   11  N3  UNL     1      38.407  22.607  24.646  1.00  0.00    -0.158 N 
HETATM   12  N2  UNL     1      37.948  22.075  25.762  1.00  0.00    -0.240 N 
HETATM   13  C1  UNL     1      38.720  22.914  26.440  1.00  0.00     0.259 A 
ATOM     14  H2  UNL     1      37.286  21.336  26.001  1.00  0.00     0.193 HD
HETATM   15  O3  UNL     1      39.151  23.415  25.335  1.00  0.00    -0.180 OA
BRANCH  13  16
HETATM   16  N1  UNL     1      38.952  23.142  27.711  1.00  0.00    -0.363 N 
ATOM     17  H12 UNL     1      38.408  23.527  28.483  1.00  0.00     0.159 HD
ATOM     18  H11 UNL     1      39.747  23.010  28.335  1.00  0.00     0.159 HD
ENDBRANCH  13  16
ENDBRANCH  10  11
ENDBRANCH   1  10
TORSDOF 3
ENDMDL
