MODEL 1
REMARK VINA RESULT: -5.611566011      0.000      0.000
REMARK  4 active torsions:
REMARK  status: ('A' for Active; 'I' for Inactive)
REMARK    1  A    between atoms: C4_6  and  C5_7 
REMARK    2  A    between atoms: C6_8  and  C7_9 
REMARK    3  A    between atoms: C7_9  and  O3_10 
REMARK    4  A    between atoms: C8_13  and  O5_14 
ROOT
HETATM    1  C1  UNL     1      33.166  22.047  20.829  1.00  0.00     0.071 C 
HETATM    2  C2  UNL     1      34.367  22.902  20.598  1.00  0.00     0.259 C 
HETATM    3  O1  UNL     1      34.851  23.329  21.831  1.00  0.00    -0.329 OA
HETATM    4  C3  UNL     1      36.006  22.632  22.022  1.00  0.00     0.300 C 
HETATM    5  O2  UNL     1      36.984  23.245  22.748  1.00  0.00    -0.325 OA
HETATM    6  C4  UNL     1      38.195  22.583  22.676  1.00  0.00     0.290 C 
HETATM    7  O4  UNL     1      38.628  22.261  21.433  1.00  0.00    -0.325 OA
HETATM    8  C8  UNL     1      37.678  21.710  20.586  1.00  0.00     0.294 C 
HETATM    9  C9  UNL     1      36.522  22.635  20.568  1.00  0.00     0.234 C 
HETATM   10  O6  UNL     1      35.396  22.244  19.927  1.00  0.00    -0.346 OA
ENDROOT
BRANCH   6  11
HETATM   11  C5  UNL     1      38.222  21.354  23.523  1.00  0.00     0.031 C 
HETATM   12  C6  UNL     1      38.380  21.432  24.837  1.00  0.00    -0.001 C 
BRANCH  12  13
HETATM   13  C7  UNL     1      38.539  22.702  25.561  1.00  0.00     0.191 C 
BRANCH  13  14
HETATM   14  O3  UNL     1      37.984  22.662  26.854  1.00  0.00    -0.397 OA
ATOM     15  H3  UNL     1      38.497  22.137  27.456  1.00  0.00     0.209 HD
ENDBRANCH  13  14
ENDBRANCH  12  13
ENDBRANCH   6  11
BRANCH   8  16
HETATM   16  O5  UNL     1      37.288  20.463  21.049  1.00  0.00    -0.368 OA
ATOM     17  H5  UNL     1      36.363  20.326  20.882  1.00  0.00     0.212 HD
ENDBRANCH   8  16
TORSDOF 4
ENDMDL
MODEL 2
REMARK VINA RESULT: -5.394220013      1.982      3.621
REMARK  4 active torsions:
REMARK  status: ('A' for Active; 'I' for Inactive)
REMARK    1  A    between atoms: C4_6  and  C5_7 
REMARK    2  A    between atoms: C6_8  and  C7_9 
REMARK    3  A    between atoms: C7_9  and  O3_10 
REMARK    4  A    between atoms: C8_13  and  O5_14 
ROOT
HETATM    1  C1  UNL     1      40.649  21.531  17.856  1.00  0.00     0.071 C 
HETATM    2  C2  UNL     1      39.295  21.121  18.332  1.00  0.00     0.259 C 
HETATM    3  O1  UNL     1      39.400  20.686  19.650  1.00  0.00    -0.329 OA
HETATM    4  C3  UNL     1      38.815  21.664  20.396  1.00  0.00     0.300 C 
HETATM    5  O2  UNL     1      38.208  21.277  21.554  1.00  0.00    -0.325 OA
HETATM    6  C4  UNL     1      37.431  22.276  22.109  1.00  0.00     0.290 C 
HETATM    7  O4  UNL     1      36.559  22.890  21.272  1.00  0.00    -0.325 OA
HETATM    8  C8  UNL     1      37.061  23.245  20.029  1.00  0.00     0.294 C 
HETATM    9  C9  UNL     1      37.661  22.027  19.438  1.00  0.00     0.234 C 
HETATM   10  O6  UNL     1      38.355  22.148  18.283  1.00  0.00    -0.346 OA
ENDROOT
BRANCH   6  11
HETATM   11  C5  UNL     1      38.251  23.320  22.791  1.00  0.00     0.031 C 
HETATM   12  C6  UNL     1      38.499  23.254  24.092  1.00  0.00    -0.001 C 
BRANCH  12  13
HETATM   13  C7  UNL     1      38.000  22.176  24.958  1.00  0.00     0.191 C 
BRANCH  13  14
HETATM   14  O3  UNL     1      37.765  22.606  26.278  1.00  0.00    -0.397 OA
ATOM     15  H3  UNL     1      38.562  22.665  26.791  1.00  0.00     0.209 HD
ENDBRANCH  13  14
ENDBRANCH  12  13
ENDBRANCH   6  11
BRANCH   8  16
HETATM   16  O5  UNL     1      38.022  24.235  20.165  1.00  0.00    -0.368 OA
ATOM     17  H5  UNL     1      38.577  24.262  19.395  1.00  0.00     0.212 HD
ENDBRANCH   8  16
TORSDOF 4
ENDMDL
MODEL 3
REMARK VINA RESULT: -5.356410157      1.667      2.946
REMARK  4 active torsions:
REMARK  status: ('A' for Active; 'I' for Inactive)
REMARK    1  A    between atoms: C4_6  and  C5_7 
REMARK    2  A    between atoms: C6_8  and  C7_9 
REMARK    3  A    between atoms: C7_9  and  O3_10 
REMARK    4  A    between atoms: C8_13  and  O5_14 
ROOT
HETATM    1  C1  UNL     1      37.966  23.142  17.183  1.00  0.00     0.071 C 
HETATM    2  C2  UNL     1      37.665  21.956  18.037  1.00  0.00     0.259 C 
HETATM    3  O1  UNL     1      38.724  21.765  18.920  1.00  0.00    -0.329 OA
HETATM    4  C3  UNL     1      38.243  22.136  20.139  1.00  0.00     0.300 C 
HETATM    5  O2  UNL     1      38.761  21.497  21.227  1.00  0.00    -0.325 OA
HETATM    6  C4  UNL     1      38.045  21.746  22.382  1.00  0.00     0.290 C 
HETATM    7  O4  UNL     1      36.703  21.580  22.302  1.00  0.00    -0.325 OA
HETATM    8  C8  UNL     1      36.092  22.121  21.180  1.00  0.00     0.294 C 
HETATM    9  C9  UNL     1      36.807  21.589  19.997  1.00  0.00     0.234 C 
HETATM   10  O6  UNL     1      36.494  22.089  18.779  1.00  0.00    -0.346 OA
ENDROOT
BRANCH   6  11
HETATM   11  C5  UNL     1      38.325  23.101  22.942  1.00  0.00     0.031 C 
HETATM   12  C6  UNL     1      38.443  23.291  24.249  1.00  0.00    -0.001 C 
BRANCH  12  13
HETATM   13  C7  UNL     1      38.312  22.213  25.240  1.00  0.00     0.191 C 
BRANCH  13  14
HETATM   14  O3  UNL     1      37.870  22.679  26.492  1.00  0.00    -0.397 OA
ATOM     15  H3  UNL     1      38.587  22.926  27.064  1.00  0.00     0.209 HD
ENDBRANCH  13  14
ENDBRANCH  12  13
ENDBRANCH   6  11
BRANCH   8  16
HETATM   16  O5  UNL     1      36.176  23.504  21.209  1.00  0.00    -0.368 OA
ATOM     17  H5  UNL     1      36.268  23.846  20.327  1.00  0.00     0.212 HD
ENDBRANCH   8  16
TORSDOF 4
ENDMDL
MODEL 4
REMARK VINA RESULT: -5.342824926      1.327      2.518
REMARK  4 active torsions:
REMARK  status: ('A' for Active; 'I' for Inactive)
REMARK    1  A    between atoms: C4_6  and  C5_7 
REMARK    2  A    between atoms: C6_8  and  C7_9 
REMARK    3  A    between atoms: C7_9  and  O3_10 
REMARK    4  A    between atoms: C8_13  and  O5_14 
ROOT
HETATM    1  C1  UNL     1      36.511  24.163  18.038  1.00  0.00     0.071 C 
HETATM    2  C2  UNL     1      36.278  22.904  18.805  1.00  0.00     0.259 C 
HETATM    3  O1  UNL     1      37.492  22.476  19.334  1.00  0.00    -0.329 OA
HETATM    4  C3  UNL     1      37.403  22.715  20.672  1.00  0.00     0.300 C 
HETATM    5  O2  UNL     1      38.090  21.874  21.497  1.00  0.00    -0.325 OA
HETATM    6  C4  UNL     1      37.742  22.029  22.825  1.00  0.00     0.290 C 
HETATM    7  O4  UNL     1      36.415  22.020  23.101  1.00  0.00    -0.325 OA
HETATM    8  C8  UNL     1      35.617  22.780  22.259  1.00  0.00     0.294 C 
HETATM    9  C9  UNL     1      35.916  22.351  20.873  1.00  0.00     0.234 C 
HETATM   10  O6  UNL     1      35.371  23.052  19.852  1.00  0.00    -0.346 OA
ENDROOT
BRANCH   6  11
HETATM   11  C5  UNL     1      38.347  23.251  23.432  1.00  0.00     0.031 C 
HETATM   12  C6  UNL     1      38.663  23.292  24.719  1.00  0.00    -0.001 C 
BRANCH  12  13
HETATM   13  C7  UNL     1      38.451  22.167  25.641  1.00  0.00     0.191 C 
BRANCH  13  14
HETATM   14  O3  UNL     1      37.981  22.581  26.902  1.00  0.00    -0.397 OA
ATOM     15  H3  UNL     1      38.657  22.563  27.569  1.00  0.00     0.209 HD
ENDBRANCH  13  14
ENDBRANCH  12  13
ENDBRANCH   6  11
BRANCH   8  16
HETATM   16  O5  UNL     1      35.900  24.127  22.416  1.00  0.00    -0.368 OA
ATOM     17  H5  UNL     1      36.633  24.375  21.865  1.00  0.00     0.212 HD
ENDBRANCH   8  16
TORSDOF 4
ENDMDL
MODEL 5
REMARK VINA RESULT: -5.295831451      1.209      1.326
REMARK  4 active torsions:
REMARK  status: ('A' for Active; 'I' for Inactive)
REMARK    1  A    between atoms: C4_6  and  C5_7 
REMARK    2  A    between atoms: C6_8  and  C7_9 
REMARK    3  A    between atoms: C7_9  and  O3_10 
REMARK    4  A    between atoms: C8_13  and  O5_14 
ROOT
HETATM    1  C1  UNL     1      34.899  21.099  18.741  1.00  0.00     0.071 C 
HETATM    2  C2  UNL     1      35.304  22.405  19.338  1.00  0.00     0.259 C 
HETATM    3  O1  UNL     1      34.908  22.424  20.672  1.00  0.00    -0.329 OA
HETATM    4  C3  UNL     1      36.062  22.312  21.388  1.00  0.00     0.300 C 
HETATM    5  O2  UNL     1      36.093  22.916  22.610  1.00  0.00    -0.325 OA
HETATM    6  C4  UNL     1      37.365  22.970  23.146  1.00  0.00     0.290 C 
HETATM    7  O4  UNL     1      38.338  23.447  22.332  1.00  0.00    -0.325 OA
HETATM    8  C8  UNL     1      38.336  22.956  21.035  1.00  0.00     0.294 C 
HETATM    9  C9  UNL     1      36.976  23.172  20.490  1.00  0.00     0.234 C 
HETATM   10  O6  UNL     1      36.676  22.639  19.283  1.00  0.00    -0.346 OA
ENDROOT
BRANCH   6  11
HETATM   11  C5  UNL     1      37.806  21.654  23.695  1.00  0.00     0.031 C 
HETATM   12  C6  UNL     1      38.389  21.568  24.882  1.00  0.00    -0.001 C 
BRANCH  12  13
HETATM   13  C7  UNL     1      38.648  22.731  25.744  1.00  0.00     0.191 C 
BRANCH  13  14
HETATM   14  O3  UNL     1      37.855  22.730  26.907  1.00  0.00    -0.397 OA
ATOM     15  H3  UNL     1      37.133  22.116  26.857  1.00  0.00     0.209 HD
ENDBRANCH  13  14
ENDBRANCH  12  13
ENDBRANCH   6  11
BRANCH   8  16
HETATM   16  O5  UNL     1      38.645  21.605  21.033  1.00  0.00    -0.368 OA
ATOM     17  H5  UNL     1      37.860  21.089  20.888  1.00  0.00     0.212 HD
ENDBRANCH   8  16
TORSDOF 4
ENDMDL
