MODEL 1
REMARK VINA RESULT: -5.759676257      0.000      0.000
REMARK  5 active torsions:
REMARK  status: ('A' for Active; 'I' for Inactive)
REMARK    1  A    between atoms: C2_2  and  O1_3 
REMARK    2  A    between atoms: O1_3  and  C3_4 
REMARK    3  A    between atoms: C3_4  and  C4_5 
REMARK    4  A    between atoms: C9_12  and  O4_13 
REMARK    5  A    between atoms: C10_15  and  O5_16 
ROOT
HETATM    1  C4  UNL     1      37.148  23.846  22.803  1.00  0.00     0.224 C 
HETATM    2  O2  UNL     1      37.248  24.282  21.502  1.00  0.00    -0.229 OA
HETATM    3  O3  UNL     1      36.857  23.358  20.686  1.00  0.00    -0.226 OA
HETATM    4  C5  UNL     1      35.887  22.590  21.274  1.00  0.00     0.129 C 
HETATM    5  C6  UNL     1      36.146  21.146  20.921  1.00  0.00     0.052 C 
HETATM    6  C7  UNL     1      34.514  22.945  20.780  1.00  0.00     0.047 C 
HETATM    7  C8  UNL     1      33.718  22.995  22.088  1.00  0.00     0.038 C 
HETATM    8  C9  UNL     1      34.719  23.683  22.996  1.00  0.00     0.158 C 
HETATM    9  C10 UNL     1      35.969  22.890  22.723  1.00  0.00     0.148 C 
ENDROOT
BRANCH   1  10
HETATM   10  C3  UNL     1      38.361  23.193  23.369  1.00  0.00     0.205 C 
BRANCH  10  11
HETATM   11  O1  UNL     1      38.733  23.533  24.625  1.00  0.00    -0.389 OA
BRANCH  11  12
HETATM   12  C2  UNL     1      38.510  22.670  25.647  1.00  0.00     0.163 C 
HETATM   13  C1  UNL     1      39.212  23.040  26.943  1.00  0.00     0.033 C 
ENDBRANCH  11  12
ENDBRANCH  10  11
ENDBRANCH   1  10
BRANCH   9  14
HETATM   14  O5  UNL     1      36.116  21.802  23.546  1.00  0.00    -0.381 OA
ATOM     15  H5  UNL     1      35.374  21.682  24.127  1.00  0.00     0.211 HD
ENDBRANCH   9  14
BRANCH   8  16
HETATM   16  O4  UNL     1      34.345  23.693  24.314  1.00  0.00    -0.392 OA
ATOM     17  H4  UNL     1      34.978  24.112  24.885  1.00  0.00     0.210 HD
ENDBRANCH   8  16
TORSDOF 5
ENDMDL
MODEL 2
REMARK VINA RESULT: -5.652505803      1.236      1.488
REMARK  5 active torsions:
REMARK  status: ('A' for Active; 'I' for Inactive)
REMARK    1  A    between atoms: C2_2  and  O1_3 
REMARK    2  A    between atoms: O1_3  and  C3_4 
REMARK    3  A    between atoms: C3_4  and  C4_5 
REMARK    4  A    between atoms: C9_12  and  O4_13 
REMARK    5  A    between atoms: C10_15  and  O5_16 
ROOT
HETATM    1  C4  UNL     1      37.925  23.372  23.649  1.00  0.00     0.224 C 
HETATM    2  O2  UNL     1      38.594  23.635  22.476  1.00  0.00    -0.229 OA
HETATM    3  O3  UNL     1      38.504  22.627  21.671  1.00  0.00    -0.226 OA
HETATM    4  C5  UNL     1      37.316  21.974  21.866  1.00  0.00     0.129 C 
HETATM    5  C6  UNL     1      37.576  20.489  21.805  1.00  0.00     0.052 C 
HETATM    6  C7  UNL     1      36.309  22.308  20.804  1.00  0.00     0.047 C 
HETATM    7  C8  UNL     1      35.047  22.551  21.638  1.00  0.00     0.038 C 
HETATM    8  C9  UNL     1      35.633  23.315  22.809  1.00  0.00     0.158 C 
HETATM    9  C10 UNL     1      36.810  22.453  23.175  1.00  0.00     0.148 C 
ENDROOT
BRANCH   1  10
HETATM   10  C3  UNL     1      38.731  22.757  24.740  1.00  0.00     0.205 C 
BRANCH  10  11
HETATM   11  O1  UNL     1      38.390  23.044  26.018  1.00  0.00    -0.389 OA
BRANCH  11  12
HETATM   12  C2  UNL     1      39.332  22.985  26.991  1.00  0.00     0.163 C 
HETATM   13  C1  UNL     1      39.129  23.985  28.118  1.00  0.00     0.033 C 
ENDBRANCH  11  12
ENDBRANCH  10  11
ENDBRANCH   1  10
BRANCH   9  14
HETATM   14  O5  UNL     1      36.509  21.475  24.088  1.00  0.00    -0.381 OA
ATOM     15  H5  UNL     1      37.035  20.692  23.971  1.00  0.00     0.211 HD
ENDBRANCH   9  14
BRANCH   8  16
HETATM   16  O4  UNL     1      34.745  23.506  23.836  1.00  0.00    -0.392 OA
ATOM     17  H4  UNL     1      34.834  22.872  24.537  1.00  0.00     0.210 HD
ENDBRANCH   8  16
TORSDOF 5
ENDMDL
MODEL 3
REMARK VINA RESULT: -5.213733752      1.521      2.771
REMARK  5 active torsions:
REMARK  status: ('A' for Active; 'I' for Inactive)
REMARK    1  A    between atoms: C2_2  and  O1_3 
REMARK    2  A    between atoms: O1_3  and  C3_4 
REMARK    3  A    between atoms: C3_4  and  C4_5 
REMARK    4  A    between atoms: C9_12  and  O4_13 
REMARK    5  A    between atoms: C10_15  and  O5_16 
ROOT
HETATM    1  C4  UNL     1      38.211  22.592  22.924  1.00  0.00     0.224 C 
HETATM    2  O2  UNL     1      38.174  21.258  22.588  1.00  0.00    -0.229 OA
HETATM    3  O3  UNL     1      37.042  20.965  22.035  1.00  0.00    -0.226 OA
HETATM    4  C5  UNL     1      36.558  22.047  21.350  1.00  0.00     0.129 C 
HETATM    5  C6  UNL     1      35.071  22.136  21.593  1.00  0.00     0.052 C 
HETATM    6  C7  UNL     1      36.775  21.920  19.870  1.00  0.00     0.047 C 
HETATM    7  C8  UNL     1      37.297  23.315  19.512  1.00  0.00     0.038 C 
HETATM    8  C9  UNL     1      38.215  23.578  20.690  1.00  0.00     0.158 C 
HETATM    9  C10 UNL     1      37.330  23.210  21.850  1.00  0.00     0.148 C 
ENDROOT
BRANCH   1  10
HETATM   10  C3  UNL     1      37.744  22.935  24.296  1.00  0.00     0.205 C 
BRANCH  10  11
HETATM   11  O1  UNL     1      38.663  23.383  25.183  1.00  0.00    -0.389 OA
BRANCH  11  12
HETATM   12  C2  UNL     1      38.993  22.615  26.251  1.00  0.00     0.163 C 
HETATM   13  C1  UNL     1      39.104  23.379  27.560  1.00  0.00     0.033 C 
ENDBRANCH  11  12
ENDBRANCH  10  11
ENDBRANCH   1  10
BRANCH   9  14
HETATM   14  O5  UNL     1      36.582  24.259  22.321  1.00  0.00    -0.381 OA
ATOM     15  H5  UNL     1      36.120  24.047  23.124  1.00  0.00     0.211 HD
ENDBRANCH   9  14
BRANCH   8  16
HETATM   16  O4  UNL     1      38.687  24.864  20.738  1.00  0.00    -0.392 OA
ATOM     17  H4  UNL     1      38.109  25.495  20.326  1.00  0.00     0.210 HD
ENDBRANCH   8  16
TORSDOF 5
ENDMDL
MODEL 4
REMARK VINA RESULT: -5.145408539      1.177      1.424
REMARK  5 active torsions:
REMARK  status: ('A' for Active; 'I' for Inactive)
REMARK    1  A    between atoms: C2_2  and  O1_3 
REMARK    2  A    between atoms: O1_3  and  C3_4 
REMARK    3  A    between atoms: C3_4  and  C4_5 
REMARK    4  A    between atoms: C9_12  and  O4_13 
REMARK    5  A    between atoms: C10_15  and  O5_16 
ROOT
HETATM    1  C4  UNL     1      37.433  23.601  22.491  1.00  0.00     0.224 C 
HETATM    2  O2  UNL     1      37.855  24.163  21.308  1.00  0.00    -0.229 OA
HETATM    3  O3  UNL     1      38.136  23.241  20.446  1.00  0.00    -0.226 OA
HETATM    4  C5  UNL     1      37.342  22.145  20.652  1.00  0.00     0.129 C 
HETATM    5  C6  UNL     1      38.189  20.908  20.488  1.00  0.00     0.052 C 
HETATM    6  C7  UNL     1      36.219  22.070  19.658  1.00  0.00     0.047 C 
HETATM    7  C8  UNL     1      35.028  21.732  20.561  1.00  0.00     0.038 C 
HETATM    8  C9  UNL     1      35.320  22.626  21.750  1.00  0.00     0.158 C 
HETATM    9  C10 UNL     1      36.770  22.320  22.009  1.00  0.00     0.148 C 
ENDROOT
BRANCH   1  10
HETATM   10  C3  UNL     1      38.491  23.336  23.504  1.00  0.00     0.205 C 
BRANCH  10  11
HETATM   11  O1  UNL     1      38.167  23.483  24.810  1.00  0.00    -0.389 OA
BRANCH  11  12
HETATM   12  C2  UNL     1      38.535  22.531  25.703  1.00  0.00     0.163 C 
HETATM   13  C1  UNL     1      39.151  23.076  26.981  1.00  0.00     0.033 C 
ENDBRANCH  11  12
ENDBRANCH  10  11
ENDBRANCH   1  10
BRANCH   9  14
HETATM   14  O5  UNL     1      36.962  21.270  22.872  1.00  0.00    -0.381 OA
ATOM     15  H5  UNL     1      36.196  20.712  22.943  1.00  0.00     0.211 HD
ENDBRANCH   9  14
BRANCH   8  16
HETATM   16  O4  UNL     1      34.502  22.390  22.825  1.00  0.00    -0.392 OA
ATOM     17  H4  UNL     1      34.572  21.506  23.166  1.00  0.00     0.210 HD
ENDBRANCH   8  16
TORSDOF 5
ENDMDL
MODEL 5
REMARK VINA RESULT: -5.032827493      1.981      4.545
REMARK  5 active torsions:
REMARK  status: ('A' for Active; 'I' for Inactive)
REMARK    1  A    between atoms: C2_2  and  O1_3 
REMARK    2  A    between atoms: O1_3  and  C3_4 
REMARK    3  A    between atoms: C3_4  and  C4_5 
REMARK    4  A    between atoms: C9_12  and  O4_13 
REMARK    5  A    between atoms: C10_15  and  O5_16 
ROOT
HETATM    1  C4  UNL     1      37.685  20.821  21.945  1.00  0.00     0.224 C 
HETATM    2  O2  UNL     1      38.751  21.586  21.530  1.00  0.00    -0.229 OA
HETATM    3  O3  UNL     1      38.551  22.831  21.819  1.00  0.00    -0.226 OA
HETATM    4  C5  UNL     1      37.796  22.935  22.957  1.00  0.00     0.129 C 
HETATM    5  C6  UNL     1      36.789  24.041  22.760  1.00  0.00     0.052 C 
HETATM    6  C7  UNL     1      38.632  23.283  24.155  1.00  0.00     0.047 C 
HETATM    7  C8  UNL     1      38.090  22.307  25.205  1.00  0.00     0.038 C 
HETATM    8  C9  UNL     1      37.928  21.057  24.364  1.00  0.00     0.158 C 
HETATM    9  C10 UNL     1      37.200  21.593  23.161  1.00  0.00     0.148 C 
ENDROOT
BRANCH   1  10
HETATM   10  C3  UNL     1      36.601  20.611  20.946  1.00  0.00     0.205 C 
BRANCH  10  11
HETATM   11  O1  UNL     1      36.012  21.707  20.413  1.00  0.00    -0.389 OA
BRANCH  11  12
HETATM   12  C2  UNL     1      36.192  21.994  19.101  1.00  0.00     0.163 C 
HETATM   13  C1  UNL     1      36.842  23.342  18.838  1.00  0.00     0.033 C 
ENDBRANCH  11  12
ENDBRANCH  10  11
ENDBRANCH   1  10
BRANCH   9  14
HETATM   14  O5  UNL     1      35.834  21.566  23.292  1.00  0.00    -0.381 OA
ATOM     15  H5  UNL     1      35.556  21.497  24.198  1.00  0.00     0.211 HD
ENDBRANCH   9  14
BRANCH   8  16
HETATM   16  O4  UNL     1      37.264  20.046  25.009  1.00  0.00    -0.392 OA
ATOM     17  H4  UNL     1      36.887  19.404  24.420  1.00  0.00     0.210 HD
ENDBRANCH   8  16
TORSDOF 5
ENDMDL
