MODEL 1
REMARK VINA RESULT: -4.939571165      0.000      0.000
REMARK  1 active torsions:
REMARK  status: ('A' for Active; 'I' for Inactive)
REMARK    1  A    between atoms: C2_2  and  C3_3 
ROOT
HETATM    1  C3  UNL     1       0.332  17.803  23.219  1.00  0.00     0.255 C 
HETATM    2  N1  UNL     1       0.269  17.729  24.678  1.00  0.00    -0.058 N 
ATOM      3  H11 UNL     1      -0.272  17.007  25.153  1.00  0.00     0.278 HD
ATOM      4  H12 UNL     1      -0.239  18.423  25.226  1.00  0.00     0.278 HD
HETATM    5  C4  UNL     1       1.716  17.696  24.648  1.00  0.00     0.287 C 
HETATM    6  C5  UNL     1       1.631  18.504  23.398  1.00  0.00     0.040 C 
HETATM    7  N2  UNL     1       2.283  19.368  22.747  1.00  0.00    -0.402 N 
ATOM      8  H21 UNL     1       3.174  19.849  22.870  1.00  0.00     0.155 HD
ATOM      9  H22 UNL     1       2.224  19.921  21.892  1.00  0.00     0.155 HD
ENDROOT
BRANCH   1  10
HETATM   10  C2  UNL     1      -0.741  18.601  22.603  1.00  0.00     0.002 C 
HETATM   11  C1  UNL     1      -1.233  19.674  23.239  1.00  0.00     0.009 C 
ENDBRANCH   1  10
TORSDOF 1
ENDMDL
MODEL 2
REMARK VINA RESULT: -4.362547511      0.854      1.970
REMARK  1 active torsions:
REMARK  status: ('A' for Active; 'I' for Inactive)
REMARK    1  A    between atoms: C2_2  and  C3_3 
ROOT
HETATM    1  C3  UNL     1       0.767  19.179  23.663  1.00  0.00     0.255 C 
HETATM    2  N1  UNL     1       2.041  19.027  22.961  1.00  0.00    -0.058 N 
ATOM      3  H11 UNL     1       2.565  19.835  22.623  1.00  0.00     0.278 HD
ATOM      4  H12 UNL     1       2.088  18.643  22.017  1.00  0.00     0.278 HD
HETATM    5  C4  UNL     1       2.480  18.267  24.112  1.00  0.00     0.287 C 
HETATM    6  C5  UNL     1       1.057  17.863  24.291  1.00  0.00     0.040 C 
HETATM    7  N2  UNL     1       0.360  16.908  24.738  1.00  0.00    -0.402 N 
ATOM      8  H21 UNL     1       0.559  16.005  25.169  1.00  0.00     0.155 HD
ATOM      9  H22 UNL     1      -0.614  16.632  24.860  1.00  0.00     0.155 HD
ENDROOT
BRANCH   1  10
HETATM   10  C2  UNL     1      -0.412  19.217  22.782  1.00  0.00     0.002 C 
HETATM   11  C1  UNL     1      -1.500  19.914  23.140  1.00  0.00     0.009 C 
ENDBRANCH   1  10
TORSDOF 1
ENDMDL
MODEL 3
REMARK VINA RESULT: -4.358514673      1.260      1.798
REMARK  1 active torsions:
REMARK  status: ('A' for Active; 'I' for Inactive)
REMARK    1  A    between atoms: C2_2  and  C3_3 
ROOT
HETATM    1  C3  UNL     1       0.118  19.010  23.850  1.00  0.00     0.255 C 
HETATM    2  N1  UNL     1       1.288  19.855  23.614  1.00  0.00    -0.058 N 
ATOM      3  H11 UNL     1       1.471  20.684  24.178  1.00  0.00     0.278 HD
ATOM      4  H12 UNL     1       1.363  20.444  22.784  1.00  0.00     0.278 HD
HETATM    5  C4  UNL     1       2.075  18.649  23.761  1.00  0.00     0.287 C 
HETATM    6  C5  UNL     1       0.897  17.908  23.227  1.00  0.00     0.040 C 
HETATM    7  N2  UNL     1       0.613  16.868  22.569  1.00  0.00    -0.402 N 
ATOM      8  H21 UNL     1       1.148  16.111  22.141  1.00  0.00     0.155 HD
ATOM      9  H22 UNL     1      -0.193  16.361  22.203  1.00  0.00     0.155 HD
ENDROOT
BRANCH   1  10
HETATM   10  C2  UNL     1      -1.090  19.426  23.119  1.00  0.00     0.002 C 
HETATM   11  C1  UNL     1      -1.466  20.713  23.114  1.00  0.00     0.009 C 
ENDBRANCH   1  10
TORSDOF 1
ENDMDL
MODEL 4
REMARK VINA RESULT: -4.171925479      1.595      2.988
REMARK  1 active torsions:
REMARK  status: ('A' for Active; 'I' for Inactive)
REMARK    1  A    between atoms: C2_2  and  C3_3 
ROOT
HETATM    1  C3  UNL     1       0.495  18.500  23.755  1.00  0.00     0.255 C 
HETATM    2  N1  UNL     1       0.238  17.773  22.513  1.00  0.00    -0.058 N 
ATOM      3  H11 UNL     1       0.296  16.756  22.467  1.00  0.00     0.278 HD
ATOM      4  H12 UNL     1       0.887  17.812  21.727  1.00  0.00     0.278 HD
HETATM    5  C4  UNL     1      -1.034  18.462  22.479  1.00  0.00     0.287 C 
HETATM    6  C5  UNL     1      -0.359  19.581  23.196  1.00  0.00     0.040 C 
HETATM    7  N2  UNL     1      -0.417  20.836  23.323  1.00  0.00    -0.402 N 
ATOM      8  H21 UNL     1      -1.004  21.578  22.939  1.00  0.00     0.155 HD
ATOM      9  H22 UNL     1       0.045  21.602  23.813  1.00  0.00     0.155 HD
ENDROOT
BRANCH   1  10
HETATM   10  C2  UNL     1       1.907  18.855  23.971  1.00  0.00     0.002 C 
HETATM   11  C1  UNL     1       2.714  18.030  24.654  1.00  0.00     0.009 C 
ENDBRANCH   1  10
TORSDOF 1
ENDMDL
MODEL 5
REMARK VINA RESULT: -3.943162507      0.864      1.042
REMARK  1 active torsions:
REMARK  status: ('A' for Active; 'I' for Inactive)
REMARK    1  A    between atoms: C2_2  and  C3_3 
ROOT
HETATM    1  C3  UNL     1      -0.107  18.711  23.191  1.00  0.00     0.255 C 
HETATM    2  N1  UNL     1       0.045  17.665  24.202  1.00  0.00    -0.058 N 
ATOM      3  H11 UNL     1      -0.506  16.808  24.171  1.00  0.00     0.278 HD
ATOM      4  H12 UNL     1      -0.277  17.798  25.161  1.00  0.00     0.278 HD
HETATM    5  C4  UNL     1       1.453  17.674  23.867  1.00  0.00     0.287 C 
HETATM    6  C5  UNL     1       1.284  19.115  23.526  1.00  0.00     0.040 C 
HETATM    7  N2  UNL     1       1.935  20.197  23.503  1.00  0.00    -0.402 N 
ATOM      8  H21 UNL     1       2.890  20.474  23.732  1.00  0.00     0.155 HD
ATOM      9  H22 UNL     1       1.819  21.183  23.269  1.00  0.00     0.155 HD
ENDROOT
BRANCH   1  10
HETATM   10  C2  UNL     1      -1.148  19.706  23.498  1.00  0.00     0.002 C 
HETATM   11  C1  UNL     1      -1.260  20.817  22.756  1.00  0.00     0.009 C 
ENDBRANCH   1  10
TORSDOF 1
ENDMDL
