MODEL 1
REMARK VINA RESULT: -4.309486837      0.000      0.000
REMARK  1 active torsions:
REMARK  status: ('A' for Active; 'I' for Inactive)
REMARK    1  A    between atoms: C2_2  and  C3_3 
ROOT
HETATM    1  C3  UNL     1       0.529  18.114  23.101  1.00  0.00     0.122 C 
HETATM    2  C4  UNL     1       1.752  18.995  23.069  1.00  0.00     0.149 C 
HETATM    3  N1  UNL     1       2.485  18.629  24.252  1.00  0.00    -0.384 N 
ATOM      4  H1  UNL     1       3.287  19.149  24.610  1.00  0.00     0.160 HD
HETATM    5  C5  UNL     1       2.006  17.562  24.808  1.00  0.00     0.171 C 
HETATM    6  N2  UNL     1       0.905  17.106  24.055  1.00  0.00    -0.377 N 
ATOM      7  H2  UNL     1       0.447  16.202  24.169  1.00  0.00     0.161 HD
ENDROOT
BRANCH   1   8
HETATM    8  C2  UNL     1      -0.643  18.871  23.621  1.00  0.00    -0.011 C 
HETATM    9  C1  UNL     1      -1.152  19.925  23.024  1.00  0.00     0.009 C 
ENDBRANCH   1   8
TORSDOF 1
ENDMDL
MODEL 2
REMARK VINA RESULT: -4.091453286      4.272      5.531
REMARK  1 active torsions:
REMARK  status: ('A' for Active; 'I' for Inactive)
REMARK    1  A    between atoms: C2_2  and  C3_3 
ROOT
HETATM    1  C3  UNL     1      -1.495  22.596  22.884  1.00  0.00     0.122 C 
HETATM    2  C4  UNL     1      -2.558  23.586  23.286  1.00  0.00     0.149 C 
HETATM    3  N1  UNL     1      -1.921  24.406  24.283  1.00  0.00    -0.384 N 
ATOM      4  H1  UNL     1      -2.416  25.076  24.872  1.00  0.00     0.160 HD
HETATM    5  C5  UNL     1      -0.645  24.193  24.342  1.00  0.00     0.171 C 
HETATM    6  N2  UNL     1      -0.299  23.210  23.392  1.00  0.00    -0.377 N 
ATOM      7  H2  UNL     1       0.652  22.971  23.111  1.00  0.00     0.161 HD
ENDROOT
BRANCH   1   8
HETATM    8  C2  UNL     1      -1.711  21.293  23.570  1.00  0.00    -0.011 C 
HETATM    9  C1  UNL     1      -1.238  20.149  23.128  1.00  0.00     0.009 C 
ENDBRANCH   1   8
TORSDOF 1
ENDMDL
MODEL 3
REMARK VINA RESULT: -3.969794818      5.200      5.986
REMARK  1 active torsions:
REMARK  status: ('A' for Active; 'I' for Inactive)
REMARK    1  A    between atoms: C2_2  and  C3_3 
ROOT
HETATM    1  C3  UNL     1      -1.753  22.889  23.068  1.00  0.00     0.122 C 
HETATM    2  C4  UNL     1      -2.201  24.311  22.844  1.00  0.00     0.149 C 
HETATM    3  N1  UNL     1      -1.345  25.092  23.696  1.00  0.00    -0.384 N 
ATOM      4  H1  UNL     1      -1.489  26.082  23.897  1.00  0.00     0.160 HD
HETATM    5  C5  UNL     1      -0.368  24.390  24.176  1.00  0.00     0.171 C 
HETATM    6  N2  UNL     1      -0.471  23.069  23.695  1.00  0.00    -0.377 N 
ATOM      7  H2  UNL     1       0.250  22.352  23.779  1.00  0.00     0.161 HD
ENDROOT
BRANCH   1   8
HETATM    8  C2  UNL     1      -2.671  22.197  24.014  1.00  0.00    -0.011 C 
HETATM    9  C1  UNL     1      -3.846  22.670  24.367  1.00  0.00     0.009 C 
ENDBRANCH   1   8
TORSDOF 1
ENDMDL
MODEL 4
REMARK VINA RESULT: -3.917622650      1.520      2.709
REMARK  1 active torsions:
REMARK  status: ('A' for Active; 'I' for Inactive)
REMARK    1  A    between atoms: C2_2  and  C3_3 
ROOT
HETATM    1  C3  UNL     1       0.415  17.991  23.013  1.00  0.00     0.122 C 
HETATM    2  C4  UNL     1      -0.634  19.071  23.069  1.00  0.00     0.149 C 
HETATM    3  N1  UNL     1       0.102  20.266  23.386  1.00  0.00    -0.384 N 
ATOM      4  H1  UNL     1      -0.331  21.151  23.649  1.00  0.00     0.160 HD
HETATM    5  C5  UNL     1       1.382  20.084  23.297  1.00  0.00     0.171 C 
HETATM    6  N2  UNL     1       1.631  18.751  22.912  1.00  0.00    -0.377 N 
ATOM      7  H2  UNL     1       2.533  18.383  22.609  1.00  0.00     0.161 HD
ENDROOT
BRANCH   1   8
HETATM    8  C2  UNL     1       0.426  17.210  24.281  1.00  0.00    -0.011 C 
HETATM    9  C1  UNL     1       1.445  17.183  25.112  1.00  0.00     0.009 C 
ENDBRANCH   1   8
TORSDOF 1
ENDMDL
MODEL 5
REMARK VINA RESULT: -3.893080286      1.738      3.300
REMARK  1 active torsions:
REMARK  status: ('A' for Active; 'I' for Inactive)
REMARK    1  A    between atoms: C2_2  and  C3_3 
ROOT
HETATM    1  C3  UNL     1       0.862  18.797  23.100  1.00  0.00     0.122 C 
HETATM    2  C4  UNL     1      -0.345  18.059  22.582  1.00  0.00     0.149 C 
HETATM    3  N1  UNL     1      -1.460  18.880  22.974  1.00  0.00    -0.384 N 
ATOM      4  H1  UNL     1      -2.435  18.587  22.912  1.00  0.00     0.160 HD
HETATM    5  C5  UNL     1      -1.078  20.036  23.415  1.00  0.00     0.171 C 
HETATM    6  N2  UNL     1       0.329  20.106  23.363  1.00  0.00    -0.377 N 
ATOM      7  H2  UNL     1       0.883  20.954  23.492  1.00  0.00     0.161 HD
ENDROOT
BRANCH   1   8
HETATM    8  C2  UNL     1       1.334  18.192  24.376  1.00  0.00    -0.011 C 
HETATM    9  C1  UNL     1       2.598  17.961  24.649  1.00  0.00     0.009 C 
ENDBRANCH   1   8
TORSDOF 1
ENDMDL
