MODEL 1
REMARK VINA RESULT: -6.425416802      0.000      0.000
REMARK  3 active torsions:
REMARK  status: ('A' for Active; 'I' for Inactive)
REMARK    1  A    between atoms: C2_2  and  O1_3 
REMARK    2  A    between atoms: C2_2  and  N1_5 
REMARK    3  A    between atoms: C3_6  and  N2_7 
ROOT
HETATM    1  N1  UNL     1      -7.291 -27.091  -3.537  1.00  0.00     0.013 N 
HETATM    2  C3  UNL     1      -7.154 -27.609  -4.776  1.00  0.00     0.699 A 
HETATM    3  N3  UNL     1      -6.210 -28.520  -5.078  1.00  0.00    -0.140 N 
ATOM      4  H3  UNL     1      -6.140 -28.888  -6.026  1.00  0.00     0.189 HD
HETATM    5  C4  UNL     1      -5.370 -28.939  -4.136  1.00  0.00     0.360 A 
HETATM    6  O2  UNL     1      -4.493 -29.790  -4.427  1.00  0.00    -0.245 OA
HETATM    7  N4  UNL     1      -5.472 -28.453  -2.902  1.00  0.00    -0.082 N 
HETATM    8  C5  UNL     1      -4.753 -28.718  -1.801  1.00  0.00     0.180 A 
HETATM    9  C6  UNL     1      -3.661 -29.636  -1.729  1.00  0.00     0.122 C 
HETATM   10  N5  UNL     1      -2.783 -30.391  -1.683  1.00  0.00    -0.190 NA
HETATM   11  C7  UNL     1      -5.261 -27.948  -0.773  1.00  0.00     0.168 A 
HETATM   12  C8  UNL     1      -4.762 -27.938   0.587  1.00  0.00     0.121 C 
HETATM   13  N6  UNL     1      -4.362 -27.948   1.677  1.00  0.00    -0.190 NA
HETATM   14  N7  UNL     1      -6.274 -27.245  -1.301  1.00  0.00    -0.177 N 
ATOM     15  H7  UNL     1      -6.852 -26.579  -0.787  1.00  0.00     0.185 HD
HETATM   16  C9  UNL     1      -6.420 -27.545  -2.615  1.00  0.00     0.714 A 
ENDROOT
BRANCH   1  17
HETATM   17  C2  UNL     1      -8.302 -26.114  -3.209  1.00  0.00     0.257 C 
HETATM   18  C1  UNL     1      -7.749 -24.720  -3.089  1.00  0.00     0.064 C 
BRANCH  17  19
HETATM   19  O1  UNL     1      -9.000 -26.486  -2.056  1.00  0.00    -0.375 OA
ATOM     20  H1  UNL     1      -8.572 -27.208  -1.610  1.00  0.00     0.212 HD
ENDBRANCH  17  19
ENDBRANCH   1  17
BRANCH   2  21
HETATM   21  N2  UNL     1      -7.965 -27.206  -5.691  1.00  0.00    -0.234 N 
ATOM     22  H22 UNL     1      -8.381 -26.277  -5.623  1.00  0.00     0.174 HD
ATOM     23  H21 UNL     1      -8.165 -27.841  -6.465  1.00  0.00     0.174 HD
ENDBRANCH   2  21
TORSDOF 3
ENDMDL
MODEL 2
REMARK VINA RESULT: -6.347323440      1.444      1.788
REMARK  3 active torsions:
REMARK  status: ('A' for Active; 'I' for Inactive)
REMARK    1  A    between atoms: C2_2  and  O1_3 
REMARK    2  A    between atoms: C2_2  and  N1_5 
REMARK    3  A    between atoms: C3_6  and  N2_7 
ROOT
HETATM    1  N1  UNL     1      -8.427 -25.999  -3.831  1.00  0.00     0.013 N 
HETATM    2  C3  UNL     1      -8.434 -26.092  -5.177  1.00  0.00     0.699 A 
HETATM    3  N3  UNL     1      -7.517 -26.802  -5.858  1.00  0.00    -0.140 N 
ATOM      4  H3  UNL     1      -7.558 -26.847  -6.876  1.00  0.00     0.189 HD
HETATM    5  C4  UNL     1      -6.556 -27.444  -5.200  1.00  0.00     0.360 A 
HETATM    6  O2  UNL     1      -5.704 -28.105  -5.844  1.00  0.00    -0.245 OA
HETATM    7  N4  UNL     1      -6.513 -27.379  -3.873  1.00  0.00    -0.082 N 
HETATM    8  C5  UNL     1      -5.656 -27.933  -3.002  1.00  0.00     0.180 A 
HETATM    9  C6  UNL     1      -4.543 -28.758  -3.350  1.00  0.00     0.122 C 
HETATM   10  N5  UNL     1      -3.651 -29.434  -3.647  1.00  0.00    -0.190 NA
HETATM   11  C7  UNL     1      -6.048 -27.559  -1.731  1.00  0.00     0.168 A 
HETATM   12  C8  UNL     1      -5.383 -27.947  -0.505  1.00  0.00     0.121 C 
HETATM   13  N6  UNL     1      -4.849 -28.276   0.473  1.00  0.00    -0.190 NA
HETATM   14  N7  UNL     1      -7.135 -26.788  -1.890  1.00  0.00    -0.177 N 
ATOM     15  H7  UNL     1      -7.658 -26.354  -1.128  1.00  0.00     0.185 HD
HETATM   16  C9  UNL     1      -7.438 -26.666  -3.206  1.00  0.00     0.714 A 
ENDROOT
BRANCH   1  17
HETATM   17  C2  UNL     1      -9.410 -25.239  -3.096  1.00  0.00     0.257 C 
HETATM   18  C1  UNL     1      -8.915 -23.876  -2.698  1.00  0.00     0.064 C 
BRANCH  17  19
HETATM   19  O1  UNL     1      -9.871 -25.957  -1.988  1.00  0.00    -0.375 OA
ATOM     20  H1  UNL     1     -10.515 -26.609  -2.241  1.00  0.00     0.212 HD
ENDBRANCH  17  19
ENDBRANCH   1  17
BRANCH   2  21
HETATM   21  N2  UNL     1      -9.363 -25.471  -5.819  1.00  0.00    -0.234 N 
ATOM     22  H22 UNL     1      -9.115 -24.719  -6.462  1.00  0.00     0.174 HD
ATOM     23  H21 UNL     1     -10.329 -25.758  -5.658  1.00  0.00     0.174 HD
ENDBRANCH   2  21
TORSDOF 3
ENDMDL
MODEL 3
REMARK VINA RESULT: -6.300067875      4.845      8.020
REMARK  3 active torsions:
REMARK  status: ('A' for Active; 'I' for Inactive)
REMARK    1  A    between atoms: C2_2  and  O1_3 
REMARK    2  A    between atoms: C2_2  and  N1_5 
REMARK    3  A    between atoms: C3_6  and  N2_7 
ROOT
HETATM    1  N1  UNL     1      -9.871 -26.367  -4.599  1.00  0.00     0.013 N 
HETATM    2  C3  UNL     1      -9.819 -25.840  -3.358  1.00  0.00     0.699 A 
HETATM    3  N3  UNL     1     -10.876 -25.841  -2.527  1.00  0.00    -0.140 N 
ATOM      4  H3  UNL     1     -10.795 -25.433  -1.595  1.00  0.00     0.189 HD
HETATM    5  C4  UNL     1     -12.028 -26.375  -2.922  1.00  0.00     0.360 A 
HETATM    6  O2  UNL     1     -13.010 -26.372  -2.140  1.00  0.00    -0.245 OA
HETATM    7  N4  UNL     1     -12.122 -26.905  -4.139  1.00  0.00    -0.082 N 
HETATM    8  C5  UNL     1     -13.160 -27.493  -4.753  1.00  0.00     0.180 A 
HETATM    9  C6  UNL     1     -14.457 -27.679  -4.186  1.00  0.00     0.122 C 
HETATM   10  N5  UNL     1     -15.502 -27.833  -3.710  1.00  0.00    -0.190 NA
HETATM   11  C7  UNL     1     -12.740 -27.874  -6.013  1.00  0.00     0.168 A 
HETATM   12  C8  UNL     1     -13.562 -28.544  -6.999  1.00  0.00     0.121 C 
HETATM   13  N6  UNL     1     -14.227 -29.093  -7.777  1.00  0.00    -0.190 NA
HETATM   14  N7  UNL     1     -11.456 -27.497  -6.107  1.00  0.00    -0.177 N 
ATOM     15  H7  UNL     1     -10.864 -27.640  -6.926  1.00  0.00     0.185 HD
HETATM   16  C9  UNL     1     -11.056 -26.897  -4.958  1.00  0.00     0.714 A 
ENDROOT
BRANCH   1  17
HETATM   17  C2  UNL     1      -8.738 -26.368  -5.495  1.00  0.00     0.257 C 
HETATM   18  C1  UNL     1      -8.808 -25.274  -6.525  1.00  0.00     0.064 C 
BRANCH  17  19
HETATM   19  O1  UNL     1      -8.576 -27.621  -6.092  1.00  0.00    -0.375 OA
ATOM     20  H1  UNL     1      -9.061 -27.682  -6.908  1.00  0.00     0.212 HD
ENDBRANCH  17  19
ENDBRANCH   1  17
BRANCH   2  21
HETATM   21  N2  UNL     1      -8.705 -25.321  -2.970  1.00  0.00    -0.234 N 
ATOM     22  H22 UNL     1      -7.839 -25.850  -3.075  1.00  0.00     0.174 HD
ATOM     23  H21 UNL     1      -8.730 -24.384  -2.567  1.00  0.00     0.174 HD
ENDBRANCH   2  21
TORSDOF 3
ENDMDL
MODEL 4
REMARK VINA RESULT: -6.110252842      4.840      6.772
REMARK  3 active torsions:
REMARK  status: ('A' for Active; 'I' for Inactive)
REMARK    1  A    between atoms: C2_2  and  O1_3 
REMARK    2  A    between atoms: C2_2  and  N1_5 
REMARK    3  A    between atoms: C3_6  and  N2_7 
ROOT
HETATM    1  N1  UNL     1      -9.311 -25.313  -3.881  1.00  0.00     0.013 N 
HETATM    2  C3  UNL     1      -8.615 -25.657  -4.984  1.00  0.00     0.699 A 
HETATM    3  N3  UNL     1      -9.134 -26.430  -5.956  1.00  0.00    -0.140 N 
ATOM      4  H3  UNL     1      -8.575 -26.667  -6.775  1.00  0.00     0.189 HD
HETATM    5  C4  UNL     1     -10.380 -26.883  -5.845  1.00  0.00     0.360 A 
HETATM    6  O2  UNL     1     -10.857 -27.603  -6.756  1.00  0.00    -0.245 OA
HETATM    7  N4  UNL     1     -11.100 -26.566  -4.773  1.00  0.00    -0.082 N 
HETATM    8  C5  UNL     1     -12.358 -26.896  -4.441  1.00  0.00     0.180 A 
HETATM    9  C6  UNL     1     -13.232 -27.709  -5.226  1.00  0.00     0.122 C 
HETATM   10  N5  UNL     1     -13.933 -28.361  -5.878  1.00  0.00    -0.190 NA
HETATM   11  C7  UNL     1     -12.637 -26.312  -3.221  1.00  0.00     0.168 A 
HETATM   12  C8  UNL     1     -13.894 -26.425  -2.511  1.00  0.00     0.121 C 
HETATM   13  N6  UNL     1     -14.911 -26.513  -1.956  1.00  0.00    -0.190 NA
HETATM   14  N7  UNL     1     -11.527 -25.648  -2.864  1.00  0.00    -0.177 N 
ATOM     15  H7  UNL     1     -11.421 -25.111  -2.003  1.00  0.00     0.185 HD
HETATM   16  C9  UNL     1     -10.568 -25.793  -3.811  1.00  0.00     0.714 A 
ENDROOT
BRANCH   1  17
HETATM   17  C2  UNL     1      -8.757 -24.484  -2.836  1.00  0.00     0.257 C 
HETATM   18  C1  UNL     1      -8.662 -23.035  -3.230  1.00  0.00     0.064 C 
BRANCH  17  19
HETATM   19  O1  UNL     1      -7.520 -24.978  -2.410  1.00  0.00    -0.375 OA
ATOM     20  H1  UNL     1      -7.398 -25.883  -2.676  1.00  0.00     0.212 HD
ENDBRANCH  17  19
ENDBRANCH   1  17
BRANCH   2  21
HETATM   21  N2  UNL     1      -7.408 -25.221  -5.096  1.00  0.00    -0.234 N 
ATOM     22  H22 UNL     1      -7.229 -24.361  -5.614  1.00  0.00     0.174 HD
ATOM     23  H21 UNL     1      -6.662 -25.760  -4.654  1.00  0.00     0.174 HD
ENDBRANCH   2  21
TORSDOF 3
ENDMDL
MODEL 5
REMARK VINA RESULT: -6.090878868      1.709      4.603
REMARK  3 active torsions:
REMARK  status: ('A' for Active; 'I' for Inactive)
REMARK    1  A    between atoms: C2_2  and  O1_3 
REMARK    2  A    between atoms: C2_2  and  N1_5 
REMARK    3  A    between atoms: C3_6  and  N2_7 
ROOT
HETATM    1  N1  UNL     1      -4.636 -28.221  -1.189  1.00  0.00     0.013 N 
HETATM    2  C3  UNL     1      -3.769 -29.058  -1.796  1.00  0.00     0.699 A 
HETATM    3  N3  UNL     1      -3.895 -29.420  -3.086  1.00  0.00    -0.140 N 
ATOM      4  H3  UNL     1      -3.217 -30.054  -3.508  1.00  0.00     0.189 HD
HETATM    5  C4  UNL     1      -4.906 -28.947  -3.809  1.00  0.00     0.360 A 
HETATM    6  O2  UNL     1      -5.016 -29.289  -5.012  1.00  0.00    -0.245 OA
HETATM    7  N4  UNL     1      -5.783 -28.119  -3.249  1.00  0.00    -0.082 N 
HETATM    8  C5  UNL     1      -6.867 -27.519  -3.766  1.00  0.00     0.180 A 
HETATM    9  C6  UNL     1      -7.326 -27.661  -5.111  1.00  0.00     0.122 C 
HETATM   10  N5  UNL     1      -7.680 -27.778  -6.207  1.00  0.00    -0.190 NA
HETATM   11  C7  UNL     1      -7.440 -26.756  -2.767  1.00  0.00     0.168 A 
HETATM   12  C8  UNL     1      -8.634 -25.950  -2.915  1.00  0.00     0.121 C 
HETATM   13  N6  UNL     1      -9.585 -25.297  -3.050  1.00  0.00    -0.190 NA
HETATM   14  N7  UNL     1      -6.673 -26.929  -1.680  1.00  0.00    -0.177 N 
ATOM     15  H7  UNL     1      -6.840 -26.492  -0.773  1.00  0.00     0.185 HD
HETATM   16  C9  UNL     1      -5.644 -27.766  -1.959  1.00  0.00     0.714 A 
ENDROOT
BRANCH   1  17
HETATM   17  C2  UNL     1      -4.504 -27.831   0.195  1.00  0.00     0.257 C 
HETATM   18  C1  UNL     1      -5.583 -28.409   1.070  1.00  0.00     0.064 C 
BRANCH  17  19
HETATM   19  O1  UNL     1      -4.441 -26.439   0.317  1.00  0.00    -0.375 OA
ATOM     20  H1  UNL     1      -4.347 -26.175   1.226  1.00  0.00     0.212 HD
ENDBRANCH  17  19
ENDBRANCH   1  17
BRANCH   2  21
HETATM   21  N2  UNL     1      -2.789 -29.519  -1.099  1.00  0.00    -0.234 N 
ATOM     22  H22 UNL     1      -1.847 -29.159  -1.254  1.00  0.00     0.174 HD
ATOM     23  H21 UNL     1      -2.993 -30.240  -0.406  1.00  0.00     0.174 HD
ENDBRANCH   2  21
TORSDOF 3
ENDMDL
