MODEL 1
REMARK VINA RESULT: -6.824613503      0.000      0.000
REMARK  3 active torsions:
REMARK  status: ('A' for Active; 'I' for Inactive)
REMARK    1  A    between atoms: N1_1  and  N2_4 
REMARK    2  A    between atoms: N2_4  and  C1_6 
REMARK    3  A    between atoms: C4_14  and  N5_15 
ROOT
HETATM    1  C1  UNL     1     -13.809 -28.047  -2.745  1.00  0.00     0.700 A 
HETATM    2  N3  UNL     1     -14.074 -28.319  -4.023  1.00  0.00    -0.153 N 
ATOM      3  H3  UNL     1     -14.896 -28.891  -4.216  1.00  0.00     0.187 HD
HETATM    4  C2  UNL     1     -13.368 -27.914  -5.064  1.00  0.00     0.289 A 
HETATM    5  O1  UNL     1     -13.738 -28.249  -6.220  1.00  0.00    -0.265 OA
HETATM    6  C3  UNL     1     -12.226 -27.123  -4.851  1.00  0.00     0.138 A 
HETATM    7  N4  UNL     1     -11.429 -26.647  -5.770  1.00  0.00    -0.325 N 
ATOM      8  H4  UNL     1     -11.611 -26.844  -6.755  1.00  0.00     0.168 HD
HETATM    9  C4  UNL     1     -10.388 -25.913  -5.424  1.00  0.00     0.218 A 
HETATM   10  S1  UNL     1     -10.518 -25.879  -3.724  1.00  0.00    -0.027 SA
HETATM   11  C5  UNL     1     -11.945 -26.837  -3.548  1.00  0.00     0.126 A 
HETATM   12  N6  UNL     1     -12.713 -27.284  -2.511  1.00  0.00    -0.181 N 
ATOM     13  H6  UNL     1     -12.460 -27.042  -1.553  1.00  0.00     0.185 HD
ENDROOT
BRANCH   1  14
HETATM   14  N2  UNL     1     -14.509 -28.451  -1.750  1.00  0.00    -0.138 N 
ATOM     15  H2  UNL     1     -15.501 -28.218  -1.711  1.00  0.00     0.205 HD
BRANCH  14  16
HETATM   16  N1  UNL     1     -13.947 -29.198  -0.728  1.00  0.00    -0.331 N 
ATOM     17  H12 UNL     1     -13.036 -29.628  -0.888  1.00  0.00     0.177 HD
ATOM     18  H11 UNL     1     -14.424 -29.320   0.165  1.00  0.00     0.177 HD
ENDBRANCH  14  16
ENDBRANCH   1  14
BRANCH   9  19
HETATM   19  N5  UNL     1      -9.396 -25.298  -6.252  1.00  0.00    -0.090 N 
HETATM   20  O2  UNL     1      -9.532 -24.152  -6.689  1.00  0.00    -0.530 OA
HETATM   21  O3  UNL     1      -8.282 -26.004  -6.559  1.00  0.00    -0.530 OA
ENDBRANCH   9  19
TORSDOF 3
ENDMDL
MODEL 2
REMARK VINA RESULT: -6.813940349      2.069      2.333
REMARK  3 active torsions:
REMARK  status: ('A' for Active; 'I' for Inactive)
REMARK    1  A    between atoms: N1_1  and  N2_4 
REMARK    2  A    between atoms: N2_4  and  C1_6 
REMARK    3  A    between atoms: C4_14  and  N5_15 
ROOT
HETATM    1  C1  UNL     1     -14.740 -27.746  -1.372  1.00  0.00     0.700 A 
HETATM    2  N3  UNL     1     -14.955 -26.487  -1.756  1.00  0.00    -0.153 N 
ATOM      3  H3  UNL     1     -15.787 -26.026  -1.389  1.00  0.00     0.187 HD
HETATM    4  C2  UNL     1     -14.187 -25.784  -2.568  1.00  0.00     0.289 A 
HETATM    5  O1  UNL     1     -14.515 -24.599  -2.844  1.00  0.00    -0.265 OA
HETATM    6  C3  UNL     1     -13.029 -26.375  -3.101  1.00  0.00     0.138 A 
HETATM    7  N4  UNL     1     -12.174 -25.813  -3.913  1.00  0.00    -0.325 N 
ATOM      8  H4  UNL     1     -12.318 -24.852  -4.221  1.00  0.00     0.168 HD
HETATM    9  C4  UNL     1     -11.122 -26.492  -4.335  1.00  0.00     0.218 A 
HETATM   10  S1  UNL     1     -11.330 -27.999  -3.563  1.00  0.00    -0.027 SA
HETATM   11  C5  UNL     1     -12.798 -27.663  -2.716  1.00  0.00     0.126 A 
HETATM   12  N6  UNL     1     -13.628 -28.341  -1.871  1.00  0.00    -0.181 N 
ATOM     13  H6  UNL     1     -13.410 -29.304  -1.612  1.00  0.00     0.185 HD
ENDROOT
BRANCH   1  14
HETATM   14  N2  UNL     1     -15.500 -28.411  -0.582  1.00  0.00    -0.138 N 
ATOM     15  H2  UNL     1     -16.497 -28.203  -0.558  1.00  0.00     0.205 HD
BRANCH  14  16
HETATM   16  N1  UNL     1     -14.995 -29.405   0.239  1.00  0.00    -0.331 N 
ATOM     17  H12 UNL     1     -14.908 -29.210   1.237  1.00  0.00     0.177 HD
ATOM     18  H11 UNL     1     -14.714 -30.312  -0.134  1.00  0.00     0.177 HD
ENDBRANCH  14  16
ENDBRANCH   1  14
BRANCH   9  19
HETATM   19  N5  UNL     1     -10.071 -26.081  -5.215  1.00  0.00    -0.090 N 
HETATM   20  O2  UNL     1     -10.294 -25.411  -6.227  1.00  0.00    -0.530 OA
HETATM   21  O3  UNL     1      -8.801 -26.445  -4.919  1.00  0.00    -0.530 OA
ENDBRANCH   9  19
TORSDOF 3
ENDMDL
MODEL 3
REMARK VINA RESULT: -6.370729566      1.461      1.510
REMARK  3 active torsions:
REMARK  status: ('A' for Active; 'I' for Inactive)
REMARK    1  A    between atoms: N1_1  and  N2_4 
REMARK    2  A    between atoms: N2_4  and  C1_6 
REMARK    3  A    between atoms: C4_14  and  N5_15 
ROOT
HETATM    1  C1  UNL     1     -13.385 -26.846  -2.889  1.00  0.00     0.700 A 
HETATM    2  N3  UNL     1     -13.849 -27.366  -4.026  1.00  0.00    -0.153 N 
ATOM      3  H3  UNL     1     -14.839 -27.608  -4.056  1.00  0.00     0.187 HD
HETATM    4  C2  UNL     1     -13.142 -27.596  -5.117  1.00  0.00     0.289 A 
HETATM    5  O1  UNL     1     -13.715 -28.093  -6.123  1.00  0.00    -0.265 OA
HETATM    6  C3  UNL     1     -11.773 -27.279  -5.127  1.00  0.00     0.138 A 
HETATM    7  N4  UNL     1     -10.944 -27.446  -6.122  1.00  0.00    -0.325 N 
ATOM      8  H4  UNL     1     -11.276 -27.844  -7.001  1.00  0.00     0.168 HD
HETATM    9  C4  UNL     1      -9.676 -27.101  -5.990  1.00  0.00     0.218 A 
HETATM   10  S1  UNL     1      -9.627 -26.511  -4.391  1.00  0.00    -0.027 SA
HETATM   11  C5  UNL     1     -11.286 -26.747  -3.969  1.00  0.00     0.126 A 
HETATM   12  N6  UNL     1     -12.067 -26.530  -2.870  1.00  0.00    -0.181 N 
ATOM     13  H6  UNL     1     -11.654 -26.128  -2.028  1.00  0.00     0.185 HD
ENDROOT
BRANCH   1  14
HETATM   14  N2  UNL     1     -14.091 -26.631  -1.840  1.00  0.00    -0.138 N 
ATOM     15  H2  UNL     1     -14.459 -25.696  -1.670  1.00  0.00     0.205 HD
BRANCH  14  16
HETATM   16  N1  UNL     1     -14.363 -27.642  -0.933  1.00  0.00    -0.331 N 
ATOM     17  H12 UNL     1     -13.701 -28.415  -0.859  1.00  0.00     0.177 HD
ATOM     18  H11 UNL     1     -15.200 -27.623  -0.351  1.00  0.00     0.177 HD
ENDBRANCH  14  16
ENDBRANCH   1  14
BRANCH   9  19
HETATM   19  N5  UNL     1      -8.607 -27.194  -6.936  1.00  0.00    -0.090 N 
HETATM   20  O2  UNL     1      -8.769 -26.925  -8.130  1.00  0.00    -0.530 OA
HETATM   21  O3  UNL     1      -7.389 -27.590  -6.499  1.00  0.00    -0.530 OA
ENDBRANCH   9  19
TORSDOF 3
ENDMDL
MODEL 4
REMARK VINA RESULT: -6.190103618      2.620      5.328
REMARK  3 active torsions:
REMARK  status: ('A' for Active; 'I' for Inactive)
REMARK    1  A    between atoms: N1_1  and  N2_4 
REMARK    2  A    between atoms: N2_4  and  C1_6 
REMARK    3  A    between atoms: C4_14  and  N5_15 
ROOT
HETATM    1  C1  UNL     1      -8.285 -25.465  -3.035  1.00  0.00     0.700 A 
HETATM    2  N3  UNL     1      -8.002 -26.382  -3.961  1.00  0.00    -0.153 N 
ATOM      3  H3  UNL     1      -7.020 -26.503  -4.209  1.00  0.00     0.187 HD
HETATM    4  C2  UNL     1      -8.877 -27.149  -4.585  1.00  0.00     0.289 A 
HETATM    5  O1  UNL     1      -8.464 -27.976  -5.440  1.00  0.00    -0.265 OA
HETATM    6  C3  UNL     1     -10.242 -27.020  -4.278  1.00  0.00     0.138 A 
HETATM    7  N4  UNL     1     -11.224 -27.701  -4.805  1.00  0.00    -0.325 N 
ATOM      8  H4  UNL     1     -11.032 -28.407  -5.516  1.00  0.00     0.168 HD
HETATM    9  C4  UNL     1     -12.466 -27.475  -4.418  1.00  0.00     0.218 A 
HETATM   10  S1  UNL     1     -12.264 -26.244  -3.255  1.00  0.00    -0.027 SA
HETATM   11  C5  UNL     1     -10.546 -26.085  -3.332  1.00  0.00     0.126 A 
HETATM   12  N6  UNL     1      -9.595 -25.320  -2.719  1.00  0.00    -0.181 N 
ATOM     13  H6  UNL     1      -9.874 -24.634  -2.017  1.00  0.00     0.185 HD
ENDROOT
BRANCH   1  14
HETATM   14  N2  UNL     1      -7.417 -24.731  -2.442  1.00  0.00    -0.138 N 
ATOM     15  H2  UNL     1      -7.730 -23.912  -1.921  1.00  0.00     0.205 HD
BRANCH  14  16
HETATM   16  N1  UNL     1      -6.065 -25.025  -2.493  1.00  0.00    -0.331 N 
ATOM     17  H12 UNL     1      -5.423 -24.293  -2.798  1.00  0.00     0.177 HD
ATOM     18  H11 UNL     1      -5.711 -25.946  -2.236  1.00  0.00     0.177 HD
ENDBRANCH  14  16
ENDBRANCH   1  14
BRANCH   9  19
HETATM   19  N5  UNL     1     -13.680 -28.095  -4.854  1.00  0.00    -0.090 N 
HETATM   20  O2  UNL     1     -13.942 -28.242  -6.051  1.00  0.00    -0.530 OA
HETATM   21  O3  UNL     1     -14.558 -28.527  -3.918  1.00  0.00    -0.530 OA
ENDBRANCH   9  19
TORSDOF 3
ENDMDL
MODEL 5
REMARK VINA RESULT: -6.153629335      3.134      5.361
REMARK  3 active torsions:
REMARK  status: ('A' for Active; 'I' for Inactive)
REMARK    1  A    between atoms: N1_1  and  N2_4 
REMARK    2  A    between atoms: N2_4  and  C1_6 
REMARK    3  A    between atoms: C4_14  and  N5_15 
ROOT
HETATM    1  C1  UNL     1      -9.454 -27.409  -4.922  1.00  0.00     0.700 A 
HETATM    2  N3  UNL     1      -9.176 -26.412  -4.082  1.00  0.00    -0.153 N 
ATOM      3  H3  UNL     1      -8.192 -26.183  -3.941  1.00  0.00     0.187 HD
HETATM    4  C2  UNL     1     -10.060 -25.692  -3.415  1.00  0.00     0.289 A 
HETATM    5  O1  UNL     1      -9.652 -24.776  -2.652  1.00  0.00    -0.265 OA
HETATM    6  C3  UNL     1     -11.429 -25.967  -3.574  1.00  0.00     0.138 A 
HETATM    7  N4  UNL     1     -12.419 -25.349  -2.988  1.00  0.00    -0.325 N 
ATOM      8  H4  UNL     1     -12.231 -24.584  -2.340  1.00  0.00     0.168 HD
HETATM    9  C4  UNL     1     -13.664 -25.715  -3.235  1.00  0.00     0.218 A 
HETATM   10  S1  UNL     1     -13.452 -26.994  -4.343  1.00  0.00    -0.027 SA
HETATM   11  C5  UNL     1     -11.727 -26.986  -4.432  1.00  0.00     0.126 A 
HETATM   12  N6  UNL     1     -10.768 -27.696  -5.095  1.00  0.00    -0.181 N 
ATOM     13  H6  UNL     1     -11.043 -28.449  -5.727  1.00  0.00     0.185 HD
ENDROOT
BRANCH   1  14
HETATM   14  N2  UNL     1      -8.578 -28.095  -5.559  1.00  0.00    -0.138 N 
ATOM     15  H2  UNL     1      -8.235 -27.754  -6.456  1.00  0.00     0.205 HD
BRANCH  14  16
HETATM   16  N1  UNL     1      -8.090 -29.289  -5.055  1.00  0.00    -0.331 N 
ATOM     17  H12 UNL     1      -8.339 -29.549  -4.101  1.00  0.00     0.177 HD
ATOM     18  H11 UNL     1      -7.495 -29.899  -5.616  1.00  0.00     0.177 HD
ENDBRANCH  14  16
ENDBRANCH   1  14
BRANCH   9  19
HETATM   19  N5  UNL     1     -14.886 -25.185  -2.712  1.00  0.00    -0.090 N 
HETATM   20  O2  UNL     1     -15.386 -24.146  -3.152  1.00  0.00    -0.530 OA
HETATM   21  O3  UNL     1     -15.501 -25.850  -1.705  1.00  0.00    -0.530 OA
ENDBRANCH   9  19
TORSDOF 3
ENDMDL
