MODEL 1
REMARK VINA RESULT: -5.581702621      0.000      0.000
REMARK  3 active torsions:
REMARK  status: ('A' for Active; 'I' for Inactive)
REMARK    1  A    between atoms: N1_2  and  C3_4 
REMARK    2  A    between atoms: C4_7  and  N3_8 
REMARK    3  A    between atoms: C9_17  and  N6_18 
ROOT
HETATM    1  C3  UNL     1      -8.036 -25.994  -3.197  1.00  0.00     0.684 A 
HETATM    2  N2  UNL     1      -7.432 -26.454  -2.083  1.00  0.00    -0.174 N 
ATOM      3  H2  UNL     1      -7.815 -26.188  -1.176  1.00  0.00     0.186 HD
HETATM    4  C4  UNL     1      -6.355 -27.243  -2.115  1.00  0.00     0.146 A 
HETATM    5  C5  UNL     1      -5.877 -27.574  -3.379  1.00  0.00     0.140 A 
HETATM    6  C6  UNL     1      -6.504 -27.098  -4.539  1.00  0.00     0.172 A 
HETATM    7  N4  UNL     1      -7.572 -26.316  -4.445  1.00  0.00    -0.169 N 
HETATM    8  C7  UNL     1      -8.244 -25.813  -5.602  1.00  0.00     0.177 C 
HETATM    9  N5  UNL     1      -5.848 -27.562  -5.629  1.00  0.00    -0.170 N 
HETATM   10  C8  UNL     1      -6.140 -27.324  -7.009  1.00  0.00     0.177 C 
HETATM   11  C9  UNL     1      -4.832 -28.314  -5.135  1.00  0.00     0.681 A 
HETATM   12  N7  UNL     1      -4.853 -28.318  -3.810  1.00  0.00    -0.180 N 
HETATM   13  C10 UNL     1      -3.945 -28.997  -2.908  1.00  0.00     0.176 C 
ENDROOT
BRANCH   1  14
HETATM   14  N1  UNL     1      -9.171 -25.163  -3.061  1.00  0.00    -0.226 N 
HETATM   15  C1  UNL     1     -10.487 -25.721  -3.133  1.00  0.00     0.168 C 
HETATM   16  C2  UNL     1      -9.017 -23.757  -2.844  1.00  0.00     0.168 C 
ENDBRANCH   1  14
BRANCH   4  17
HETATM   17  N3  UNL     1      -5.728 -27.717  -1.105  1.00  0.00    -0.383 N 
ATOM     18  H32 UNL     1      -6.155 -27.593  -0.188  1.00  0.00     0.157 HD
ATOM     19  H31 UNL     1      -4.836 -28.213  -1.122  1.00  0.00     0.157 HD
ENDBRANCH   4  17
BRANCH  11  20
HETATM   20  N6  UNL     1      -3.986 -28.921  -5.930  1.00  0.00    -0.234 N 
ATOM     21  H62 UNL     1      -2.999 -28.711  -6.075  1.00  0.00     0.174 HD
ATOM     22  H61 UNL     1      -4.275 -29.710  -6.508  1.00  0.00     0.174 HD
ENDBRANCH  11  20
TORSDOF 3
ENDMDL
MODEL 2
REMARK VINA RESULT: -5.470112998      1.214      1.512
REMARK  3 active torsions:
REMARK  status: ('A' for Active; 'I' for Inactive)
REMARK    1  A    between atoms: N1_2  and  C3_4 
REMARK    2  A    between atoms: C4_7  and  N3_8 
REMARK    3  A    between atoms: C9_17  and  N6_18 
ROOT
HETATM    1  C3  UNL     1      -7.089 -26.479  -2.897  1.00  0.00     0.684 A 
HETATM    2  N2  UNL     1      -6.681 -26.997  -1.722  1.00  0.00    -0.174 N 
ATOM      3  H2  UNL     1      -7.159 -26.706  -0.869  1.00  0.00     0.186 HD
HETATM    4  C4  UNL     1      -5.680 -27.875  -1.624  1.00  0.00     0.146 A 
HETATM    5  C5  UNL     1      -5.064 -28.237  -2.818  1.00  0.00     0.140 A 
HETATM    6  C6  UNL     1      -5.488 -27.700  -4.043  1.00  0.00     0.172 A 
HETATM    7  N4  UNL     1      -6.489 -26.830  -4.078  1.00  0.00    -0.169 N 
HETATM    8  C7  UNL     1      -6.955 -26.264  -5.305  1.00  0.00     0.177 C 
HETATM    9  N5  UNL     1      -4.731 -28.211  -5.044  1.00  0.00    -0.170 N 
HETATM   10  C8  UNL     1      -4.814 -27.939  -6.446  1.00  0.00     0.177 C 
HETATM   11  C9  UNL     1      -3.857 -29.050  -4.433  1.00  0.00     0.681 A 
HETATM   12  N7  UNL     1      -4.058 -29.062  -3.123  1.00  0.00    -0.180 N 
HETATM   13  C10 UNL     1      -3.339 -29.823  -2.120  1.00  0.00     0.176 C 
ENDROOT
BRANCH   1  14
HETATM   14  N1  UNL     1      -8.158 -25.556  -2.899  1.00  0.00    -0.226 N 
HETATM   15  C1  UNL     1      -7.899 -24.149  -2.881  1.00  0.00     0.168 C 
HETATM   16  C2  UNL     1      -9.513 -26.019  -2.923  1.00  0.00     0.168 C 
ENDBRANCH   1  14
BRANCH   4  17
HETATM   17  N3  UNL     1      -5.236 -28.408  -0.548  1.00  0.00    -0.383 N 
ATOM     18  H32 UNL     1      -5.892 -28.519   0.225  1.00  0.00     0.157 HD
ATOM     19  H31 UNL     1      -4.285 -28.739  -0.381  1.00  0.00     0.157 HD
ENDBRANCH   4  17
BRANCH  11  20
HETATM   20  N6  UNL     1      -2.966 -29.721  -5.119  1.00  0.00    -0.234 N 
ATOM     21  H62 UNL     1      -2.616 -30.663  -4.942  1.00  0.00     0.174 HD
ATOM     22  H61 UNL     1      -2.520 -29.320  -5.944  1.00  0.00     0.174 HD
ENDBRANCH  11  20
TORSDOF 3
ENDMDL
MODEL 3
REMARK VINA RESULT: -5.176513589      1.493      4.200
REMARK  3 active torsions:
REMARK  status: ('A' for Active; 'I' for Inactive)
REMARK    1  A    between atoms: N1_2  and  C3_4 
REMARK    2  A    between atoms: C4_7  and  N3_8 
REMARK    3  A    between atoms: C9_17  and  N6_18 
ROOT
HETATM    1  C3  UNL     1      -6.190 -27.411  -2.386  1.00  0.00     0.684 A 
HETATM    2  N2  UNL     1      -7.363 -26.949  -1.911  1.00  0.00    -0.174 N 
ATOM      3  H2  UNL     1      -7.498 -26.909  -0.901  1.00  0.00     0.186 HD
HETATM    4  C4  UNL     1      -8.357 -26.542  -2.704  1.00  0.00     0.146 A 
HETATM    5  C5  UNL     1      -8.119 -26.619  -4.073  1.00  0.00     0.140 A 
HETATM    6  C6  UNL     1      -6.898 -27.097  -4.569  1.00  0.00     0.172 A 
HETATM    7  N4  UNL     1      -5.946 -27.489  -3.732  1.00  0.00    -0.169 N 
HETATM    8  C7  UNL     1      -4.686 -27.978  -4.197  1.00  0.00     0.177 C 
HETATM    9  N5  UNL     1      -6.921 -27.070  -5.923  1.00  0.00    -0.170 N 
HETATM   10  C8  UNL     1      -5.894 -27.469  -6.837  1.00  0.00     0.177 C 
HETATM   11  C9  UNL     1      -8.144 -26.578  -6.246  1.00  0.00     0.681 A 
HETATM   12  N7  UNL     1      -8.845 -26.314  -5.152  1.00  0.00    -0.180 N 
HETATM   13  C10 UNL     1     -10.190 -25.780  -5.066  1.00  0.00     0.176 C 
ENDROOT
BRANCH   1  14
HETATM   14  N1  UNL     1      -5.198 -27.820  -1.467  1.00  0.00    -0.226 N 
HETATM   15  C1  UNL     1      -4.145 -26.925  -1.095  1.00  0.00     0.168 C 
HETATM   16  C2  UNL     1      -5.238 -29.131  -0.894  1.00  0.00     0.168 C 
ENDBRANCH   1  14
BRANCH   4  17
HETATM   17  N3  UNL     1      -9.497 -26.094  -2.329  1.00  0.00    -0.383 N 
ATOM     18  H32 UNL     1      -9.501 -25.344  -1.639  1.00  0.00     0.157 HD
ATOM     19  H31 UNL     1     -10.411 -26.412  -2.652  1.00  0.00     0.157 HD
ENDBRANCH   4  17
BRANCH  11  20
HETATM   20  N6  UNL     1      -8.506 -26.418  -7.494  1.00  0.00    -0.234 N 
ATOM     21  H62 UNL     1      -7.977 -26.645  -8.336  1.00  0.00     0.174 HD
ATOM     22  H61 UNL     1      -9.414 -26.022  -7.736  1.00  0.00     0.174 HD
ENDBRANCH  11  20
TORSDOF 3
ENDMDL
MODEL 4
REMARK VINA RESULT: -5.154723082      3.151      3.712
REMARK  3 active torsions:
REMARK  status: ('A' for Active; 'I' for Inactive)
REMARK    1  A    between atoms: N1_2  and  C3_4 
REMARK    2  A    between atoms: C4_7  and  N3_8 
REMARK    3  A    between atoms: C9_17  and  N6_18 
ROOT
HETATM    1  C3  UNL     1     -10.815 -26.151  -3.944  1.00  0.00     0.684 A 
HETATM    2  N2  UNL     1     -10.226 -25.399  -2.994  1.00  0.00    -0.174 N 
ATOM      3  H2  UNL     1     -10.729 -25.234  -2.122  1.00  0.00     0.186 HD
HETATM    4  C4  UNL     1      -9.015 -24.858  -3.144  1.00  0.00     0.146 A 
HETATM    5  C5  UNL     1      -8.374 -25.115  -4.352  1.00  0.00     0.140 A 
HETATM    6  C6  UNL     1      -8.984 -25.900  -5.342  1.00  0.00     0.172 A 
HETATM    7  N4  UNL     1     -10.192 -26.410  -5.137  1.00  0.00    -0.169 N 
HETATM    8  C7  UNL     1     -10.846 -27.219  -6.117  1.00  0.00     0.177 C 
HETATM    9  N5  UNL     1      -8.159 -25.996  -6.411  1.00  0.00    -0.170 N 
HETATM   10  C8  UNL     1      -8.378 -26.695  -7.641  1.00  0.00     0.177 C 
HETATM   11  C9  UNL     1      -7.058 -25.278  -6.074  1.00  0.00     0.681 A 
HETATM   12  N7  UNL     1      -7.190 -24.762  -4.860  1.00  0.00    -0.180 N 
HETATM   13  C10 UNL     1      -6.243 -23.936  -4.137  1.00  0.00     0.176 C 
ENDROOT
BRANCH   1  14
HETATM   14  N1  UNL     1     -12.101 -26.680  -3.693  1.00  0.00    -0.226 N 
HETATM   15  C1  UNL     1     -12.268 -28.074  -3.417  1.00  0.00     0.168 C 
HETATM   16  C2  UNL     1     -13.249 -25.826  -3.708  1.00  0.00     0.168 C 
ENDBRANCH   1  14
BRANCH   4  17
HETATM   17  N3  UNL     1      -8.392 -24.134  -2.291  1.00  0.00    -0.383 N 
ATOM     18  H32 UNL     1      -8.914 -23.378  -1.849  1.00  0.00     0.157 HD
ATOM     19  H31 UNL     1      -7.419 -24.235  -2.003  1.00  0.00     0.157 HD
ENDBRANCH   4  17
BRANCH  11  20
HETATM   20  N6  UNL     1      -6.044 -25.159  -6.895  1.00  0.00    -0.234 N 
ATOM     21  H62 UNL     1      -5.056 -25.316  -6.700  1.00  0.00     0.174 HD
ATOM     22  H61 UNL     1      -6.180 -24.879  -7.867  1.00  0.00     0.174 HD
ENDBRANCH  11  20
TORSDOF 3
ENDMDL
MODEL 5
REMARK VINA RESULT: -5.122525770      1.774      5.130
REMARK  3 active torsions:
REMARK  status: ('A' for Active; 'I' for Inactive)
REMARK    1  A    between atoms: N1_2  and  C3_4 
REMARK    2  A    between atoms: C4_7  and  N3_8 
REMARK    3  A    between atoms: C9_17  and  N6_18 
ROOT
HETATM    1  C3  UNL     1      -4.986 -28.049  -4.789  1.00  0.00     0.684 A 
HETATM    2  N2  UNL     1      -6.101 -28.802  -4.872  1.00  0.00    -0.174 N 
ATOM      3  H2  UNL     1      -6.032 -29.730  -5.288  1.00  0.00     0.186 HD
HETATM    4  C4  UNL     1      -7.291 -28.386  -4.433  1.00  0.00     0.146 A 
HETATM    5  C5  UNL     1      -7.327 -27.113  -3.874  1.00  0.00     0.140 A 
HETATM    6  C6  UNL     1      -6.167 -26.328  -3.786  1.00  0.00     0.172 A 
HETATM    7  N4  UNL     1      -5.012 -26.794  -4.240  1.00  0.00    -0.169 N 
HETATM    8  C7  UNL     1      -3.806 -26.030  -4.164  1.00  0.00     0.177 C 
HETATM    9  N5  UNL     1      -6.470 -25.141  -3.206  1.00  0.00    -0.170 N 
HETATM   10  C8  UNL     1      -5.597 -24.044  -2.923  1.00  0.00     0.177 C 
HETATM   11  C9  UNL     1      -7.800 -25.205  -2.945  1.00  0.00     0.681 A 
HETATM   12  N7  UNL     1      -8.299 -26.368  -3.340  1.00  0.00    -0.180 N 
HETATM   13  C10 UNL     1      -9.671 -26.827  -3.240  1.00  0.00     0.176 C 
ENDROOT
BRANCH   1  14
HETATM   14  N1  UNL     1      -3.772 -28.577  -5.282  1.00  0.00    -0.226 N 
HETATM   15  C1  UNL     1      -2.953 -29.405  -4.450  1.00  0.00     0.168 C 
HETATM   16  C2  UNL     1      -3.349 -28.293  -6.620  1.00  0.00     0.168 C 
ENDBRANCH   1  14
BRANCH   4  17
HETATM   17  N3  UNL     1      -8.391 -29.040  -4.477  1.00  0.00    -0.383 N 
ATOM     18  H32 UNL     1      -8.708 -29.482  -3.615  1.00  0.00     0.157 HD
ATOM     19  H31 UNL     1      -8.990 -29.167  -5.293  1.00  0.00     0.157 HD
ENDBRANCH   4  17
BRANCH  11  20
HETATM   20  N6  UNL     1      -8.431 -24.208  -2.377  1.00  0.00    -0.234 N 
ATOM     21  H62 UNL     1      -9.392 -23.904  -2.529  1.00  0.00     0.174 HD
ATOM     22  H61 UNL     1      -7.970 -23.614  -1.687  1.00  0.00     0.174 HD
ENDBRANCH  11  20
TORSDOF 3
ENDMDL
