MODEL 1
REMARK VINA RESULT: -5.269697910      0.000      0.000
REMARK  3 active torsions:
REMARK  status: ('A' for Active; 'I' for Inactive)
REMARK    1  A    between atoms: C5_5  and  O1_6 
REMARK    2  A    between atoms: C6_8  and  O2_9 
REMARK    3  A    between atoms: C7_11  and  O3_12 
ROOT
HETATM    1  C1  UNL     1      -6.339  10.896 -34.911  1.00  0.00     0.012 C 
HETATM    2  C2  UNL     1      -7.423  11.630 -34.113  1.00  0.00     0.013 C 
HETATM    3  C3  UNL     1      -7.878  10.727 -33.034  1.00  0.00     0.009 C 
HETATM    4  C4  UNL     1      -9.172  11.058 -32.395  1.00  0.00     0.035 C 
HETATM    5  C5  UNL     1     -10.008  12.050 -33.211  1.00  0.00     0.149 C 
HETATM    6  C6  UNL     1      -9.837  11.557 -34.654  1.00  0.00     0.175 C 
HETATM    7  C7  UNL     1      -8.463  12.109 -35.051  1.00  0.00     0.153 C 
ENDROOT
BRANCH   5   8
HETATM    8  O1  UNL     1      -9.384  13.282 -33.025  1.00  0.00    -0.393 OA
ATOM      9  H1  UNL     1      -8.520  13.071 -32.691  1.00  0.00     0.210 HD
ENDBRANCH   5   8
BRANCH   6  10
HETATM   10  O2  UNL     1     -10.838  11.997 -35.480  1.00  0.00    -0.390 OA
ATOM     11  H2  UNL     1     -11.390  11.288 -35.790  1.00  0.00     0.210 HD
ENDBRANCH   6  10
BRANCH   7  12
HETATM   12  O3  UNL     1      -8.267  11.810 -36.370  1.00  0.00    -0.393 OA
ATOM     13  H3  UNL     1      -8.167  10.889 -36.579  1.00  0.00     0.210 HD
ENDBRANCH   7  12
TORSDOF 3
ENDMDL
MODEL 2
REMARK VINA RESULT: -5.235207274      1.454      2.689
REMARK  3 active torsions:
REMARK  status: ('A' for Active; 'I' for Inactive)
REMARK    1  A    between atoms: C5_5  and  O1_6 
REMARK    2  A    between atoms: C6_8  and  O2_9 
REMARK    3  A    between atoms: C7_11  and  O3_12 
ROOT
HETATM    1  C1  UNL     1      -8.589  10.424 -32.292  1.00  0.00     0.012 C 
HETATM    2  C2  UNL     1      -8.249  10.936 -33.696  1.00  0.00     0.013 C 
HETATM    3  C3  UNL     1      -7.492  12.198 -33.546  1.00  0.00     0.009 C 
HETATM    4  C4  UNL     1      -7.403  13.064 -34.743  1.00  0.00     0.035 C 
HETATM    5  C5  UNL     1      -8.428  12.700 -35.824  1.00  0.00     0.149 C 
HETATM    6  C6  UNL     1      -9.709  12.430 -35.024  1.00  0.00     0.175 C 
HETATM    7  C7  UNL     1      -9.495  11.008 -34.492  1.00  0.00     0.153 C 
ENDROOT
BRANCH   5   8
HETATM    8  O1  UNL     1      -7.940  11.529 -36.400  1.00  0.00    -0.393 OA
ATOM      9  H1  UNL     1      -7.154  11.323 -35.908  1.00  0.00     0.210 HD
ENDBRANCH   5   8
BRANCH   6  10
HETATM   10  O2  UNL     1     -10.838  12.540 -35.791  1.00  0.00    -0.390 OA
ATOM     11  H2  UNL     1     -11.533  13.013 -35.349  1.00  0.00     0.210 HD
ENDBRANCH   6  10
BRANCH   7  12
HETATM   12  O3  UNL     1     -10.642  10.635 -33.850  1.00  0.00    -0.393 OA
ATOM     13  H3  UNL     1     -11.456  10.873 -34.276  1.00  0.00     0.210 HD
ENDBRANCH   7  12
TORSDOF 3
ENDMDL
MODEL 3
REMARK VINA RESULT: -5.227330127      1.529      2.673
REMARK  3 active torsions:
REMARK  status: ('A' for Active; 'I' for Inactive)
REMARK    1  A    between atoms: C5_5  and  O1_6 
REMARK    2  A    between atoms: C6_8  and  O2_9 
REMARK    3  A    between atoms: C7_11  and  O3_12 
ROOT
HETATM    1  C1  UNL     1      -6.654  11.067 -34.227  1.00  0.00     0.012 C 
HETATM    2  C2  UNL     1      -8.113  11.253 -34.660  1.00  0.00     0.013 C 
HETATM    3  C3  UNL     1      -8.273  12.650 -35.119  1.00  0.00     0.009 C 
HETATM    4  C4  UNL     1      -9.659  13.163 -35.206  1.00  0.00     0.035 C 
HETATM    5  C5  UNL     1     -10.669  12.298 -34.445  1.00  0.00     0.149 C 
HETATM    6  C6  UNL     1      -9.935  11.958 -33.141  1.00  0.00     0.175 C 
HETATM    7  C7  UNL     1      -8.997  10.818 -33.555  1.00  0.00     0.153 C 
ENDROOT
BRANCH   5   8
HETATM    8  O1  UNL     1     -10.837  11.163 -35.236  1.00  0.00    -0.393 OA
ATOM      9  H1  UNL     1     -11.148  10.493 -34.639  1.00  0.00     0.210 HD
ENDBRANCH   5   8
BRANCH   6  10
HETATM   10  O2  UNL     1     -10.794  11.594 -32.137  1.00  0.00    -0.390 OA
ATOM     11  H2  UNL     1     -11.653  11.986 -32.234  1.00  0.00     0.210 HD
ENDBRANCH   6  10
BRANCH   7  12
HETATM   12  O3  UNL     1      -8.372  10.371 -32.425  1.00  0.00    -0.393 OA
ATOM     13  H3  UNL     1      -8.818   9.683 -31.946  1.00  0.00     0.210 HD
ENDBRANCH   7  12
TORSDOF 3
ENDMDL
MODEL 4
REMARK VINA RESULT: -5.200311881      1.737      2.769
REMARK  3 active torsions:
REMARK  status: ('A' for Active; 'I' for Inactive)
REMARK    1  A    between atoms: C5_5  and  O1_6 
REMARK    2  A    between atoms: C6_8  and  O2_9 
REMARK    3  A    between atoms: C7_11  and  O3_12 
ROOT
HETATM    1  C1  UNL     1      -7.088  14.586 -36.142  1.00  0.00     0.012 C 
HETATM    2  C2  UNL     1      -7.924  13.458 -35.527  1.00  0.00     0.013 C 
HETATM    3  C3  UNL     1      -7.466  13.266 -34.133  1.00  0.00     0.009 C 
HETATM    4  C4  UNL     1      -7.844  11.992 -33.481  1.00  0.00     0.035 C 
HETATM    5  C5  UNL     1      -8.315  10.925 -34.476  1.00  0.00     0.149 C 
HETATM    6  C6  UNL     1      -7.323  11.060 -35.639  1.00  0.00     0.175 C 
HETATM    7  C7  UNL     1      -7.853  12.273 -36.411  1.00  0.00     0.153 C 
ENDROOT
BRANCH   5   8
HETATM    8  O1  UNL     1      -9.593  11.329 -34.858  1.00  0.00    -0.393 OA
ATOM      9  H1  UNL     1      -9.487  11.675 -35.736  1.00  0.00     0.210 HD
ENDBRANCH   5   8
BRANCH   6  10
HETATM   10  O2  UNL     1      -7.264   9.930 -36.411  1.00  0.00    -0.390 OA
ATOM     11  H2  UNL     1      -6.435   9.474 -36.326  1.00  0.00     0.210 HD
ENDBRANCH   6  10
BRANCH   7  12
HETATM   12  O3  UNL     1      -7.089  12.408 -37.536  1.00  0.00    -0.393 OA
ATOM     13  H3  UNL     1      -6.166  12.583 -37.396  1.00  0.00     0.210 HD
ENDBRANCH   7  12
TORSDOF 3
ENDMDL
MODEL 5
REMARK VINA RESULT: -5.129781286      1.063      1.117
REMARK  3 active torsions:
REMARK  status: ('A' for Active; 'I' for Inactive)
REMARK    1  A    between atoms: C5_5  and  O1_6 
REMARK    2  A    between atoms: C6_8  and  O2_9 
REMARK    3  A    between atoms: C7_11  and  O3_12 
ROOT
HETATM    1  C1  UNL     1      -6.647  11.624 -33.593  1.00  0.00     0.012 C 
HETATM    2  C2  UNL     1      -8.093  11.808 -33.120  1.00  0.00     0.013 C 
HETATM    3  C3  UNL     1      -8.590  10.492 -32.663  1.00  0.00     0.009 C 
HETATM    4  C4  UNL     1     -10.057  10.345 -32.538  1.00  0.00     0.035 C 
HETATM    5  C5  UNL     1     -10.835  11.446 -33.266  1.00  0.00     0.149 C 
HETATM    6  C6  UNL     1     -10.074  11.604 -34.589  1.00  0.00     0.175 C 
HETATM    7  C7  UNL     1      -8.867  12.464 -34.197  1.00  0.00     0.153 C 
ENDROOT
BRANCH   5   8
HETATM    8  O1  UNL     1     -10.689  12.578 -32.466  1.00  0.00    -0.393 OA
ATOM      9  H1  UNL     1     -10.963  13.303 -33.015  1.00  0.00     0.210 HD
ENDBRANCH   5   8
BRANCH   6  10
HETATM   10  O2  UNL     1     -10.838  12.185 -35.567  1.00  0.00    -0.390 OA
ATOM     11  H2  UNL     1     -10.578  11.915 -36.439  1.00  0.00     0.210 HD
ENDBRANCH   6  10
BRANCH   7  12
HETATM   12  O3  UNL     1      -8.180  12.751 -35.343  1.00  0.00    -0.393 OA
ATOM     13  H3  UNL     1      -8.371  13.590 -35.746  1.00  0.00     0.210 HD
ENDBRANCH   7  12
TORSDOF 3
ENDMDL
