MODEL 1
REMARK VINA RESULT: -5.752242092      0.000      0.000
REMARK  1 active torsions:
REMARK  status: ('A' for Active; 'I' for Inactive)
REMARK       I    between atoms: C1_4  and  N3_6 
REMARK    1  A    between atoms: N4_12  and  O1_13 
ROOT
HETATM    1  N1  UNL     1      -7.608  13.273 -36.122  1.00  0.00    -0.374 N 
ATOM      2  H11 UNL     1      -7.785  14.122 -35.587  1.00  0.00     0.158 HD
ATOM      3  H12 UNL     1      -7.015  13.324 -36.951  1.00  0.00     0.158 HD
HETATM    4  C1  UNL     1      -8.103  12.117 -35.802  1.00  0.00     0.184 C 
HETATM    5  N2  UNL     1      -7.860  10.944 -36.540  1.00  0.00    -0.064 NA
HETATM    6  N3  UNL     1      -8.930  12.046 -34.648  1.00  0.00    -0.348 N 
HETATM    7  C2  UNL     1     -10.380  11.849 -34.763  1.00  0.00     0.148 C 
HETATM    8  C3  UNL     1     -10.706  11.540 -33.296  1.00  0.00     0.106 C 
HETATM    9  C4  UNL     1      -9.872  12.675 -32.667  1.00  0.00     0.050 C 
HETATM   10  C5  UNL     1      -8.556  12.143 -33.267  1.00  0.00     0.103 C 
HETATM   11  C6  UNL     1      -8.609  10.758 -32.618  1.00  0.00     0.146 C 
HETATM   12  N4  UNL     1      -9.974  10.373 -32.951  1.00  0.00    -0.192 NA
ENDROOT
BRANCH  12  13
HETATM   13  O1  UNL     1     -10.543   9.606 -32.013  1.00  0.00    -0.313 OA
ATOM     14  H1  UNL     1     -11.491   9.659 -31.970  1.00  0.00     0.237 HD
ENDBRANCH  12  13
TORSDOF 1
ENDMDL
MODEL 2
REMARK VINA RESULT: -5.624676675      1.640      2.432
REMARK  1 active torsions:
REMARK  status: ('A' for Active; 'I' for Inactive)
REMARK       I    between atoms: C1_4  and  N3_6 
REMARK    1  A    between atoms: N4_12  and  O1_13 
ROOT
HETATM    1  N1  UNL     1      -7.385  10.302 -36.423  1.00  0.00    -0.374 N 
ATOM      2  H11 UNL     1      -7.712   9.397 -36.085  1.00  0.00     0.158 HD
ATOM      3  H12 UNL     1      -6.813  10.337 -37.266  1.00  0.00     0.158 HD
HETATM    4  C1  UNL     1      -7.662  11.422 -35.829  1.00  0.00     0.184 C 
HETATM    5  N2  UNL     1      -7.211  12.671 -36.295  1.00  0.00    -0.064 NA
HETATM    6  N3  UNL     1      -8.459  11.371 -34.654  1.00  0.00    -0.348 N 
HETATM    7  C2  UNL     1      -7.878  11.626 -33.330  1.00  0.00     0.148 C 
HETATM    8  C3  UNL     1      -9.169  11.756 -32.512  1.00  0.00     0.106 C 
HETATM    9  C4  UNL     1      -9.895  10.525 -33.094  1.00  0.00     0.050 C 
HETATM   10  C5  UNL     1      -9.859  11.089 -34.529  1.00  0.00     0.103 C 
HETATM   11  C6  UNL     1     -10.623  12.382 -34.233  1.00  0.00     0.146 C 
HETATM   12  N4  UNL     1      -9.893  12.847 -33.061  1.00  0.00    -0.192 NA
ENDROOT
BRANCH  12  13
HETATM   13  O1  UNL     1     -10.668  13.506 -32.191  1.00  0.00    -0.313 OA
ATOM     14  H1  UNL     1     -10.201  13.951 -31.494  1.00  0.00     0.237 HD
ENDBRANCH  12  13
TORSDOF 1
ENDMDL
MODEL 3
REMARK VINA RESULT: -5.271596949      2.327      3.971
REMARK  1 active torsions:
REMARK  status: ('A' for Active; 'I' for Inactive)
REMARK       I    between atoms: C1_4  and  N3_6 
REMARK    1  A    between atoms: N4_12  and  O1_13 
ROOT
HETATM    1  N1  UNL     1      -9.612  11.518 -31.417  1.00  0.00    -0.374 N 
ATOM      2  H11 UNL     1      -9.062  12.331 -31.141  1.00  0.00     0.158 HD
ATOM      3  H12 UNL     1     -10.272  11.117 -30.751  1.00  0.00     0.158 HD
HETATM    4  C1  UNL     1      -9.516  10.960 -32.585  1.00  0.00     0.184 C 
HETATM    5  N2  UNL     1     -10.275   9.839 -32.967  1.00  0.00    -0.064 NA
HETATM    6  N3  UNL     1      -8.596  11.518 -33.513  1.00  0.00    -0.348 N 
HETATM    7  C2  UNL     1      -7.349  10.824 -33.858  1.00  0.00     0.148 C 
HETATM    8  C3  UNL     1      -6.924  11.663 -35.070  1.00  0.00     0.106 C 
HETATM    9  C4  UNL     1      -7.188  13.051 -34.450  1.00  0.00     0.050 C 
HETATM   10  C5  UNL     1      -8.685  12.754 -34.235  1.00  0.00     0.103 C 
HETATM   11  C6  UNL     1      -9.026  12.472 -35.701  1.00  0.00     0.146 C 
HETATM   12  N4  UNL     1      -7.958  11.539 -36.035  1.00  0.00    -0.192 NA
ENDROOT
BRANCH  12  13
HETATM   13  O1  UNL     1      -7.557  11.640 -37.309  1.00  0.00    -0.313 OA
ATOM     14  H1  UNL     1      -8.204  11.997 -37.906  1.00  0.00     0.237 HD
ENDBRANCH  12  13
TORSDOF 1
ENDMDL
MODEL 4
REMARK VINA RESULT: -5.254747695      2.549      3.608
REMARK  1 active torsions:
REMARK  status: ('A' for Active; 'I' for Inactive)
REMARK       I    between atoms: C1_4  and  N3_6 
REMARK    1  A    between atoms: N4_12  and  O1_13 
ROOT
HETATM    1  N1  UNL     1     -10.089  14.492 -32.287  1.00  0.00    -0.374 N 
ATOM      2  H11 UNL     1      -9.528  14.067 -31.549  1.00  0.00     0.158 HD
ATOM      3  H12 UNL     1     -10.699  15.276 -32.056  1.00  0.00     0.158 HD
HETATM    4  C1  UNL     1     -10.066  14.084 -33.518  1.00  0.00     0.184 C 
HETATM    5  N2  UNL     1     -10.838  14.670 -34.538  1.00  0.00    -0.064 NA
HETATM    6  N3  UNL     1      -9.216  12.992 -33.840  1.00  0.00    -0.348 N 
HETATM    7  C2  UNL     1      -9.765  11.666 -34.149  1.00  0.00     0.148 C 
HETATM    8  C3  UNL     1      -8.502  10.997 -34.706  1.00  0.00     0.106 C 
HETATM    9  C4  UNL     1      -7.528  11.473 -33.609  1.00  0.00     0.050 C 
HETATM   10  C5  UNL     1      -7.784  12.960 -33.921  1.00  0.00     0.103 C 
HETATM   11  C6  UNL     1      -7.350  12.914 -35.388  1.00  0.00     0.146 C 
HETATM   12  N4  UNL     1      -8.105  11.753 -35.840  1.00  0.00    -0.192 NA
ENDROOT
BRANCH  12  13
HETATM   13  O1  UNL     1      -7.470  11.056 -36.791  1.00  0.00    -0.313 OA
ATOM     14  H1  UNL     1      -6.831  11.550 -37.291  1.00  0.00     0.237 HD
ENDBRANCH  12  13
TORSDOF 1
ENDMDL
MODEL 5
REMARK VINA RESULT: -5.133440989      2.428      4.017
REMARK  1 active torsions:
REMARK  status: ('A' for Active; 'I' for Inactive)
REMARK       I    between atoms: C1_4  and  N3_6 
REMARK    1  A    between atoms: N4_12  and  O1_13 
ROOT
HETATM    1  N1  UNL     1     -10.089   9.554 -32.061  1.00  0.00    -0.374 N 
ATOM      2  H11 UNL     1      -9.491   8.790 -32.375  1.00  0.00     0.158 HD
ATOM      3  H12 UNL     1     -10.781   9.374 -31.334  1.00  0.00     0.158 HD
HETATM    4  C1  UNL     1     -10.014  10.757 -32.542  1.00  0.00     0.184 C 
HETATM    5  N2  UNL     1     -10.838  11.812 -32.109  1.00  0.00    -0.064 NA
HETATM    6  N3  UNL     1      -9.050  11.008 -33.555  1.00  0.00    -0.348 N 
HETATM    7  C2  UNL     1      -9.453  11.231 -34.950  1.00  0.00     0.148 C 
HETATM    8  C3  UNL     1      -8.122  11.744 -35.514  1.00  0.00     0.106 C 
HETATM    9  C4  UNL     1      -7.211  10.680 -34.867  1.00  0.00     0.050 C 
HETATM   10  C5  UNL     1      -7.623  11.087 -33.439  1.00  0.00     0.103 C 
HETATM   11  C6  UNL     1      -7.177  12.548 -33.532  1.00  0.00     0.146 C 
HETATM   12  N4  UNL     1      -7.801  12.925 -34.794  1.00  0.00    -0.192 NA
ENDROOT
BRANCH  12  13
HETATM   13  O1  UNL     1      -7.088  13.829 -35.478  1.00  0.00    -0.313 OA
ATOM     14  H1  UNL     1      -6.794  14.576 -34.971  1.00  0.00     0.237 HD
ENDBRANCH  12  13
TORSDOF 1
ENDMDL
