MODEL 1
REMARK VINA RESULT: -5.154997943      0.000      0.000
REMARK  6 active torsions:
REMARK  status: ('A' for Active; 'I' for Inactive)
REMARK    1  A    between atoms: C2_2  and  N1_3 
REMARK    2  A    between atoms: C2_2  and  S1_12 
REMARK    3  A    between atoms: N1_3  and  C3_5 
REMARK    4  A    between atoms: C3_5  and  O1_6 
REMARK    5  A    between atoms: N2_8  and  O2_10 
REMARK    6  A    between atoms: S1_12  and  N3_13 
ROOT
HETATM    1  N3  UNL     1     -10.125  10.820 -34.663  1.00  0.00    -0.262 N 
ATOM      2  H3  UNL     1     -10.115  10.144 -35.426  1.00  0.00     0.186 HD
HETATM    3  C4  UNL     1     -10.065  10.428 -33.295  1.00  0.00     0.188 C 
HETATM    4  N4  UNL     1     -10.008  10.045 -32.163  1.00  0.00    -0.171 NA
ENDROOT
BRANCH   1   5
HETATM    5  S1  UNL     1     -10.211  12.440 -34.922  1.00  0.00     0.012 SA
BRANCH   5   6
HETATM    6  C2  UNL     1      -8.777  13.092 -34.386  1.00  0.00     0.084 C 
HETATM    7  C1  UNL     1      -8.920  14.133 -33.473  1.00  0.00     0.052 C 
BRANCH   6   8
HETATM    8  N1  UNL     1      -7.643  12.607 -34.978  1.00  0.00    -0.315 N 
ATOM      9  H1  UNL     1      -6.929  12.190 -34.381  1.00  0.00     0.170 HD
BRANCH   8  10
HETATM   10  C3  UNL     1      -7.400  12.653 -36.405  1.00  0.00     0.242 C 
HETATM   11  N2  UNL     1      -7.387  11.588 -37.107  1.00  0.00    -0.233 N 
ATOM     12  H2  UNL     1      -7.214  11.645 -38.111  1.00  0.00     0.198 HD
BRANCH  10  13
HETATM   13  O1  UNL     1      -7.177  13.862 -37.033  1.00  0.00    -0.331 OA
ATOM     14  H1  UNL     1      -6.320  14.272 -36.991  1.00  0.00     0.221 HD
ENDBRANCH  10  13
BRANCH  11  15
HETATM   15  O2  UNL     1      -7.604  10.376 -36.524  1.00  0.00    -0.287 OA
ATOM     16  H2  UNL     1      -6.978  10.024 -35.903  1.00  0.00     0.244 HD
ENDBRANCH  11  15
ENDBRANCH   8  10
ENDBRANCH   6   8
ENDBRANCH   5   6
ENDBRANCH   1   5
TORSDOF 6
ENDMDL
MODEL 2
REMARK VINA RESULT: -5.112276951      2.390      3.930
REMARK  6 active torsions:
REMARK  status: ('A' for Active; 'I' for Inactive)
REMARK    1  A    between atoms: C2_2  and  N1_3 
REMARK    2  A    between atoms: C2_2  and  S1_12 
REMARK    3  A    between atoms: N1_3  and  C3_5 
REMARK    4  A    between atoms: C3_5  and  O1_6 
REMARK    5  A    between atoms: N2_8  and  O2_10 
REMARK    6  A    between atoms: S1_12  and  N3_13 
ROOT
HETATM    1  N3  UNL     1      -7.112  12.527 -34.912  1.00  0.00    -0.262 N 
ATOM      2  H3  UNL     1      -6.501  13.285 -35.217  1.00  0.00     0.186 HD
HETATM    3  C4  UNL     1      -7.497  11.462 -35.774  1.00  0.00     0.188 C 
HETATM    4  N4  UNL     1      -7.786  10.588 -36.538  1.00  0.00    -0.171 NA
ENDROOT
BRANCH   1   5
HETATM    5  S1  UNL     1      -7.722  12.448 -33.389  1.00  0.00     0.012 SA
BRANCH   5   6
HETATM    6  C2  UNL     1      -9.162  13.281 -33.400  1.00  0.00     0.084 C 
HETATM    7  C1  UNL     1      -9.032  14.661 -33.534  1.00  0.00     0.052 C 
BRANCH   6   8
HETATM    8  N1  UNL     1     -10.285  12.534 -33.173  1.00  0.00    -0.315 N 
ATOM      9  H1  UNL     1     -10.987  12.902 -32.532  1.00  0.00     0.170 HD
BRANCH   8  10
HETATM   10  C3  UNL     1     -10.532  11.249 -33.794  1.00  0.00     0.242 C 
HETATM   11  N2  UNL     1     -10.483  10.168 -33.118  1.00  0.00    -0.233 N 
ATOM     12  H2  UNL     1     -10.660   9.275 -33.576  1.00  0.00     0.198 HD
BRANCH  10  13
HETATM   13  O1  UNL     1     -10.828  11.173 -35.140  1.00  0.00    -0.331 OA
ATOM     14  H1  UNL     1     -10.954  10.327 -35.555  1.00  0.00     0.221 HD
ENDBRANCH  10  13
BRANCH  11  15
HETATM   15  O2  UNL     1     -10.194  10.201 -31.786  1.00  0.00    -0.287 OA
ATOM     16  H2  UNL     1     -10.407  10.968 -31.268  1.00  0.00     0.244 HD
ENDBRANCH  11  15
ENDBRANCH   8  10
ENDBRANCH   6   8
ENDBRANCH   5   6
ENDBRANCH   1   5
TORSDOF 6
ENDMDL
MODEL 3
REMARK VINA RESULT: -4.950569053      2.605      4.441
REMARK  6 active torsions:
REMARK  status: ('A' for Active; 'I' for Inactive)
REMARK    1  A    between atoms: C2_2  and  N1_3 
REMARK    2  A    between atoms: C2_2  and  S1_12 
REMARK    3  A    between atoms: N1_3  and  C3_5 
REMARK    4  A    between atoms: C3_5  and  O1_6 
REMARK    5  A    between atoms: N2_8  and  O2_10 
REMARK    6  A    between atoms: S1_12  and  N3_13 
ROOT
HETATM    1  N3  UNL     1      -7.584  11.216 -36.418  1.00  0.00    -0.262 N 
ATOM      2  H3  UNL     1      -8.143  10.480 -36.851  1.00  0.00     0.186 HD
HETATM    3  C4  UNL     1      -7.464  12.516 -36.984  1.00  0.00     0.188 C 
HETATM    4  N4  UNL     1      -7.400  13.594 -37.499  1.00  0.00    -0.171 NA
ENDROOT
BRANCH   1   5
HETATM    5  S1  UNL     1      -6.759  10.984 -35.017  1.00  0.00     0.012 SA
BRANCH   5   6
HETATM    6  C2  UNL     1      -7.731  11.539 -33.786  1.00  0.00     0.084 C 
HETATM    7  C1  UNL     1      -7.522  12.870 -33.437  1.00  0.00     0.052 C 
BRANCH   6   8
HETATM    8  N1  UNL     1      -8.537  10.604 -33.195  1.00  0.00    -0.315 N 
ATOM      9  H1  UNL     1      -8.145   9.683 -33.002  1.00  0.00     0.170 HD
BRANCH   8  10
HETATM   10  C3  UNL     1      -9.916  10.851 -32.829  1.00  0.00     0.242 C 
HETATM   11  N2  UNL     1     -10.838  10.882 -33.710  1.00  0.00    -0.233 N 
ATOM     12  H2  UNL     1     -11.803  11.058 -33.429  1.00  0.00     0.198 HD
BRANCH  10  13
HETATM   13  O1  UNL     1     -10.258  11.059 -31.507  1.00  0.00    -0.331 OA
ATOM     14  H1  UNL     1     -11.003  11.606 -31.286  1.00  0.00     0.221 HD
ENDBRANCH  10  13
BRANCH  11  15
HETATM   15  O2  UNL     1     -10.542  10.682 -35.025  1.00  0.00    -0.287 OA
ATOM     16  H2  UNL     1     -11.113  10.154 -35.570  1.00  0.00     0.244 HD
ENDBRANCH  11  15
ENDBRANCH   8  10
ENDBRANCH   6   8
ENDBRANCH   5   6
ENDBRANCH   1   5
TORSDOF 6
ENDMDL
MODEL 4
REMARK VINA RESULT: -4.886993203      2.947      4.518
REMARK  6 active torsions:
REMARK  status: ('A' for Active; 'I' for Inactive)
REMARK    1  A    between atoms: C2_2  and  N1_3 
REMARK    2  A    between atoms: C2_2  and  S1_12 
REMARK    3  A    between atoms: N1_3  and  C3_5 
REMARK    4  A    between atoms: C3_5  and  O1_6 
REMARK    5  A    between atoms: N2_8  and  O2_10 
REMARK    6  A    between atoms: S1_12  and  N3_13 
ROOT
HETATM    1  N3  UNL     1      -7.290  13.623 -35.319  1.00  0.00    -0.262 N 
ATOM      2  H3  UNL     1      -6.346  13.795 -35.667  1.00  0.00     0.186 HD
HETATM    3  C4  UNL     1      -7.962  14.533 -34.454  1.00  0.00     0.188 C 
HETATM    4  N4  UNL     1      -8.483  15.332 -33.732  1.00  0.00    -0.171 NA
ENDROOT
BRANCH   1   5
HETATM    5  S1  UNL     1      -8.143  12.278 -35.718  1.00  0.00     0.012 SA
BRANCH   5   6
HETATM    6  C2  UNL     1      -8.447  11.460 -34.301  1.00  0.00     0.084 C 
HETATM    7  C1  UNL     1      -7.339  10.823 -33.751  1.00  0.00     0.052 C 
BRANCH   6   8
HETATM    8  N1  UNL     1      -9.756  11.422 -33.904  1.00  0.00    -0.315 N 
ATOM      9  H1  UNL     1     -10.448  11.065 -34.561  1.00  0.00     0.170 HD
BRANCH   8  10
HETATM   10  C3  UNL     1     -10.211  11.859 -32.601  1.00  0.00     0.242 C 
HETATM   11  N2  UNL     1     -10.529  11.019 -31.695  1.00  0.00    -0.233 N 
ATOM     12  H2  UNL     1     -10.847  11.351 -30.785  1.00  0.00     0.198 HD
BRANCH  10  13
HETATM   13  O1  UNL     1     -10.310  13.207 -32.315  1.00  0.00    -0.331 OA
ATOM     14  H1  UNL     1     -11.087  13.550 -31.889  1.00  0.00     0.221 HD
ENDBRANCH  10  13
BRANCH  11  15
HETATM   15  O2  UNL     1     -10.446   9.681 -31.938  1.00  0.00    -0.287 OA
ATOM     16  H2  UNL     1      -9.778   9.157 -31.511  1.00  0.00     0.244 HD
ENDBRANCH  11  15
ENDBRANCH   8  10
ENDBRANCH   6   8
ENDBRANCH   5   6
ENDBRANCH   1   5
TORSDOF 6
ENDMDL
MODEL 5
REMARK VINA RESULT: -4.821430524      1.299      1.599
REMARK  6 active torsions:
REMARK  status: ('A' for Active; 'I' for Inactive)
REMARK    1  A    between atoms: C2_2  and  N1_3 
REMARK    2  A    between atoms: C2_2  and  S1_12 
REMARK    3  A    between atoms: N1_3  and  C3_5 
REMARK    4  A    between atoms: C3_5  and  O1_6 
REMARK    5  A    between atoms: N2_8  and  O2_10 
REMARK    6  A    between atoms: S1_12  and  N3_13 
ROOT
HETATM    1  N3  UNL     1      -8.884  10.845 -33.596  1.00  0.00    -0.262 N 
ATOM      2  H3  UNL     1      -8.671   9.874 -33.370  1.00  0.00     0.186 HD
HETATM    3  C4  UNL     1      -9.938  11.208 -34.483  1.00  0.00     0.188 C 
HETATM    4  N4  UNL     1     -10.837  11.459 -35.231  1.00  0.00    -0.171 NA
ENDROOT
BRANCH   1   5
HETATM    5  S1  UNL     1      -8.039  12.103 -32.964  1.00  0.00     0.012 SA
BRANCH   5   6
HETATM    6  C2  UNL     1      -7.745  13.165 -34.212  1.00  0.00     0.084 C 
HETATM    7  C1  UNL     1      -8.479  14.347 -34.152  1.00  0.00     0.052 C 
BRANCH   6   8
HETATM    8  N1  UNL     1      -6.908  12.713 -35.195  1.00  0.00    -0.315 N 
ATOM      9  H1  UNL     1      -5.969  12.416 -34.929  1.00  0.00     0.170 HD
BRANCH   8  10
HETATM   10  C3  UNL     1      -7.281  12.633 -36.592  1.00  0.00     0.242 C 
HETATM   11  N2  UNL     1      -7.513  11.510 -37.151  1.00  0.00    -0.233 N 
ATOM     12  H2  UNL     1      -7.774  11.478 -38.136  1.00  0.00     0.198 HD
BRANCH  10  13
HETATM   13  O1  UNL     1      -7.392  13.783 -37.349  1.00  0.00    -0.331 OA
ATOM     14  H1  UNL     1      -6.630  14.141 -37.789  1.00  0.00     0.221 HD
ENDBRANCH  10  13
BRANCH  11  15
HETATM   15  O2  UNL     1      -7.413  10.352 -36.438  1.00  0.00    -0.287 OA
ATOM     16  H2  UNL     1      -6.563   9.967 -36.265  1.00  0.00     0.244 HD
ENDBRANCH  11  15
ENDBRANCH   8  10
ENDBRANCH   6   8
ENDBRANCH   5   6
ENDBRANCH   1   5
TORSDOF 6
ENDMDL
