MODEL 1
REMARK VINA RESULT: -5.045513218      0.000      0.000
REMARK  2 active torsions:
REMARK  status: ('A' for Active; 'I' for Inactive)
REMARK    1  A    between atoms: C5_6  and  O1_7 
REMARK    2  A    between atoms: C7_10  and  O2_11 
ROOT
HETATM    1  C1  UNL     1      -6.528  11.053 -34.912  1.00  0.00     0.311 C 
HETATM    2  N1  UNL     1      -7.912  11.030 -34.460  1.00  0.00     0.098 N 
HETATM    3  C2  UNL     1      -8.567  12.282 -34.844  1.00  0.00     0.253 C 
HETATM    4  C3  UNL     1      -7.884  12.908 -33.618  1.00  0.00     0.077 C 
HETATM    5  C4  UNL     1      -7.979  11.511 -33.080  1.00  0.00     0.253 C 
HETATM    6  C5  UNL     1      -9.321  11.166 -32.522  1.00  0.00     0.154 C 
HETATM    7  C6  UNL     1     -10.313  11.052 -33.688  1.00  0.00     0.068 C 
HETATM    8  C7  UNL     1     -10.035  12.275 -34.563  1.00  0.00     0.154 C 
ENDROOT
BRANCH   6   9
HETATM    9  O1  UNL     1      -9.276   9.935 -31.912  1.00  0.00    -0.393 OA
ATOM     10  H1  UNL     1     -10.153   9.576 -31.837  1.00  0.00     0.210 HD
ENDBRANCH   6   9
BRANCH   8  11
HETATM   11  O2  UNL     1     -10.838  12.338 -35.662  1.00  0.00    -0.393 OA
ATOM     12  H2  UNL     1     -11.763  12.194 -35.498  1.00  0.00     0.210 HD
ENDBRANCH   8  11
TORSDOF 2
ENDMDL
MODEL 2
REMARK VINA RESULT: -4.986603358      1.944      3.051
REMARK  2 active torsions:
REMARK  status: ('A' for Active; 'I' for Inactive)
REMARK    1  A    between atoms: C5_6  and  O1_7 
REMARK    2  A    between atoms: C7_10  and  O2_11 
ROOT
HETATM    1  C1  UNL     1     -10.804  12.982 -35.254  1.00  0.00     0.311 C 
HETATM    2  N1  UNL     1      -9.961  12.172 -34.386  1.00  0.00     0.098 N 
HETATM    3  C2  UNL     1     -10.557  12.115 -33.049  1.00  0.00     0.253 C 
HETATM    4  C3  UNL     1      -9.942  13.504 -32.817  1.00  0.00     0.077 C 
HETATM    5  C4  UNL     1      -8.919  13.014 -33.800  1.00  0.00     0.253 C 
HETATM    6  C5  UNL     1      -7.876  12.130 -33.198  1.00  0.00     0.154 C 
HETATM    7  C6  UNL     1      -8.532  10.790 -32.834  1.00  0.00     0.068 C 
HETATM    8  C7  UNL     1      -9.842  11.169 -32.140  1.00  0.00     0.154 C 
ENDROOT
BRANCH   6   9
HETATM    9  O1  UNL     1      -6.898  11.857 -34.125  1.00  0.00    -0.393 OA
ATOM     10  H1  UNL     1      -7.287  11.733 -34.983  1.00  0.00     0.210 HD
ENDBRANCH   6   9
BRANCH   8  11
HETATM   11  O2  UNL     1     -10.567  10.086 -31.740  1.00  0.00    -0.393 OA
ATOM     12  H2  UNL     1     -11.508  10.210 -31.729  1.00  0.00     0.210 HD
ENDBRANCH   8  11
TORSDOF 2
ENDMDL
MODEL 3
REMARK VINA RESULT: -4.931660411      1.854      2.459
REMARK  2 active torsions:
REMARK  status: ('A' for Active; 'I' for Inactive)
REMARK    1  A    between atoms: C5_6  and  O1_7 
REMARK    2  A    between atoms: C7_10  and  O2_11 
ROOT
HETATM    1  C1  UNL     1      -7.285  13.262 -35.617  1.00  0.00     0.311 C 
HETATM    2  N1  UNL     1      -8.565  13.078 -34.947  1.00  0.00     0.098 N 
HETATM    3  C2  UNL     1      -8.414  13.383 -33.522  1.00  0.00     0.253 C 
HETATM    4  C3  UNL     1      -7.818  11.974 -33.378  1.00  0.00     0.077 C 
HETATM    5  C4  UNL     1      -8.707  11.677 -34.550  1.00  0.00     0.253 C 
HETATM    6  C5  UNL     1     -10.133  11.429 -34.183  1.00  0.00     0.154 C 
HETATM    7  C6  UNL     1     -10.752  12.760 -33.732  1.00  0.00     0.068 C 
HETATM    8  C7  UNL     1      -9.717  13.378 -32.791  1.00  0.00     0.154 C 
ENDROOT
BRANCH   6   9
HETATM    9  O1  UNL     1     -10.838  11.012 -35.286  1.00  0.00    -0.393 OA
ATOM     10  H1  UNL     1     -10.562  10.139 -35.539  1.00  0.00     0.210 HD
ENDBRANCH   6   9
BRANCH   8  11
HETATM   11  O2  UNL     1     -10.106  14.583 -32.286  1.00  0.00    -0.393 OA
ATOM     12  H2  UNL     1     -11.028  14.654 -32.070  1.00  0.00     0.210 HD
ENDBRANCH   8  11
TORSDOF 2
ENDMDL
MODEL 4
REMARK VINA RESULT: -4.904327668      1.533      2.252
REMARK  2 active torsions:
REMARK  status: ('A' for Active; 'I' for Inactive)
REMARK    1  A    between atoms: C5_6  and  O1_7 
REMARK    2  A    between atoms: C7_10  and  O2_11 
ROOT
HETATM    1  C1  UNL     1      -6.620  11.085 -35.282  1.00  0.00     0.311 C 
HETATM    2  N1  UNL     1      -7.852  11.830 -35.067  1.00  0.00     0.098 N 
HETATM    3  C2  UNL     1      -7.677  12.738 -33.932  1.00  0.00     0.253 C 
HETATM    4  C3  UNL     1      -7.929  11.517 -33.034  1.00  0.00     0.077 C 
HETATM    5  C4  UNL     1      -8.744  11.052 -34.206  1.00  0.00     0.253 C 
HETATM    6  C5  UNL     1     -10.109  11.653 -34.270  1.00  0.00     0.154 C 
HETATM    7  C6  UNL     1      -9.966  13.137 -34.639  1.00  0.00     0.068 C 
HETATM    8  C7  UNL     1      -8.840  13.658 -33.746  1.00  0.00     0.154 C 
ENDROOT
BRANCH   6   9
HETATM    9  O1  UNL     1     -10.838  11.060 -35.273  1.00  0.00    -0.393 OA
ATOM     10  H1  UNL     1     -11.752  11.311 -35.204  1.00  0.00     0.210 HD
ENDBRANCH   6   9
BRANCH   8  11
HETATM   11  O2  UNL     1      -8.573  14.980 -33.939  1.00  0.00    -0.393 OA
ATOM     12  H2  UNL     1      -7.833  15.167 -34.505  1.00  0.00     0.210 HD
ENDBRANCH   8  11
TORSDOF 2
ENDMDL
MODEL 5
REMARK VINA RESULT: -4.889110632      2.301      3.428
REMARK  2 active torsions:
REMARK  status: ('A' for Active; 'I' for Inactive)
REMARK    1  A    between atoms: C5_6  and  O1_7 
REMARK    2  A    between atoms: C7_10  and  O2_11 
ROOT
HETATM    1  C1  UNL     1     -10.610  11.966 -33.764  1.00  0.00     0.311 C 
HETATM    2  N1  UNL     1      -9.412  12.240 -34.544  1.00  0.00     0.098 N 
HETATM    3  C2  UNL     1      -8.586  11.032 -34.603  1.00  0.00     0.253 C 
HETATM    4  C3  UNL     1      -8.096  11.409 -33.197  1.00  0.00     0.077 C 
HETATM    5  C4  UNL     1      -8.383  12.804 -33.670  1.00  0.00     0.253 C 
HETATM    6  C5  UNL     1      -7.305  13.390 -34.521  1.00  0.00     0.154 C 
HETATM    7  C6  UNL     1      -7.311  12.663 -35.873  1.00  0.00     0.068 C 
HETATM    8  C7  UNL     1      -7.417  11.178 -35.522  1.00  0.00     0.154 C 
ENDROOT
BRANCH   6   9
HETATM    9  O1  UNL     1      -7.574  14.714 -34.777  1.00  0.00    -0.393 OA
ATOM     10  H1  UNL     1      -7.870  14.818 -35.674  1.00  0.00     0.210 HD
ENDBRANCH   6   9
BRANCH   8  11
HETATM   11  O2  UNL     1      -7.433  10.369 -36.619  1.00  0.00    -0.393 OA
ATOM     12  H2  UNL     1      -7.483  10.819 -37.454  1.00  0.00     0.210 HD
ENDBRANCH   8  11
TORSDOF 2
ENDMDL
