MODEL 1
REMARK VINA RESULT: -6.354372674      0.000      0.000
REMARK  3 active torsions:
REMARK  status: ('A' for Active; 'I' for Inactive)
REMARK    1  A    between atoms: O1_1  and  C1_3 
REMARK    2  A    between atoms: C5_7  and  O2_8 
REMARK    3  A    between atoms: C8_12  and  O3_13 
ROOT
HETATM    1  C1  UNL     1      -9.388  11.668 -32.499  1.00  0.00     0.147 C 
HETATM    2  C2  UNL     1      -8.408  10.673 -33.090  1.00  0.00     0.039 C 
HETATM    3  C3  UNL     1      -7.361  11.531 -33.779  1.00  0.00    -0.003 C 
HETATM    4  C4  UNL     1      -6.652  10.751 -34.896  1.00  0.00     0.037 C 
HETATM    5  C5  UNL     1      -7.749  11.292 -35.822  1.00  0.00     0.123 C 
HETATM    6  C6  UNL     1      -7.913  12.430 -34.805  1.00  0.00     0.021 C 
HETATM    7  C7  UNL     1      -9.299  12.879 -34.666  1.00  0.00     0.041 C 
HETATM    8  C8  UNL     1     -10.161  12.184 -33.693  1.00  0.00     0.147 C 
ENDROOT
BRANCH   1   9
HETATM    9  O1  UNL     1     -10.175  11.154 -31.513  1.00  0.00    -0.393 OA
ATOM     10  H1  UNL     1     -10.392  11.775 -30.828  1.00  0.00     0.210 HD
ENDBRANCH   1   9
BRANCH   8  11
HETATM   11  O3  UNL     1     -10.824  11.096 -34.295  1.00  0.00    -0.393 OA
ATOM     12  H3  UNL     1     -11.012  11.324 -35.198  1.00  0.00     0.210 HD
ENDBRANCH   8  11
BRANCH   5  13
HETATM   13  O2  UNL     1      -7.264  11.678 -37.045  1.00  0.00    -0.395 OA
ATOM     14  H2  UNL     1      -7.955  11.905 -37.657  1.00  0.00     0.210 HD
ENDBRANCH   5  13
TORSDOF 3
ENDMDL
MODEL 2
REMARK VINA RESULT: -5.885410882      1.342      3.869
REMARK  3 active torsions:
REMARK  status: ('A' for Active; 'I' for Inactive)
REMARK    1  A    between atoms: O1_1  and  C1_3 
REMARK    2  A    between atoms: C5_7  and  O2_8 
REMARK    3  A    between atoms: C8_12  and  O3_13 
ROOT
HETATM    1  C1  UNL     1      -7.682  12.872 -34.640  1.00  0.00     0.147 C 
HETATM    2  C2  UNL     1      -9.169  12.902 -34.345  1.00  0.00     0.039 C 
HETATM    3  C3  UNL     1      -9.279  12.485 -32.889  1.00  0.00    -0.003 C 
HETATM    4  C4  UNL     1     -10.663  11.894 -32.584  1.00  0.00     0.037 C 
HETATM    5  C5  UNL     1     -10.047  10.539 -32.957  1.00  0.00     0.123 C 
HETATM    6  C6  UNL     1      -8.692  11.166 -32.605  1.00  0.00     0.021 C 
HETATM    7  C7  UNL     1      -7.601  10.690 -33.457  1.00  0.00     0.041 C 
HETATM    8  C8  UNL     1      -7.349  11.399 -34.724  1.00  0.00     0.147 C 
ENDROOT
BRANCH   1   9
HETATM    9  O1  UNL     1      -7.321  13.584 -35.744  1.00  0.00    -0.393 OA
ATOM     10  H1  UNL     1      -7.224  13.058 -36.529  1.00  0.00     0.210 HD
ENDBRANCH   1   9
BRANCH   8  11
HETATM   11  O3  UNL     1      -8.098  10.835 -35.775  1.00  0.00    -0.393 OA
ATOM     12  H3  UNL     1      -7.595  10.122 -36.151  1.00  0.00     0.210 HD
ENDBRANCH   8  11
BRANCH   5  13
HETATM   13  O2  UNL     1     -10.449   9.528 -32.123  1.00  0.00    -0.395 OA
ATOM     14  H2  UNL     1     -11.233   9.749 -31.632  1.00  0.00     0.210 HD
ENDBRANCH   5  13
TORSDOF 3
ENDMDL
MODEL 3
REMARK VINA RESULT: -5.823468107      1.152      1.233
REMARK  3 active torsions:
REMARK  status: ('A' for Active; 'I' for Inactive)
REMARK    1  A    between atoms: O1_1  and  C1_3 
REMARK    2  A    between atoms: C5_7  and  O2_8 
REMARK    3  A    between atoms: C8_12  and  O3_13 
ROOT
HETATM    1  C1  UNL     1      -9.968  10.916 -32.458  1.00  0.00     0.147 C 
HETATM    2  C2  UNL     1      -8.554  10.635 -32.927  1.00  0.00     0.039 C 
HETATM    3  C3  UNL     1      -7.889  12.001 -32.973  1.00  0.00    -0.003 C 
HETATM    4  C4  UNL     1      -6.706  12.009 -33.953  1.00  0.00     0.037 C 
HETATM    5  C5  UNL     1      -7.728  12.436 -35.014  1.00  0.00     0.123 C 
HETATM    6  C6  UNL     1      -8.575  12.964 -33.848  1.00  0.00     0.021 C 
HETATM    7  C7  UNL     1     -10.013  12.806 -34.067  1.00  0.00     0.041 C 
HETATM    8  C8  UNL     1     -10.643  11.537 -33.660  1.00  0.00     0.147 C 
ENDROOT
BRANCH   1   9
HETATM    9  O1  UNL     1     -10.615   9.823 -31.964  1.00  0.00    -0.393 OA
ATOM     10  H1  UNL     1     -11.533   9.972 -31.770  1.00  0.00     0.210 HD
ENDBRANCH   1   9
BRANCH   8  11
HETATM   11  O3  UNL     1     -10.621  10.602 -34.713  1.00  0.00    -0.393 OA
ATOM     12  H3  UNL     1     -10.804  11.062 -35.524  1.00  0.00     0.210 HD
ENDBRANCH   8  11
BRANCH   5  13
HETATM   13  O2  UNL     1      -7.241  13.403 -35.857  1.00  0.00    -0.395 OA
ATOM     14  H2  UNL     1      -6.991  14.196 -35.397  1.00  0.00     0.210 HD
ENDBRANCH   5  13
TORSDOF 3
ENDMDL
MODEL 4
REMARK VINA RESULT: -5.699631870      1.272      3.974
REMARK  3 active torsions:
REMARK  status: ('A' for Active; 'I' for Inactive)
REMARK    1  A    between atoms: O1_1  and  C1_3 
REMARK    2  A    between atoms: C5_7  and  O2_8 
REMARK    3  A    between atoms: C8_12  and  O3_13 
ROOT
HETATM    1  C1  UNL     1      -7.157  12.460 -35.842  1.00  0.00     0.147 C 
HETATM    2  C2  UNL     1      -8.404  13.107 -35.271  1.00  0.00     0.039 C 
HETATM    3  C3  UNL     1      -8.092  13.305 -33.798  1.00  0.00    -0.003 C 
HETATM    4  C4  UNL     1      -9.379  13.381 -32.963  1.00  0.00     0.037 C 
HETATM    5  C5  UNL     1      -9.247  11.859 -32.819  1.00  0.00     0.123 C 
HETATM    6  C6  UNL     1      -7.751  12.060 -33.092  1.00  0.00     0.021 C 
HETATM    7  C7  UNL     1      -7.157  10.964 -33.860  1.00  0.00     0.041 C 
HETATM    8  C8  UNL     1      -7.209  11.038 -35.331  1.00  0.00     0.147 C 
ENDROOT
BRANCH   1   9
HETATM    9  O1  UNL     1      -7.052  12.557 -37.197  1.00  0.00    -0.393 OA
ATOM     10  H1  UNL     1      -7.487  11.857 -37.669  1.00  0.00     0.210 HD
ENDBRANCH   1   9
BRANCH   8  11
HETATM   11  O3  UNL     1      -8.381  10.432 -35.825  1.00  0.00    -0.393 OA
ATOM     12  H3  UNL     1      -8.141   9.863 -36.547  1.00  0.00     0.210 HD
ENDBRANCH   8  11
BRANCH   5  13
HETATM   13  O2  UNL     1      -9.549  11.421 -31.555  1.00  0.00    -0.395 OA
ATOM     14  H2  UNL     1     -10.453  11.140 -31.472  1.00  0.00     0.210 HD
ENDBRANCH   5  13
TORSDOF 3
ENDMDL
MODEL 5
REMARK VINA RESULT: -5.652892147      1.891      3.581
REMARK  3 active torsions:
REMARK  status: ('A' for Active; 'I' for Inactive)
REMARK    1  A    between atoms: O1_1  and  C1_3 
REMARK    2  A    between atoms: C5_7  and  O2_8 
REMARK    3  A    between atoms: C8_12  and  O3_13 
ROOT
HETATM    1  C1  UNL     1      -7.499  11.204 -35.570  1.00  0.00     0.147 C 
HETATM    2  C2  UNL     1      -7.635  12.661 -35.966  1.00  0.00     0.039 C 
HETATM    3  C3  UNL     1      -7.134  13.434 -34.758  1.00  0.00    -0.003 C 
HETATM    4  C4  UNL     1      -7.726  14.851 -34.721  1.00  0.00     0.037 C 
HETATM    5  C5  UNL     1      -8.863  14.237 -33.895  1.00  0.00     0.123 C 
HETATM    6  C6  UNL     1      -7.866  13.134 -33.517  1.00  0.00     0.021 C 
HETATM    7  C7  UNL     1      -8.492  11.818 -33.378  1.00  0.00     0.041 C 
HETATM    8  C8  UNL     1      -8.623  10.979 -34.583  1.00  0.00     0.147 C 
ENDROOT
BRANCH   1   9
HETATM    9  O1  UNL     1      -7.508  10.339 -36.623  1.00  0.00    -0.393 OA
ATOM     10  H1  UNL     1      -6.909  10.574 -37.321  1.00  0.00     0.210 HD
ENDBRANCH   1   9
BRANCH   8  11
HETATM   11  O3  UNL     1      -9.844  11.228 -35.239  1.00  0.00    -0.393 OA
ATOM     12  H3  UNL     1     -10.251  11.987 -34.835  1.00  0.00     0.210 HD
ENDBRANCH   8  11
BRANCH   5  13
HETATM   13  O2  UNL     1      -9.254  15.041 -32.855  1.00  0.00    -0.395 OA
ATOM     14  H2  UNL     1     -10.192  15.194 -32.843  1.00  0.00     0.210 HD
ENDBRANCH   5  13
TORSDOF 3
ENDMDL
