MODEL 1
REMARK VINA RESULT: -6.551000210      0.000      0.000
REMARK  4 active torsions:
REMARK  status: ('A' for Active; 'I' for Inactive)
REMARK    1  A    between atoms: C2_2  and  O1_4 
REMARK    2  A    between atoms: C2_2  and  C4_6 
REMARK    3  A    between atoms: C5_7  and  C6_8 
REMARK       I    between atoms: C6_8  and  N1_10 
REMARK    4  A    between atoms: N1_10  and  N2_12 
ROOT
HETATM    1  C6  UNL     1       0.182   6.075   9.987  1.00  0.00     0.259 C 
HETATM    2  O2  UNL     1      -0.631   6.712  10.711  1.00  0.00    -0.267 OA
HETATM    3  N1  UNL     1       1.149   6.767   9.228  1.00  0.00    -0.265 N 
ATOM      4  H1  UNL     1       1.806   6.245   8.647  1.00  0.00     0.190 HD
ENDROOT
BRANCH   1   5
HETATM    5  C5  UNL     1       0.113   4.619   9.934  1.00  0.00     0.075 C 
HETATM    6  C4  UNL     1      -0.938   4.026  10.428  1.00  0.00     0.015 C 
BRANCH   6   7
HETATM    7  C2  UNL     1      -1.208   2.583  10.478  1.00  0.00     0.068 C 
HETATM    8  C1  UNL     1      -2.398   2.136   9.684  1.00  0.00     0.050 C 
HETATM    9  C3  UNL     1      -1.396   2.209  11.948  1.00  0.00     0.050 C 
BRANCH   7  10
HETATM   10  O1  UNL     1      -0.095   1.831  10.032  1.00  0.00    -0.387 OA
ATOM     11  H1  UNL     1       0.193   1.291  10.758  1.00  0.00     0.211 HD
ENDBRANCH   7  10
ENDBRANCH   6   7
ENDBRANCH   1   5
BRANCH   3  12
HETATM   12  N2  UNL     1       1.212   8.112   9.269  1.00  0.00    -0.304 N 
HETATM   13  C7  UNL     1       2.154   8.770  10.083  1.00  0.00     0.083 C 
HETATM   14  C8  UNL     1       3.038   9.666   9.220  1.00  0.00     0.046 C 
HETATM   15  C9  UNL     1       2.256  10.567   8.324  1.00  0.00     0.007 C 
HETATM   16  C10 UNL     1       0.771  10.373   8.500  1.00  0.00     0.022 C 
HETATM   17  C11 UNL     1       0.518   8.876   8.301  1.00  0.00     0.148 C 
ENDBRANCH   3  12
TORSDOF 4
ENDMDL
MODEL 2
REMARK VINA RESULT: -6.386582456      2.106      6.748
REMARK  4 active torsions:
REMARK  status: ('A' for Active; 'I' for Inactive)
REMARK    1  A    between atoms: C2_2  and  O1_4 
REMARK    2  A    between atoms: C2_2  and  C4_6 
REMARK    3  A    between atoms: C5_7  and  C6_8 
REMARK       I    between atoms: C6_8  and  N1_10 
REMARK    4  A    between atoms: N1_10  and  N2_12 
ROOT
HETATM    1  C6  UNL     1       0.484   5.509   9.621  1.00  0.00     0.259 C 
HETATM    2  O2  UNL     1      -0.258   5.558   8.602  1.00  0.00    -0.267 OA
HETATM    3  N1  UNL     1       0.213   4.586  10.653  1.00  0.00    -0.265 N 
ATOM      4  H1  UNL     1       0.819   4.549  11.473  1.00  0.00     0.190 HD
ENDROOT
BRANCH   1   5
HETATM    5  C5  UNL     1       1.623   6.415   9.729  1.00  0.00     0.075 C 
HETATM    6  C4  UNL     1       1.443   7.677   9.457  1.00  0.00     0.015 C 
BRANCH   6   7
HETATM    7  C2  UNL     1       2.444   8.751   9.502  1.00  0.00     0.068 C 
HETATM    8  C1  UNL     1       2.518   9.490  10.803  1.00  0.00     0.050 C 
HETATM    9  C3  UNL     1       2.111   9.725   8.371  1.00  0.00     0.050 C 
BRANCH   7  10
HETATM   10  O1  UNL     1       3.741   8.264   9.216  1.00  0.00    -0.387 OA
ATOM     11  H1  UNL     1       3.682   7.742   8.425  1.00  0.00     0.211 HD
ENDBRANCH   7  10
ENDBRANCH   6   7
ENDBRANCH   1   5
BRANCH   3  12
HETATM   12  N2  UNL     1      -0.841   3.752  10.560  1.00  0.00    -0.304 N 
HETATM   13  C7  UNL     1      -0.703   2.377  10.830  1.00  0.00     0.083 C 
HETATM   14  C8  UNL     1      -1.650   1.980  11.958  1.00  0.00     0.046 C 
HETATM   15  C9  UNL     1      -3.054   2.428  11.726  1.00  0.00     0.007 C 
HETATM   16  C10 UNL     1      -3.193   3.164  10.416  1.00  0.00     0.022 C 
HETATM   17  C11 UNL     1      -2.148   4.283  10.453  1.00  0.00     0.148 C 
ENDBRANCH   3  12
TORSDOF 4
ENDMDL
MODEL 3
REMARK VINA RESULT: -6.325309480      1.518      1.819
REMARK  4 active torsions:
REMARK  status: ('A' for Active; 'I' for Inactive)
REMARK    1  A    between atoms: C2_2  and  O1_4 
REMARK    2  A    between atoms: C2_2  and  C4_6 
REMARK    3  A    between atoms: C5_7  and  C6_8 
REMARK       I    between atoms: C6_8  and  N1_10 
REMARK    4  A    between atoms: N1_10  and  N2_12 
ROOT
HETATM    1  C6  UNL     1      -0.945   6.043   9.939  1.00  0.00     0.259 C 
HETATM    2  O2  UNL     1      -1.875   6.893   9.883  1.00  0.00    -0.267 OA
HETATM    3  N1  UNL     1       0.401   6.454   9.845  1.00  0.00    -0.265 N 
ATOM      4  H1  UNL     1       1.148   5.761   9.893  1.00  0.00     0.190 HD
ENDROOT
BRANCH   1   5
HETATM    5  C5  UNL     1      -1.270   4.629  10.097  1.00  0.00     0.075 C 
HETATM    6  C4  UNL     1      -2.402   4.308  10.659  1.00  0.00     0.015 C 
BRANCH   6   7
HETATM    7  C2  UNL     1      -2.920   2.957  10.914  1.00  0.00     0.068 C 
HETATM    8  C1  UNL     1      -2.157   2.172  11.938  1.00  0.00     0.050 C 
HETATM    9  C3  UNL     1      -2.914   2.212   9.579  1.00  0.00     0.050 C 
BRANCH   7  10
HETATM   10  O1  UNL     1      -4.273   2.990  11.326  1.00  0.00    -0.387 OA
ATOM     11  H1  UNL     1      -4.686   2.193  11.015  1.00  0.00     0.211 HD
ENDBRANCH   7  10
ENDBRANCH   6   7
ENDBRANCH   1   5
BRANCH   3  12
HETATM   12  N2  UNL     1       0.704   7.758   9.691  1.00  0.00    -0.304 N 
HETATM   13  C7  UNL     1       1.459   8.445  10.662  1.00  0.00     0.083 C 
HETATM   14  C8  UNL     1       2.720   9.016  10.019  1.00  0.00     0.046 C 
HETATM   15  C9  UNL     1       2.439   9.801   8.782  1.00  0.00     0.007 C 
HETATM   16  C10 UNL     1       0.963   9.843   8.474  1.00  0.00     0.022 C 
HETATM   17  C11 UNL     1       0.501   8.384   8.439  1.00  0.00     0.148 C 
ENDBRANCH   3  12
TORSDOF 4
ENDMDL
MODEL 4
REMARK VINA RESULT: -6.311587034      1.515      2.176
REMARK  4 active torsions:
REMARK  status: ('A' for Active; 'I' for Inactive)
REMARK    1  A    between atoms: C2_2  and  O1_4 
REMARK    2  A    between atoms: C2_2  and  C4_6 
REMARK    3  A    between atoms: C5_7  and  C6_8 
REMARK       I    between atoms: C6_8  and  N1_10 
REMARK    4  A    between atoms: N1_10  and  N2_12 
ROOT
HETATM    1  C6  UNL     1      -0.493   6.002   9.330  1.00  0.00     0.259 C 
HETATM    2  O2  UNL     1       0.206   5.522   8.397  1.00  0.00    -0.267 OA
HETATM    3  N1  UNL     1      -0.201   7.280   9.851  1.00  0.00    -0.265 N 
ATOM      4  H1  UNL     1      -0.772   7.664  10.605  1.00  0.00     0.190 HD
ENDROOT
BRANCH   1   5
HETATM    5  C5  UNL     1      -1.604   5.227   9.872  1.00  0.00     0.075 C 
HETATM    6  C4  UNL     1      -1.371   4.017  10.299  1.00  0.00     0.015 C 
BRANCH   6   7
HETATM    7  C2  UNL     1      -2.336   3.072  10.876  1.00  0.00     0.068 C 
HETATM    8  C1  UNL     1      -1.794   2.211  11.977  1.00  0.00     0.050 C 
HETATM    9  C3  UNL     1      -2.845   2.193   9.733  1.00  0.00     0.050 C 
BRANCH   7  10
HETATM   10  O1  UNL     1      -3.477   3.739  11.381  1.00  0.00    -0.387 OA
ATOM     11  H1  UNL     1      -4.218   3.480  10.847  1.00  0.00     0.211 HD
ENDBRANCH   7  10
ENDBRANCH   6   7
ENDBRANCH   1   5
BRANCH   3  12
HETATM   12  N2  UNL     1       0.828   7.997   9.359  1.00  0.00    -0.304 N 
HETATM   13  C7  UNL     1       0.632   8.924   8.316  1.00  0.00     0.083 C 
HETATM   14  C8  UNL     1       1.077  10.309   8.774  1.00  0.00     0.046 C 
HETATM   15  C9  UNL     1       2.449  10.317   9.360  1.00  0.00     0.007 C 
HETATM   16  C10 UNL     1       3.066   8.940   9.349  1.00  0.00     0.022 C 
HETATM   17  C11 UNL     1       2.060   8.025  10.054  1.00  0.00     0.148 C 
ENDBRANCH   3  12
TORSDOF 4
ENDMDL
MODEL 5
REMARK VINA RESULT: -6.255499133      2.333      6.927
REMARK  4 active torsions:
REMARK  status: ('A' for Active; 'I' for Inactive)
REMARK    1  A    between atoms: C2_2  and  O1_4 
REMARK    2  A    between atoms: C2_2  and  C4_6 
REMARK    3  A    between atoms: C5_7  and  C6_8 
REMARK       I    between atoms: C6_8  and  N1_10 
REMARK    4  A    between atoms: N1_10  and  N2_12 
ROOT
HETATM    1  C6  UNL     1      -0.407   4.455  10.124  1.00  0.00     0.259 C 
HETATM    2  O2  UNL     1      -1.595   4.857  10.257  1.00  0.00    -0.267 OA
HETATM    3  N1  UNL     1      -0.089   3.097  10.329  1.00  0.00    -0.265 N 
ATOM      4  H1  UNL     1       0.874   2.778  10.218  1.00  0.00     0.190 HD
ENDROOT
BRANCH   1   5
HETATM    5  C5  UNL     1       0.639   5.406   9.761  1.00  0.00     0.075 C 
HETATM    6  C4  UNL     1       0.555   6.627  10.210  1.00  0.00     0.015 C 
BRANCH   6   7
HETATM    7  C2  UNL     1       1.491   7.733   9.968  1.00  0.00     0.068 C 
HETATM    8  C1  UNL     1       1.728   8.627  11.147  1.00  0.00     0.050 C 
HETATM    9  C3  UNL     1       0.932   8.550   8.802  1.00  0.00     0.050 C 
BRANCH   7  10
HETATM   10  O1  UNL     1       2.752   7.261   9.532  1.00  0.00    -0.387 OA
ATOM     11  H1  UNL     1       2.730   7.223   8.584  1.00  0.00     0.211 HD
ENDBRANCH   7  10
ENDBRANCH   6   7
ENDBRANCH   1   5
BRANCH   3  12
HETATM   12  N2  UNL     1      -1.051   2.217  10.672  1.00  0.00    -0.304 N 
HETATM   13  C7  UNL     1      -1.529   2.144  11.995  1.00  0.00     0.083 C 
HETATM   14  C8  UNL     1      -3.033   2.401  12.009  1.00  0.00     0.046 C 
HETATM   15  C9  UNL     1      -3.778   1.554  11.033  1.00  0.00     0.007 C 
HETATM   16  C10 UNL     1      -2.853   0.638  10.271  1.00  0.00     0.022 C 
HETATM   17  C11 UNL     1      -1.778   1.544   9.662  1.00  0.00     0.148 C 
ENDBRANCH   3  12
TORSDOF 4
ENDMDL
