MODEL 1
REMARK VINA RESULT: -6.026254513      0.000      0.000
REMARK  4 active torsions:
REMARK  status: ('A' for Active; 'I' for Inactive)
REMARK    1  A    between atoms: C2_2  and  C3_3 
REMARK    2  A    between atoms: C3_3  and  C4_4 
REMARK    3  A    between atoms: C4_4  and  O1_5 
REMARK    4  A    between atoms: C4_4  and  C5_7 
ROOT
HETATM    1  C5  UNL     1      -4.857   0.947  10.217  1.00  0.00     0.094 C 
HETATM    2  C6  UNL     1      -5.106   1.707   8.925  1.00  0.00     0.050 C 
HETATM    3  O2  UNL     1      -6.175   0.672  10.703  1.00  0.00    -0.338 OA
HETATM    4  C7  UNL     1      -6.471  -0.623  10.551  1.00  0.00     0.199 A 
HETATM    5  O3  UNL     1      -7.345  -1.188  11.442  1.00  0.00    -0.341 OA
HETATM    6  C8  UNL     1      -5.938  -1.667  11.186  1.00  0.00     0.198 A 
HETATM    7  C9  UNL     1      -5.465  -1.245   9.772  1.00  0.00     0.096 A 
HETATM    8  C10 UNL     1      -4.226  -0.324   9.937  1.00  0.00    -0.003 C 
HETATM    9  C11 UNL     1      -3.561  -0.433   8.552  1.00  0.00     0.018 C 
HETATM   10  C12 UNL     1      -3.376  -1.015  10.915  1.00  0.00     0.018 C 
ENDROOT
BRANCH   1  11
HETATM   11  C4  UNL     1      -4.318   1.917  11.203  1.00  0.00     0.156 C 
BRANCH  11  12
HETATM   12  C3  UNL     1      -3.343   2.944  10.755  1.00  0.00     0.061 C 
BRANCH  12  13
HETATM   13  C2  UNL     1      -1.980   2.912  11.252  1.00  0.00    -0.034 C 
HETATM   14  C1  UNL     1      -1.567   2.008  12.176  1.00  0.00     0.007 C 
ENDBRANCH  12  13
ENDBRANCH  11  12
BRANCH  11  15
HETATM   15  O1  UNL     1      -5.492   2.758  11.458  1.00  0.00    -0.392 OA
ATOM     16  H1  UNL     1      -5.399   2.906  12.392  1.00  0.00     0.210 HD
ENDBRANCH  11  15
ENDBRANCH   1  11
TORSDOF 4
ENDMDL
MODEL 2
REMARK VINA RESULT: -5.715401695      2.358      5.250
REMARK  4 active torsions:
REMARK  status: ('A' for Active; 'I' for Inactive)
REMARK    1  A    between atoms: C2_2  and  C3_3 
REMARK    2  A    between atoms: C3_3  and  C4_4 
REMARK    3  A    between atoms: C4_4  and  O1_5 
REMARK    4  A    between atoms: C4_4  and  C5_7 
ROOT
HETATM    1  C5  UNL     1      -2.743   2.755  10.229  1.00  0.00     0.094 C 
HETATM    2  C6  UNL     1      -3.812   2.945  11.292  1.00  0.00     0.050 C 
HETATM    3  O2  UNL     1      -2.559   4.071   9.698  1.00  0.00    -0.338 OA
HETATM    4  C7  UNL     1      -1.395   4.584  10.106  1.00  0.00     0.199 A 
HETATM    5  O3  UNL     1      -0.772   5.489   9.287  1.00  0.00    -0.341 OA
HETATM    6  C8  UNL     1      -0.164   4.197   9.770  1.00  0.00     0.198 A 
HETATM    7  C9  UNL     1      -0.830   3.739  11.092  1.00  0.00     0.096 A 
HETATM    8  C10 UNL     1      -1.494   2.357  10.840  1.00  0.00    -0.003 C 
HETATM    9  C11 UNL     1      -1.614   1.797  12.269  1.00  0.00     0.018 C 
HETATM   10  C12 UNL     1      -0.475   1.581  10.122  1.00  0.00     0.018 C 
ENDROOT
BRANCH   1  11
HETATM   11  C4  UNL     1      -3.365   2.010   9.105  1.00  0.00     0.156 C 
BRANCH  11  12
HETATM   12  C3  UNL     1      -4.358   0.946   9.399  1.00  0.00     0.061 C 
BRANCH  12  13
HETATM   13  C2  UNL     1      -3.910  -0.412   9.647  1.00  0.00    -0.034 C 
HETATM   14  C1  UNL     1      -3.660  -0.875  10.897  1.00  0.00     0.007 C 
ENDBRANCH  12  13
ENDBRANCH  11  12
BRANCH  11  15
HETATM   15  O1  UNL     1      -4.238   3.035   8.523  1.00  0.00    -0.392 OA
ATOM     16  H1  UNL     1      -3.597   3.573   8.073  1.00  0.00     0.210 HD
ENDBRANCH  11  15
ENDBRANCH   1  11
TORSDOF 4
ENDMDL
MODEL 3
REMARK VINA RESULT: -5.628357271      1.848      2.862
REMARK  4 active torsions:
REMARK  status: ('A' for Active; 'I' for Inactive)
REMARK    1  A    between atoms: C2_2  and  C3_3 
REMARK    2  A    between atoms: C3_3  and  C4_4 
REMARK    3  A    between atoms: C4_4  and  O1_5 
REMARK    4  A    between atoms: C4_4  and  C5_7 
ROOT
HETATM    1  C5  UNL     1      -4.237   0.544  10.317  1.00  0.00     0.094 C 
HETATM    2  C6  UNL     1      -3.249  -0.347  11.050  1.00  0.00     0.050 C 
HETATM    3  O2  UNL     1      -3.617   0.756   9.044  1.00  0.00    -0.338 OA
HETATM    4  C7  UNL     1      -4.253   0.068   8.091  1.00  0.00     0.199 A 
HETATM    5  O3  UNL     1      -4.233   0.572   6.817  1.00  0.00    -0.341 OA
HETATM    6  C8  UNL     1      -5.479   0.272   7.611  1.00  0.00     0.198 A 
HETATM    7  C9  UNL     1      -5.195  -0.802   8.691  1.00  0.00     0.096 A 
HETATM    8  C10 UNL     1      -5.474  -0.168  10.081  1.00  0.00    -0.003 C 
HETATM    9  C11 UNL     1      -5.691  -1.413  10.961  1.00  0.00     0.018 C 
HETATM   10  C12 UNL     1      -6.763   0.519   9.925  1.00  0.00     0.018 C 
ENDROOT
BRANCH   1  11
HETATM   11  C4  UNL     1      -4.185   1.883  10.957  1.00  0.00     0.156 C 
BRANCH  11  12
HETATM   12  C3  UNL     1      -2.985   2.266  11.743  1.00  0.00     0.061 C 
BRANCH  12  13
HETATM   13  C2  UNL     1      -1.980   3.131  11.153  1.00  0.00    -0.034 C 
HETATM   14  C1  UNL     1      -0.696   2.732  10.974  1.00  0.00     0.007 C 
ENDBRANCH  12  13
ENDBRANCH  11  12
BRANCH  11  15
HETATM   15  O1  UNL     1      -4.030   2.758   9.791  1.00  0.00    -0.392 OA
ATOM     16  H1  UNL     1      -4.753   3.359   9.929  1.00  0.00     0.210 HD
ENDBRANCH  11  15
ENDBRANCH   1  11
TORSDOF 4
ENDMDL
MODEL 4
REMARK VINA RESULT: -5.514731664      2.286      3.288
REMARK  4 active torsions:
REMARK  status: ('A' for Active; 'I' for Inactive)
REMARK    1  A    between atoms: C2_2  and  C3_3 
REMARK    2  A    between atoms: C3_3  and  C4_4 
REMARK    3  A    between atoms: C4_4  and  O1_5 
REMARK    4  A    between atoms: C4_4  and  C5_7 
ROOT
HETATM    1  C5  UNL     1      -3.502   1.189   9.926  1.00  0.00     0.094 C 
HETATM    2  C6  UNL     1      -2.441   0.590  10.833  1.00  0.00     0.050 C 
HETATM    3  O2  UNL     1      -2.823   1.353   8.677  1.00  0.00    -0.338 OA
HETATM    4  C7  UNL     1      -3.247   0.449   7.789  1.00  0.00     0.199 A 
HETATM    5  O3  UNL     1      -3.206   0.787   6.462  1.00  0.00    -0.341 OA
HETATM    6  C8  UNL     1      -4.445   0.364   7.211  1.00  0.00     0.198 A 
HETATM    7  C9  UNL     1      -4.072  -0.499   8.443  1.00  0.00     0.096 A 
HETATM    8  C10 UNL     1      -4.574   0.240   9.714  1.00  0.00    -0.003 C 
HETATM    9  C11 UNL     1      -4.645  -0.906  10.740  1.00  0.00     0.018 C 
HETATM   10  C12 UNL     1      -5.943   0.656   9.387  1.00  0.00     0.018 C 
ENDROOT
BRANCH   1  11
HETATM   11  C4  UNL     1      -3.737   2.583  10.380  1.00  0.00     0.156 C 
BRANCH  11  12
HETATM   12  C3  UNL     1      -2.666   3.296  11.124  1.00  0.00     0.061 C 
BRANCH  12  13
HETATM   13  C2  UNL     1      -1.824   4.255  10.435  1.00  0.00    -0.034 C 
HETATM   14  C1  UNL     1      -0.474   4.132  10.390  1.00  0.00     0.007 C 
ENDBRANCH  12  13
ENDBRANCH  11  12
BRANCH  11  15
HETATM   15  O1  UNL     1      -3.708   3.313   9.109  1.00  0.00    -0.392 OA
ATOM     16  H1  UNL     1      -3.231   2.696   8.566  1.00  0.00     0.210 HD
ENDBRANCH  11  15
ENDBRANCH   1  11
TORSDOF 4
ENDMDL
MODEL 5
REMARK VINA RESULT: -5.442659874      2.090      2.781
REMARK  4 active torsions:
REMARK  status: ('A' for Active; 'I' for Inactive)
REMARK    1  A    between atoms: C2_2  and  C3_3 
REMARK    2  A    between atoms: C3_3  and  C4_4 
REMARK    3  A    between atoms: C4_4  and  O1_5 
REMARK    4  A    between atoms: C4_4  and  C5_7 
ROOT
HETATM    1  C5  UNL     1      -4.147   1.571   9.090  1.00  0.00     0.094 C 
HETATM    2  C6  UNL     1      -3.156   0.610   8.456  1.00  0.00     0.050 C 
HETATM    3  O2  UNL     1      -5.009   1.929   8.005  1.00  0.00    -0.338 OA
HETATM    4  C7  UNL     1      -6.204   1.347   8.143  1.00  0.00     0.199 A 
HETATM    5  O3  UNL     1      -7.293   1.990   7.616  1.00  0.00    -0.341 OA
HETATM    6  C8  UNL     1      -7.137   1.594   9.062  1.00  0.00     0.198 A 
HETATM    7  C9  UNL     1      -6.149   0.408   9.202  1.00  0.00     0.096 A 
HETATM    8  C10 UNL     1      -4.954   0.881  10.073  1.00  0.00    -0.003 C 
HETATM    9  C11 UNL     1      -4.376  -0.456  10.572  1.00  0.00     0.018 C 
HETATM   10  C12 UNL     1      -5.573   1.572  11.211  1.00  0.00     0.018 C 
ENDROOT
BRANCH   1  11
HETATM   11  C4  UNL     1      -3.417   2.830   9.384  1.00  0.00     0.156 C 
BRANCH  11  12
HETATM   12  C3  UNL     1      -2.109   2.765  10.086  1.00  0.00     0.061 C 
BRANCH  12  13
HETATM   13  C2  UNL     1      -2.062   2.844  11.534  1.00  0.00    -0.034 C 
HETATM   14  C1  UNL     1      -1.866   1.751  12.312  1.00  0.00     0.007 C 
ENDBRANCH  12  13
ENDBRANCH  11  12
BRANCH  11  15
HETATM   15  O1  UNL     1      -2.980   3.234   8.044  1.00  0.00    -0.392 OA
ATOM     16  H1  UNL     1      -3.768   3.661   7.727  1.00  0.00     0.210 HD
ENDBRANCH  11  15
ENDBRANCH   1  11
TORSDOF 4
ENDMDL
