MODEL 1
REMARK VINA RESULT: -7.140382475      0.000      0.000
REMARK  3 active torsions:
REMARK  status: ('A' for Active; 'I' for Inactive)
REMARK    1  A    between atoms: C1_2  and  C2_4 
REMARK    2  A    between atoms: C5_7  and  N1_8 
REMARK    3  A    between atoms: N1_8  and  C6_10 
ROOT
HETATM    1  C2  UNL     1      -3.141   2.907  11.242  1.00  0.00     0.089 C 
HETATM    2  C3  UNL     1      -2.153   2.166  12.097  1.00  0.00     0.017 C 
HETATM    3  C4  UNL     1      -0.773   2.319  11.470  1.00  0.00     0.026 C 
HETATM    4  C5  UNL     1      -1.015   3.595  10.634  1.00  0.00     0.077 C 
HETATM    5  C11 UNL     1      -2.298   3.232   9.972  1.00  0.00     0.040 C 
ENDROOT
BRANCH   4   6
HETATM    6  N1  UNL     1       0.107   3.916   9.898  1.00  0.00    -0.413 N 
ATOM      7  H1  UNL     1       0.661   3.144   9.526  1.00  0.00     0.154 HD
BRANCH   6   8
HETATM    8  C6  UNL     1       0.544   5.203   9.623  1.00  0.00     0.081 C 
HETATM    9  C7  UNL     1       1.501   5.769  10.610  1.00  0.00     0.051 C 
HETATM   10  C8  UNL     1       1.628   7.288  10.480  1.00  0.00     0.169 C 
HETATM   11  O3  UNL     1       0.438   7.928  10.282  1.00  0.00    -0.391 OA
HETATM   12  C9  UNL     1      -0.178   7.537   9.086  1.00  0.00     0.169 C 
HETATM   13  C10 UNL     1      -0.651   6.102   9.341  1.00  0.00     0.051 C 
ENDBRANCH   6   8
ENDBRANCH   4   6
BRANCH   1  14
HETATM   14  C1  UNL     1      -4.286   2.077  10.899  1.00  0.00     0.177 C 
HETATM   15  O1  UNL     1      -4.218   1.271   9.921  1.00  0.00    -0.648 OA
HETATM   16  O2  UNL     1      -5.494   2.138  11.630  1.00  0.00    -0.648 OA
ENDBRANCH   1  14
TORSDOF 3
ENDMDL
MODEL 2
REMARK VINA RESULT: -6.663665040      1.046      1.664
REMARK  3 active torsions:
REMARK  status: ('A' for Active; 'I' for Inactive)
REMARK    1  A    between atoms: C1_2  and  C2_4 
REMARK    2  A    between atoms: C5_7  and  N1_8 
REMARK    3  A    between atoms: N1_8  and  C6_10 
ROOT
HETATM    1  C2  UNL     1      -3.325   2.779  11.511  1.00  0.00     0.089 C 
HETATM    2  C3  UNL     1      -2.058   2.106  11.955  1.00  0.00     0.017 C 
HETATM    3  C4  UNL     1      -0.913   2.640  11.105  1.00  0.00     0.026 C 
HETATM    4  C5  UNL     1      -1.542   3.973  10.642  1.00  0.00     0.077 C 
HETATM    5  C11 UNL     1      -2.877   3.488  10.198  1.00  0.00     0.040 C 
ENDROOT
BRANCH   4   6
HETATM    6  N1  UNL     1      -0.696   4.638   9.778  1.00  0.00    -0.413 N 
ATOM      7  H1  UNL     1      -0.076   4.071   9.199  1.00  0.00     0.154 HD
BRANCH   6   8
HETATM    8  C6  UNL     1      -0.619   6.015   9.633  1.00  0.00     0.081 C 
HETATM    9  C7  UNL     1      -1.548   6.596   8.629  1.00  0.00     0.051 C 
HETATM   10  C8  UNL     1      -1.148   8.019   8.232  1.00  0.00     0.169 C 
HETATM   11  O3  UNL     1       0.196   8.186   8.053  1.00  0.00    -0.391 OA
HETATM   12  C9  UNL     1       0.917   7.947   9.230  1.00  0.00     0.169 C 
HETATM   13  C10 UNL     1       0.831   6.433   9.441  1.00  0.00     0.051 C 
ENDBRANCH   6   8
ENDBRANCH   4   6
BRANCH   1  14
HETATM   14  C1  UNL     1      -4.380   1.814  11.238  1.00  0.00     0.177 C 
HETATM   15  O1  UNL     1      -4.113   0.733  10.629  1.00  0.00    -0.648 OA
HETATM   16  O2  UNL     1      -5.717   2.043  11.635  1.00  0.00    -0.648 OA
ENDBRANCH   1  14
TORSDOF 3
ENDMDL
MODEL 3
REMARK VINA RESULT: -6.577493461      2.418      6.763
REMARK  3 active torsions:
REMARK  status: ('A' for Active; 'I' for Inactive)
REMARK    1  A    between atoms: C1_2  and  C2_4 
REMARK    2  A    between atoms: C5_7  and  N1_8 
REMARK    3  A    between atoms: N1_8  and  C6_10 
ROOT
HETATM    1  C2  UNL     1      -1.228   3.801  10.119  1.00  0.00     0.089 C 
HETATM    2  C3  UNL     1      -0.818   2.818  11.179  1.00  0.00     0.017 C 
HETATM    3  C4  UNL     1      -2.070   2.377  11.927  1.00  0.00     0.026 C 
HETATM    4  C5  UNL     1      -3.135   2.717  10.862  1.00  0.00     0.077 C 
HETATM    5  C11 UNL     1      -2.710   4.097  10.502  1.00  0.00     0.040 C 
ENDROOT
BRANCH   4   6
HETATM    6  N1  UNL     1      -4.403   2.458  11.340  1.00  0.00    -0.413 N 
ATOM      7  H1  UNL     1      -4.730   3.016  12.129  1.00  0.00     0.154 HD
BRANCH   6   8
HETATM    8  C6  UNL     1      -5.271   1.501  10.834  1.00  0.00     0.081 C 
HETATM    9  C7  UNL     1      -6.465   1.226  11.675  1.00  0.00     0.051 C 
HETATM   10  C8  UNL     1      -7.151  -0.085  11.284  1.00  0.00     0.169 C 
HETATM   11  O3  UNL     1      -6.285  -1.108  11.024  1.00  0.00    -0.391 OA
HETATM   12  C9  UNL     1      -5.449  -0.826   9.935  1.00  0.00     0.169 C 
HETATM   13  C10 UNL     1      -4.490   0.253  10.448  1.00  0.00     0.051 C 
ENDBRANCH   6   8
ENDBRANCH   4   6
BRANCH   1  14
HETATM   14  C1  UNL     1      -0.431   5.018  10.176  1.00  0.00     0.177 C 
HETATM   15  O1  UNL     1       0.833   4.956  10.080  1.00  0.00    -0.648 OA
HETATM   16  O2  UNL     1      -1.026   6.289  10.337  1.00  0.00    -0.648 OA
ENDBRANCH   1  14
TORSDOF 3
ENDMDL
MODEL 4
REMARK VINA RESULT: -6.441395129      1.394      1.575
REMARK  3 active torsions:
REMARK  status: ('A' for Active; 'I' for Inactive)
REMARK    1  A    between atoms: C1_2  and  C2_4 
REMARK    2  A    between atoms: C5_7  and  N1_8 
REMARK    3  A    between atoms: N1_8  and  C6_10 
ROOT
HETATM    1  C2  UNL     1      -3.006   1.311  10.625  1.00  0.00     0.089 C 
HETATM    2  C3  UNL     1      -2.486   1.496  12.022  1.00  0.00     0.017 C 
HETATM    3  C4  UNL     1      -1.113   2.149  11.935  1.00  0.00     0.026 C 
HETATM    4  C5  UNL     1      -1.224   2.786  10.533  1.00  0.00     0.077 C 
HETATM    5  C11 UNL     1      -1.748   1.625   9.762  1.00  0.00     0.040 C 
ENDROOT
BRANCH   4   6
HETATM    6  N1  UNL     1      -0.041   3.405  10.182  1.00  0.00    -0.413 N 
ATOM      7  H1  UNL     1       0.821   2.875  10.309  1.00  0.00     0.154 HD
BRANCH   6   8
HETATM    8  C6  UNL     1       0.070   4.690   9.671  1.00  0.00     0.081 C 
HETATM    9  C7  UNL     1       1.208   5.484  10.203  1.00  0.00     0.051 C 
HETATM   10  C8  UNL     1       1.047   6.979   9.921  1.00  0.00     0.169 C 
HETATM   11  O3  UNL     1      -0.222   7.445  10.114  1.00  0.00    -0.391 OA
HETATM   12  C9  UNL     1      -1.144   6.836   9.252  1.00  0.00     0.169 C 
HETATM   13  C10 UNL     1      -1.272   5.400   9.769  1.00  0.00     0.051 C 
ENDBRANCH   6   8
ENDBRANCH   4   6
BRANCH   1  14
HETATM   14  C1  UNL     1      -3.459  -0.053  10.395  1.00  0.00     0.177 C 
HETATM   15  O1  UNL     1      -4.171  -0.325   9.380  1.00  0.00    -0.648 OA
HETATM   16  O2  UNL     1      -3.127  -1.105  11.278  1.00  0.00    -0.648 OA
ENDBRANCH   1  14
TORSDOF 3
ENDMDL
MODEL 5
REMARK VINA RESULT: -6.426557208      1.493      2.031
REMARK  3 active torsions:
REMARK  status: ('A' for Active; 'I' for Inactive)
REMARK    1  A    between atoms: C1_2  and  C2_4 
REMARK    2  A    between atoms: C5_7  and  N1_8 
REMARK    3  A    between atoms: N1_8  and  C6_10 
ROOT
HETATM    1  C2  UNL     1      -3.023   1.278  10.689  1.00  0.00     0.089 C 
HETATM    2  C3  UNL     1      -2.389   1.385  12.046  1.00  0.00     0.017 C 
HETATM    3  C4  UNL     1      -1.076   2.143  11.899  1.00  0.00     0.026 C 
HETATM    4  C5  UNL     1      -1.359   2.883  10.573  1.00  0.00     0.077 C 
HETATM    5  C11 UNL     1      -1.874   1.754   9.751  1.00  0.00     0.040 C 
ENDROOT
BRANCH   4   6
HETATM    6  N1  UNL     1      -0.257   3.615  10.178  1.00  0.00    -0.413 N 
ATOM      7  H1  UNL     1       0.579   3.096   9.909  1.00  0.00     0.154 HD
BRANCH   6   8
HETATM    8  C6  UNL     1      -0.195   5.000  10.117  1.00  0.00     0.081 C 
HETATM    9  C7  UNL     1      -1.311   5.649   9.381  1.00  0.00     0.051 C 
HETATM   10  C8  UNL     1      -0.986   7.097   9.007  1.00  0.00     0.169 C 
HETATM   11  O3  UNL     1       0.289   7.278   8.554  1.00  0.00    -0.391 OA
HETATM   12  C9  UNL     1       1.245   6.958   9.527  1.00  0.00     0.169 C 
HETATM   13  C10 UNL     1       1.185   5.432   9.645  1.00  0.00     0.051 C 
ENDBRANCH   6   8
ENDBRANCH   4   6
BRANCH   1  14
HETATM   14  C1  UNL     1      -3.403  -0.093  10.379  1.00  0.00     0.177 C 
HETATM   15  O1  UNL     1      -3.977  -0.361   9.279  1.00  0.00    -0.648 OA
HETATM   16  O2  UNL     1      -3.151  -1.155  11.276  1.00  0.00    -0.648 OA
ENDBRANCH   1  14
TORSDOF 3
ENDMDL
