MODEL 1
REMARK VINA RESULT: -6.502617224      0.000      0.000
REMARK  4 active torsions:
REMARK  status: ('A' for Active; 'I' for Inactive)
REMARK    1  A    between atoms: C2_2  and  C4_4 
REMARK    2  A    between atoms: C4_4  and  N4_11 
REMARK    3  A    between atoms: N1_5  and  N2_7 
REMARK    4  A    between atoms: N4_11  and  C6_13 
ROOT
HETATM    1  N2  UNL     1       0.359   4.098  10.404  1.00  0.00    -0.235 N 
ATOM      2  H2  UNL     1       0.590   4.106  11.397  1.00  0.00     0.199 HD
HETATM    3  C5  UNL     1       0.549   5.243   9.635  1.00  0.00     0.197 C 
HETATM    4  N3  UNL     1       0.693   6.210   8.997  1.00  0.00    -0.170 NA
ENDROOT
BRANCH   1   5
HETATM    5  N1  UNL     1      -0.142   2.960   9.825  1.00  0.00    -0.280 N 
HETATM    6  C4  UNL     1      -1.145   2.287  10.276  1.00  0.00     0.096 C 
ATOM      7  H1  UNL     1       0.311   2.622   8.976  1.00  0.00     0.189 HD
BRANCH   6   8
HETATM    8  C2  UNL     1      -1.806   2.780  11.513  1.00  0.00     0.046 C 
HETATM    9  C1  UNL     1      -1.928   1.630  12.503  1.00  0.00     0.017 C 
HETATM   10  C3  UNL     1      -3.177   3.370  11.230  1.00  0.00     0.017 C 
ENDBRANCH   6   8
BRANCH   6  11
HETATM   11  N4  UNL     1      -1.574   1.136   9.605  1.00  0.00    -0.374 N 
ATOM     12  H4  UNL     1      -0.908   0.367   9.520  1.00  0.00     0.161 HD
BRANCH  11  13
HETATM   13  C6  UNL     1      -2.869   0.947   9.028  1.00  0.00     0.082 C 
HETATM   14  C7  UNL     1      -2.796   0.520   7.557  1.00  0.00     0.025 C 
HETATM   15  C8  UNL     1      -4.166   0.434   6.980  1.00  0.00     0.002 C 
HETATM   16  C9  UNL     1      -5.158  -0.334   7.747  1.00  0.00     0.000 C 
HETATM   17  C10 UNL     1      -5.022  -0.296   9.234  1.00  0.00     0.002 C 
HETATM   18  C11 UNL     1      -3.612  -0.167   9.720  1.00  0.00     0.025 C 
ENDBRANCH  11  13
ENDBRANCH   6  11
ENDBRANCH   1   5
TORSDOF 4
ENDMDL
MODEL 2
REMARK VINA RESULT: -6.472198007      2.242      2.886
REMARK  4 active torsions:
REMARK  status: ('A' for Active; 'I' for Inactive)
REMARK    1  A    between atoms: C2_2  and  C4_4 
REMARK    2  A    between atoms: C4_4  and  N4_11 
REMARK    3  A    between atoms: N1_5  and  N2_7 
REMARK    4  A    between atoms: N4_11  and  C6_13 
ROOT
HETATM    1  N2  UNL     1      -2.103   4.556   9.305  1.00  0.00    -0.235 N 
ATOM      2  H2  UNL     1      -1.366   3.978   8.902  1.00  0.00     0.199 HD
HETATM    3  C5  UNL     1      -2.006   5.943   9.254  1.00  0.00     0.197 C 
HETATM    4  N3  UNL     1      -1.912   7.107   9.226  1.00  0.00    -0.170 NA
ENDROOT
BRANCH   1   5
HETATM    5  N1  UNL     1      -3.191   3.967   9.899  1.00  0.00    -0.280 N 
HETATM    6  C4  UNL     1      -3.129   2.997  10.745  1.00  0.00     0.096 C 
ATOM      7  H1  UNL     1      -4.115   4.323   9.652  1.00  0.00     0.189 HD
BRANCH   6   8
HETATM    8  C2  UNL     1      -1.783   2.480  11.105  1.00  0.00     0.046 C 
HETATM    9  C1  UNL     1      -1.344   1.468  10.054  1.00  0.00     0.017 C 
HETATM   10  C3  UNL     1      -1.766   1.840  12.482  1.00  0.00     0.017 C 
ENDBRANCH   6   8
BRANCH   6  11
HETATM   11  N4  UNL     1      -4.306   2.469  11.291  1.00  0.00    -0.374 N 
ATOM     12  H4  UNL     1      -4.590   2.811  12.209  1.00  0.00     0.161 HD
BRANCH  11  13
HETATM   13  C6  UNL     1      -5.142   1.490  10.669  1.00  0.00     0.082 C 
HETATM   14  C7  UNL     1      -4.494   0.101  10.643  1.00  0.00     0.025 C 
HETATM   15  C8  UNL     1      -5.360  -0.854   9.899  1.00  0.00     0.002 C 
HETATM   16  C9  UNL     1      -6.779  -0.895  10.283  1.00  0.00     0.000 C 
HETATM   17  C10 UNL     1      -7.381   0.394  10.738  1.00  0.00     0.002 C 
HETATM   18  C11 UNL     1      -6.424   1.307  11.439  1.00  0.00     0.025 C 
ENDBRANCH  11  13
ENDBRANCH   6  11
ENDBRANCH   1   5
TORSDOF 4
ENDMDL
MODEL 3
REMARK VINA RESULT: -6.426743637      1.738      5.340
REMARK  4 active torsions:
REMARK  status: ('A' for Active; 'I' for Inactive)
REMARK    1  A    between atoms: C2_2  and  C4_4 
REMARK    2  A    between atoms: C4_4  and  N4_11 
REMARK    3  A    between atoms: N1_5  and  N2_7 
REMARK    4  A    between atoms: N4_11  and  C6_13 
ROOT
HETATM    1  N2  UNL     1      -2.702   0.376   8.707  1.00  0.00    -0.235 N 
ATOM      2  H2  UNL     1      -2.872  -0.397   9.350  1.00  0.00     0.199 HD
HETATM    3  C5  UNL     1      -3.484   0.515   7.564  1.00  0.00     0.197 C 
HETATM    4  N3  UNL     1      -4.128   0.618   6.595  1.00  0.00    -0.170 NA
ENDROOT
BRANCH   1   5
HETATM    5  N1  UNL     1      -1.704   1.281   8.968  1.00  0.00    -0.280 N 
HETATM    6  C4  UNL     1      -1.532   1.878  10.098  1.00  0.00     0.096 C 
ATOM      7  H1  UNL     1      -1.051   1.496   8.215  1.00  0.00     0.189 HD
BRANCH   6   8
HETATM    8  C2  UNL     1      -2.483   1.563  11.196  1.00  0.00     0.046 C 
HETATM    9  C1  UNL     1      -3.693   2.481  11.083  1.00  0.00     0.017 C 
HETATM   10  C3  UNL     1      -1.843   1.713  12.566  1.00  0.00     0.017 C 
ENDBRANCH   6   8
BRANCH   6  11
HETATM   11  N4  UNL     1      -0.478   2.786  10.256  1.00  0.00    -0.374 N 
ATOM     12  H4  UNL     1       0.463   2.400  10.343  1.00  0.00     0.161 HD
BRANCH  11  13
HETATM   13  C6  UNL     1      -0.610   4.209  10.305  1.00  0.00     0.082 C 
HETATM   14  C7  UNL     1       0.640   4.929   9.785  1.00  0.00     0.025 C 
HETATM   15  C8  UNL     1       0.488   6.401   9.950  1.00  0.00     0.002 C 
HETATM   16  C9  UNL     1      -0.760   6.996   9.450  1.00  0.00     0.000 C 
HETATM   17  C10 UNL     1      -1.986   6.147   9.546  1.00  0.00     0.002 C 
HETATM   18  C11 UNL     1      -1.729   4.678   9.411  1.00  0.00     0.025 C 
ENDBRANCH  11  13
ENDBRANCH   6  11
ENDBRANCH   1   5
TORSDOF 4
ENDMDL
MODEL 4
REMARK VINA RESULT: -6.409393741      2.865      5.825
REMARK  4 active torsions:
REMARK  status: ('A' for Active; 'I' for Inactive)
REMARK    1  A    between atoms: C2_2  and  C4_4 
REMARK    2  A    between atoms: C4_4  and  N4_11 
REMARK    3  A    between atoms: N1_5  and  N2_7 
REMARK    4  A    between atoms: N4_11  and  C6_13 
ROOT
HETATM    1  N2  UNL     1      -5.328   2.260  11.620  1.00  0.00    -0.235 N 
ATOM      2  H2  UNL     1      -5.195   2.395  12.622  1.00  0.00     0.199 HD
HETATM    3  C5  UNL     1      -6.389   1.487  11.156  1.00  0.00     0.197 C 
HETATM    4  N3  UNL     1      -7.268   0.822  10.770  1.00  0.00    -0.170 NA
ENDROOT
BRANCH   1   5
HETATM    5  N1  UNL     1      -4.462   2.840  10.727  1.00  0.00    -0.280 N 
HETATM    6  C4  UNL     1      -3.201   2.580  10.655  1.00  0.00     0.096 C 
ATOM      7  H1  UNL     1      -4.842   3.525  10.075  1.00  0.00     0.189 HD
BRANCH   6   8
HETATM    8  C2  UNL     1      -2.647   1.580  11.605  1.00  0.00     0.046 C 
HETATM    9  C1  UNL     1      -1.293   2.067  12.104  1.00  0.00     0.017 C 
HETATM   10  C3  UNL     1      -2.504   0.207  10.970  1.00  0.00     0.017 C 
ENDBRANCH   6   8
BRANCH   6  11
HETATM   11  N4  UNL     1      -2.406   3.231   9.704  1.00  0.00    -0.374 N 
ATOM     12  H4  UNL     1      -2.006   2.661   8.958  1.00  0.00     0.161 HD
BRANCH  11  13
HETATM   13  C6  UNL     1      -2.108   4.630   9.691  1.00  0.00     0.082 C 
HETATM   14  C7  UNL     1      -0.621   4.912   9.935  1.00  0.00     0.025 C 
HETATM   15  C8  UNL     1      -0.383   6.380  10.010  1.00  0.00     0.002 C 
HETATM   16  C9  UNL     1      -0.947   7.195   8.923  1.00  0.00     0.000 C 
HETATM   17  C10 UNL     1      -2.235   6.720   8.335  1.00  0.00     0.002 C 
HETATM   18  C11 UNL     1      -2.402   5.232   8.341  1.00  0.00     0.025 C 
ENDBRANCH  11  13
ENDBRANCH   6  11
ENDBRANCH   1   5
TORSDOF 4
ENDMDL
MODEL 5
REMARK VINA RESULT: -6.387363159      2.864      3.603
REMARK  4 active torsions:
REMARK  status: ('A' for Active; 'I' for Inactive)
REMARK    1  A    between atoms: C2_2  and  C4_4 
REMARK    2  A    between atoms: C4_4  and  N4_11 
REMARK    3  A    between atoms: N1_5  and  N2_7 
REMARK    4  A    between atoms: N4_11  and  C6_13 
ROOT
HETATM    1  N2  UNL     1      -2.858   3.814   7.526  1.00  0.00    -0.235 N 
ATOM      2  H2  UNL     1      -1.886   4.050   7.726  1.00  0.00     0.199 HD
HETATM    3  C5  UNL     1      -3.368   3.988   6.243  1.00  0.00     0.197 C 
HETATM    4  N3  UNL     1      -3.798   4.154   5.170  1.00  0.00    -0.170 NA
ENDROOT
BRANCH   1   5
HETATM    5  N1  UNL     1      -3.664   3.323   8.522  1.00  0.00    -0.280 N 
HETATM    6  C4  UNL     1      -3.287   3.122   9.739  1.00  0.00     0.096 C 
ATOM      7  H1  UNL     1      -4.631   3.102   8.283  1.00  0.00     0.189 HD
BRANCH   6   8
HETATM    8  C2  UNL     1      -1.879   3.446  10.087  1.00  0.00     0.046 C 
HETATM    9  C1  UNL     1      -1.482   2.658  11.329  1.00  0.00     0.017 C 
HETATM   10  C3  UNL     1      -1.677   4.932  10.327  1.00  0.00     0.017 C 
ENDBRANCH   6   8
BRANCH   6  11
HETATM   11  N4  UNL     1      -4.195   2.616  10.677  1.00  0.00    -0.374 N 
ATOM     12  H4  UNL     1      -4.285   3.120  11.560  1.00  0.00     0.161 HD
BRANCH  11  13
HETATM   13  C6  UNL     1      -5.005   1.451  10.502  1.00  0.00     0.082 C 
HETATM   14  C7  UNL     1      -4.219   0.154  10.728  1.00  0.00     0.025 C 
HETATM   15  C8  UNL     1      -5.080  -1.025  10.437  1.00  0.00     0.002 C 
HETATM   16  C9  UNL     1      -6.406  -1.045  11.074  1.00  0.00     0.000 C 
HETATM   17  C10 UNL     1      -7.068   0.279  11.272  1.00  0.00     0.002 C 
HETATM   18  C11 UNL     1      -6.120   1.411  11.516  1.00  0.00     0.025 C 
ENDBRANCH  11  13
ENDBRANCH   6  11
ENDBRANCH   1   5
TORSDOF 4
ENDMDL
