MODEL 1
REMARK VINA RESULT: -6.347133478      0.000      0.000
REMARK  3 active torsions:
REMARK  status: ('A' for Active; 'I' for Inactive)
REMARK    1  A    between atoms: C2_2  and  C3_6 
REMARK    2  A    between atoms: C3_6  and  N3_9 
REMARK       I    between atoms: N3_9  and  C5_11 
REMARK    3  A    between atoms: C5_11  and  C6_13 
ROOT
HETATM    1  C3  UNL     1      -0.973   5.640   9.222  1.00  0.00     0.237 C 
HETATM    2  C4  UNL     1      -0.228   6.557  10.119  1.00  0.00     0.090 C 
HETATM    3  N2  UNL     1       0.365   7.264  10.817  1.00  0.00    -0.195 NA
ENDROOT
BRANCH   1   4
HETATM    4  C2  UNL     1      -1.620   6.470   8.173  1.00  0.00     0.013 C 
HETATM    5  C1  UNL     1      -2.713   5.958   7.306  1.00  0.00     0.066 C 
HETATM    6  N1  UNL     1      -1.210   7.670   8.022  1.00  0.00    -0.403 N 
ATOM      7  H12 UNL     1      -1.654   8.239   7.302  1.00  0.00     0.155 HD
ATOM      8  H11 UNL     1      -0.460   8.021   8.617  1.00  0.00     0.155 HD
ENDBRANCH   1   4
BRANCH   1   9
HETATM    9  N3  UNL     1      -1.974   4.912   9.980  1.00  0.00    -0.339 N 
HETATM   10  C5  UNL     1      -1.701   3.656  10.586  1.00  0.00     0.223 C 
HETATM   11  O1  UNL     1      -0.551   3.182  10.450  1.00  0.00    -0.273 OA
ATOM     12  H3  UNL     1      -2.906   5.315  10.081  1.00  0.00     0.164 HD
BRANCH  10  13
HETATM   13  C6  UNL     1      -2.772   2.980  11.339  1.00  0.00     0.085 C 
HETATM   14  C7  UNL     1      -2.155   1.875  12.199  1.00  0.00     0.015 C 
HETATM   15  C8  UNL     1      -2.639   0.894  11.126  1.00  0.00     0.010 C 
HETATM   16  C9  UNL     1      -3.595   1.963  10.634  1.00  0.00    -0.036 C 
HETATM   17  C10 UNL     1      -3.745   2.059   9.154  1.00  0.00     0.015 C 
HETATM   18  C11 UNL     1      -4.975   1.760  11.275  1.00  0.00     0.015 C 
ENDBRANCH  10  13
ENDBRANCH   1   9
TORSDOF 3
ENDMDL
MODEL 2
REMARK VINA RESULT: -6.344108780      2.292      3.994
REMARK  3 active torsions:
REMARK  status: ('A' for Active; 'I' for Inactive)
REMARK    1  A    between atoms: C2_2  and  C3_6 
REMARK    2  A    between atoms: C3_6  and  N3_9 
REMARK       I    between atoms: N3_9  and  C5_11 
REMARK    3  A    between atoms: C5_11  and  C6_13 
ROOT
HETATM    1  C3  UNL     1      -2.658   3.690  10.544  1.00  0.00     0.237 C 
HETATM    2  C4  UNL     1      -2.303   4.797   9.624  1.00  0.00     0.090 C 
HETATM    3  N2  UNL     1      -2.034   5.670   8.913  1.00  0.00    -0.195 NA
ENDROOT
BRANCH   1   4
HETATM    4  C2  UNL     1      -1.397   2.998  10.918  1.00  0.00     0.013 C 
HETATM    5  C1  UNL     1      -1.312   2.045  12.056  1.00  0.00     0.066 C 
HETATM    6  N1  UNL     1      -0.354   3.240  10.223  1.00  0.00    -0.403 N 
ATOM      7  H12 UNL     1       0.511   2.764  10.479  1.00  0.00     0.155 HD
ATOM      8  H11 UNL     1      -0.413   3.893   9.442  1.00  0.00     0.155 HD
ENDBRANCH   1   4
BRANCH   1   9
HETATM    9  N3  UNL     1      -3.565   2.768   9.884  1.00  0.00    -0.339 N 
HETATM   10  C5  UNL     1      -4.651   2.154  10.565  1.00  0.00     0.223 C 
HETATM   11  O1  UNL     1      -4.812   2.434  11.774  1.00  0.00    -0.273 OA
ATOM     12  H3  UNL     1      -3.418   2.554   8.898  1.00  0.00     0.164 HD
BRANCH  10  13
HETATM   13  C6  UNL     1      -5.526   1.230   9.824  1.00  0.00     0.085 C 
HETATM   14  C7  UNL     1      -6.914   1.237  10.465  1.00  0.00     0.015 C 
HETATM   15  C8  UNL     1      -6.514  -0.083  11.133  1.00  0.00     0.010 C 
HETATM   16  C9  UNL     1      -5.411  -0.226  10.102  1.00  0.00    -0.036 C 
HETATM   17  C10 UNL     1      -4.118  -0.760  10.615  1.00  0.00     0.015 C 
HETATM   18  C11 UNL     1      -5.899  -1.098   8.938  1.00  0.00     0.015 C 
ENDBRANCH  10  13
ENDBRANCH   1   9
TORSDOF 3
ENDMDL
MODEL 3
REMARK VINA RESULT: -6.217612317      1.505      2.906
REMARK  3 active torsions:
REMARK  status: ('A' for Active; 'I' for Inactive)
REMARK    1  A    between atoms: C2_2  and  C3_6 
REMARK    2  A    between atoms: C3_6  and  N3_9 
REMARK       I    between atoms: N3_9  and  C5_11 
REMARK    3  A    between atoms: C5_11  and  C6_13 
ROOT
HETATM    1  C3  UNL     1      -0.453   5.448   9.843  1.00  0.00     0.237 C 
HETATM    2  C4  UNL     1      -0.956   6.235   8.691  1.00  0.00     0.090 C 
HETATM    3  N2  UNL     1      -1.357   6.855   7.800  1.00  0.00    -0.195 NA
ENDROOT
BRANCH   1   4
HETATM    4  C2  UNL     1       1.029   5.549   9.842  1.00  0.00     0.013 C 
HETATM    5  C1  UNL     1       1.771   6.478  10.734  1.00  0.00     0.066 C 
HETATM    6  N1  UNL     1       1.679   4.800   9.036  1.00  0.00    -0.403 N 
ATOM      7  H12 UNL     1       2.696   4.870   9.035  1.00  0.00     0.155 HD
ATOM      8  H11 UNL     1       1.169   4.163   8.424  1.00  0.00     0.155 HD
ENDBRANCH   1   4
BRANCH   1   9
HETATM    9  N3  UNL     1      -0.866   4.061   9.713  1.00  0.00    -0.339 N 
HETATM   10  C5  UNL     1      -2.145   3.609  10.133  1.00  0.00     0.223 C 
HETATM   11  O1  UNL     1      -2.927   4.452  10.628  1.00  0.00    -0.273 OA
ATOM     12  H3  UNL     1      -0.215   3.390   9.307  1.00  0.00     0.164 HD
BRANCH  10  13
HETATM   13  C6  UNL     1      -2.488   2.186   9.968  1.00  0.00     0.085 C 
HETATM   14  C7  UNL     1      -3.986   2.064   9.683  1.00  0.00     0.015 C 
HETATM   15  C8  UNL     1      -4.142   1.667  11.155  1.00  0.00     0.010 C 
HETATM   16  C9  UNL     1      -2.658   1.355  11.189  1.00  0.00    -0.036 C 
HETATM   17  C10 UNL     1      -1.946   1.754  12.436  1.00  0.00     0.015 C 
HETATM   18  C11 UNL     1      -2.437  -0.141  10.930  1.00  0.00     0.015 C 
ENDBRANCH  10  13
ENDBRANCH   1   9
TORSDOF 3
ENDMDL
MODEL 4
REMARK VINA RESULT: -6.113439574      5.380      7.603
REMARK  3 active torsions:
REMARK  status: ('A' for Active; 'I' for Inactive)
REMARK    1  A    between atoms: C2_2  and  C3_6 
REMARK    2  A    between atoms: C3_6  and  N3_9 
REMARK       I    between atoms: N3_9  and  C5_11 
REMARK    3  A    between atoms: C5_11  and  C6_13 
ROOT
HETATM    1  C3  UNL     1       1.627   8.457  10.282  1.00  0.00     0.237 C 
HETATM    2  C4  UNL     1       0.909   7.394   9.537  1.00  0.00     0.090 C 
HETATM    3  N2  UNL     1       0.336   6.571   8.960  1.00  0.00    -0.195 NA
ENDROOT
BRANCH   1   4
HETATM    4  C2  UNL     1       2.651   9.028   9.369  1.00  0.00     0.013 C 
HETATM    5  C1  UNL     1       2.537  10.392   8.788  1.00  0.00     0.066 C 
HETATM    6  N1  UNL     1       3.665   8.308   9.082  1.00  0.00    -0.403 N 
ATOM      7  H12 UNL     1       4.368   8.700   8.455  1.00  0.00     0.155 HD
ATOM      8  H11 UNL     1       3.743   7.372   9.480  1.00  0.00     0.155 HD
ENDBRANCH   1   4
BRANCH   1   9
HETATM    9  N3  UNL     1       2.260   7.894  11.462  1.00  0.00    -0.339 N 
HETATM   10  C5  UNL     1       1.940   8.331  12.775  1.00  0.00     0.223 C 
HETATM   11  O1  UNL     1       1.080   9.233  12.894  1.00  0.00    -0.273 OA
ATOM     12  H3  UNL     1       2.957   7.160  11.344  1.00  0.00     0.164 HD
BRANCH  10  13
HETATM   13  C6  UNL     1       2.626   7.710  13.921  1.00  0.00     0.085 C 
HETATM   14  C7  UNL     1       1.708   7.768  15.142  1.00  0.00     0.015 C 
HETATM   15  C8  UNL     1       2.553   8.958  15.609  1.00  0.00     0.010 C 
HETATM   16  C9  UNL     1       3.642   8.511  14.653  1.00  0.00    -0.036 C 
HETATM   17  C10 UNL     1       4.352   9.604  13.932  1.00  0.00     0.015 C 
HETATM   18  C11 UNL     1       4.663   7.643  15.400  1.00  0.00     0.015 C 
ENDBRANCH  10  13
ENDBRANCH   1   9
TORSDOF 3
ENDMDL
MODEL 5
REMARK VINA RESULT: -5.895198536      2.343      5.140
REMARK  3 active torsions:
REMARK  status: ('A' for Active; 'I' for Inactive)
REMARK    1  A    between atoms: C2_2  and  C3_6 
REMARK    2  A    between atoms: C3_6  and  N3_9 
REMARK       I    between atoms: N3_9  and  C5_11 
REMARK    3  A    between atoms: C5_11  and  C6_13 
ROOT
HETATM    1  C3  UNL     1      -0.843   5.374   9.503  1.00  0.00     0.237 C 
HETATM    2  C4  UNL     1       0.639   5.436   9.530  1.00  0.00     0.090 C 
HETATM    3  N2  UNL     1       1.794   5.497   9.557  1.00  0.00    -0.195 NA
ENDROOT
BRANCH   1   4
HETATM    4  C2  UNL     1      -1.248   4.086  10.124  1.00  0.00     0.013 C 
HETATM    5  C1  UNL     1      -2.633   3.822  10.594  1.00  0.00     0.066 C 
HETATM    6  N1  UNL     1      -0.359   3.178  10.250  1.00  0.00    -0.403 N 
ATOM      7  H12 UNL     1      -0.636   2.293  10.676  1.00  0.00     0.155 HD
ATOM      8  H11 UNL     1       0.592   3.359   9.928  1.00  0.00     0.155 HD
ENDBRANCH   1   4
BRANCH   1   9
HETATM    9  N3  UNL     1      -1.317   5.446   8.133  1.00  0.00    -0.339 N 
HETATM   10  C5  UNL     1      -2.247   6.431   7.704  1.00  0.00     0.223 C 
HETATM   11  O1  UNL     1      -2.656   7.254   8.553  1.00  0.00    -0.273 OA
ATOM     12  H3  UNL     1      -0.971   4.767   7.455  1.00  0.00     0.164 HD
BRANCH  10  13
HETATM   13  C6  UNL     1      -2.679   6.438   6.296  1.00  0.00     0.085 C 
HETATM   14  C7  UNL     1      -3.258   7.813   5.958  1.00  0.00     0.015 C 
HETATM   15  C8  UNL     1      -4.640   7.169   6.114  1.00  0.00     0.010 C 
HETATM   16  C9  UNL     1      -3.984   5.812   5.955  1.00  0.00    -0.036 C 
HETATM   17  C10 UNL     1      -4.516   4.734   6.836  1.00  0.00     0.015 C 
HETATM   18  C11 UNL     1      -4.068   5.362   4.490  1.00  0.00     0.015 C 
ENDBRANCH  10  13
ENDBRANCH   1   9
TORSDOF 3
ENDMDL
