MODEL 1
REMARK VINA RESULT: -4.967615183      0.000      0.000
REMARK  5 active torsions:
REMARK  status: ('A' for Active; 'I' for Inactive)
REMARK    1  A    between atoms: N1_1  and  C1_5 
REMARK    2  A    between atoms: C1_5  and  N2_6 
REMARK    3  A    between atoms: C1_5  and  C2_10 
REMARK    4  A    between atoms: N3_11  and  N4_13 
REMARK    5  A    between atoms: N4_13  and  C3_15 
ROOT
HETATM    1  C2  UNL     1      12.136  14.697  16.117  1.00  0.00     0.141 C 
HETATM    2  N3  UNL     1      12.491  15.789  15.546  1.00  0.00    -0.309 N 
ATOM      3  H3  UNL     1      13.457  15.912  15.243  1.00  0.00     0.185 HD
ENDROOT
BRANCH   2   4
HETATM    4  N4  UNL     1      11.560  16.812  15.335  1.00  0.00    -0.272 N 
ATOM      5  H4  UNL     1      10.579  16.636  15.556  1.00  0.00     0.190 HD
BRANCH   4   6
HETATM    6  C3  UNL     1      11.928  18.093  14.823  1.00  0.00     0.190 C 
HETATM    7  N5  UNL     1      11.516  19.213  15.321  1.00  0.00    -0.360 N 
HETATM    8  C4  UNL     1      12.039  20.340  14.613  1.00  0.00     0.142 C 
ATOM      9  H5  UNL     1      10.891  19.284  16.124  1.00  0.00     0.162 HD
HETATM   10  C5  UNL     1      12.463  19.716  13.284  1.00  0.00     0.142 C 
HETATM   11  N6  UNL     1      12.789  18.368  13.705  1.00  0.00    -0.360 N 
ATOM     12  H6  UNL     1      13.483  17.745  13.293  1.00  0.00     0.162 HD
ENDBRANCH   4   6
ENDBRANCH   2   4
BRANCH   1  13
HETATM   13  C1  UNL     1      13.097  13.601  16.352  1.00  0.00     0.417 C 
BRANCH  13  14
HETATM   14  N1  UNL     1      12.372  12.396  16.614  1.00  0.00    -0.046 N 
ATOM     15  H13 UNL     1      11.421  12.471  16.254  1.00  0.00     0.277 HD
ATOM     16  H12 UNL     1      12.724  11.638  16.028  1.00  0.00     0.277 HD
ATOM     17  H11 UNL     1      12.358  12.108  17.592  1.00  0.00     0.277 HD
ENDBRANCH  13  14
BRANCH  13  18
HETATM   18  N2  UNL     1      14.023  13.520  15.272  1.00  0.00    -0.046 N 
ATOM     19  H23 UNL     1      14.459  12.599  15.248  1.00  0.00     0.277 HD
ATOM     20  H22 UNL     1      13.526  13.504  14.381  1.00  0.00     0.277 HD
ATOM     21  H21 UNL     1      14.737  14.249  15.264  1.00  0.00     0.277 HD
ENDBRANCH  13  18
ENDBRANCH   1  13
TORSDOF 5
ENDMDL
MODEL 2
REMARK VINA RESULT: -4.806802167      0.257      1.175
REMARK  5 active torsions:
REMARK  status: ('A' for Active; 'I' for Inactive)
REMARK    1  A    between atoms: N1_1  and  C1_5 
REMARK    2  A    between atoms: C1_5  and  N2_6 
REMARK    3  A    between atoms: C1_5  and  C2_10 
REMARK    4  A    between atoms: N3_11  and  N4_13 
REMARK    5  A    between atoms: N4_13  and  C3_15 
ROOT
HETATM    1  C2  UNL     1      12.040  14.686  16.094  1.00  0.00     0.141 C 
HETATM    2  N3  UNL     1      12.355  15.849  15.653  1.00  0.00    -0.309 N 
ATOM      3  H3  UNL     1      13.332  16.073  15.466  1.00  0.00     0.185 HD
ENDROOT
BRANCH   2   4
HETATM    4  N4  UNL     1      11.365  16.811  15.428  1.00  0.00    -0.272 N 
ATOM      5  H4  UNL     1      10.395  16.578  15.643  1.00  0.00     0.190 HD
BRANCH   4   6
HETATM    6  C3  UNL     1      11.659  18.109  14.908  1.00  0.00     0.190 C 
HETATM    7  N5  UNL     1      12.490  18.324  13.940  1.00  0.00    -0.360 N 
HETATM    8  C4  UNL     1      12.593  19.714  13.621  1.00  0.00     0.142 C 
ATOM      9  H5  UNL     1      13.010  17.589  13.461  1.00  0.00     0.162 HD
HETATM   10  C5  UNL     1      12.045  20.375  14.886  1.00  0.00     0.142 C 
HETATM   11  N6  UNL     1      11.112  19.365  15.342  1.00  0.00    -0.360 N 
ATOM     12  H6  UNL     1      10.247  19.514  15.862  1.00  0.00     0.162 HD
ENDBRANCH   4   6
ENDBRANCH   2   4
BRANCH   1  13
HETATM   13  C1  UNL     1      13.064  13.650  16.341  1.00  0.00     0.417 C 
BRANCH  13  14
HETATM   14  N1  UNL     1      12.411  12.406  16.608  1.00  0.00    -0.046 N 
ATOM     15  H13 UNL     1      11.405  12.498  16.466  1.00  0.00     0.277 HD
ATOM     16  H12 UNL     1      12.632  11.727  15.880  1.00  0.00     0.277 HD
ATOM     17  H11 UNL     1      12.603  12.011  17.529  1.00  0.00     0.277 HD
ENDBRANCH  13  14
BRANCH  13  18
HETATM   18  N2  UNL     1      13.998  13.618  15.264  1.00  0.00    -0.046 N 
ATOM     19  H23 UNL     1      14.675  12.869  15.407  1.00  0.00     0.277 HD
ATOM     20  H22 UNL     1      13.544  13.286  14.413  1.00  0.00     0.277 HD
ATOM     21  H21 UNL     1      14.479  14.499  15.086  1.00  0.00     0.277 HD
ENDBRANCH  13  18
ENDBRANCH   1  13
TORSDOF 5
ENDMDL
MODEL 3
REMARK VINA RESULT: -4.628747922      0.356      1.575
REMARK  5 active torsions:
REMARK  status: ('A' for Active; 'I' for Inactive)
REMARK    1  A    between atoms: N1_1  and  C1_5 
REMARK    2  A    between atoms: C1_5  and  N2_6 
REMARK    3  A    between atoms: C1_5  and  C2_10 
REMARK    4  A    between atoms: N3_11  and  N4_13 
REMARK    5  A    between atoms: N4_13  and  C3_15 
ROOT
HETATM    1  C2  UNL     1      12.048  14.637  16.056  1.00  0.00     0.141 C 
HETATM    2  N3  UNL     1      12.221  15.697  15.355  1.00  0.00    -0.309 N 
ATOM      3  H3  UNL     1      12.796  15.659  14.513  1.00  0.00     0.185 HD
ENDROOT
BRANCH   2   4
HETATM    4  N4  UNL     1      11.625  16.903  15.738  1.00  0.00    -0.272 N 
ATOM      5  H4  UNL     1      11.036  16.917  16.571  1.00  0.00     0.190 HD
BRANCH   4   6
HETATM    6  C3  UNL     1      11.809  18.117  15.008  1.00  0.00     0.190 C 
HETATM    7  N5  UNL     1      12.515  18.206  13.928  1.00  0.00    -0.360 N 
HETATM    8  C4  UNL     1      12.529  19.537  13.406  1.00  0.00     0.142 C 
ATOM      9  H5  UNL     1      13.004  17.421  13.500  1.00  0.00     0.162 HD
HETATM   10  C5  UNL     1      12.105  20.363  14.620  1.00  0.00     0.142 C 
HETATM   11  N6  UNL     1      11.269  19.411  15.322  1.00  0.00    -0.360 N 
ATOM     12  H6  UNL     1      10.465  19.617  15.915  1.00  0.00     0.162 HD
ENDBRANCH   4   6
ENDBRANCH   2   4
BRANCH   1  13
HETATM   13  C1  UNL     1      12.664  13.350  15.676  1.00  0.00     0.417 C 
BRANCH  13  14
HETATM   14  N1  UNL     1      14.043  13.568  15.366  1.00  0.00    -0.046 N 
ATOM     15  H13 UNL     1      14.246  14.568  15.343  1.00  0.00     0.277 HD
ATOM     16  H12 UNL     1      14.631  13.286  16.150  1.00  0.00     0.277 HD
ATOM     17  H11 UNL     1      14.365  13.123  14.506  1.00  0.00     0.277 HD
ENDBRANCH  13  14
BRANCH  13  18
HETATM   18  N2  UNL     1      12.425  12.374  16.688  1.00  0.00    -0.046 N 
ATOM     19  H23 UNL     1      11.528  12.549  17.141  1.00  0.00     0.277 HD
ATOM     20  H22 UNL     1      12.236  11.465  16.264  1.00  0.00     0.277 HD
ATOM     21  H21 UNL     1      13.164  12.290  17.386  1.00  0.00     0.277 HD
ENDBRANCH  13  18
ENDBRANCH   1  13
TORSDOF 5
ENDMDL
MODEL 4
REMARK VINA RESULT: -4.595221030      1.372      1.714
REMARK  5 active torsions:
REMARK  status: ('A' for Active; 'I' for Inactive)
REMARK    1  A    between atoms: N1_1  and  C1_5 
REMARK    2  A    between atoms: C1_5  and  N2_6 
REMARK    3  A    between atoms: C1_5  and  C2_10 
REMARK    4  A    between atoms: N3_11  and  N4_13 
REMARK    5  A    between atoms: N4_13  and  C3_15 
ROOT
HETATM    1  C2  UNL     1      13.609  15.651  14.803  1.00  0.00     0.141 C 
HETATM    2  N3  UNL     1      12.844  16.646  14.539  1.00  0.00    -0.309 N 
ATOM      3  H3  UNL     1      11.948  16.738  15.019  1.00  0.00     0.185 HD
ENDROOT
BRANCH   2   4
HETATM    4  N4  UNL     1      13.231  17.605  13.597  1.00  0.00    -0.272 N 
ATOM      5  H4  UNL     1      13.967  17.370  12.932  1.00  0.00     0.190 HD
BRANCH   4   6
HETATM    6  C3  UNL     1      12.635  18.901  13.531  1.00  0.00     0.190 C 
HETATM    7  N5  UNL     1      11.458  19.176  13.992  1.00  0.00    -0.360 N 
HETATM    8  C4  UNL     1      11.111  20.549  13.793  1.00  0.00     0.142 C 
ATOM      9  H5  UNL     1      10.849  18.494  14.443  1.00  0.00     0.162 HD
HETATM   10  C5  UNL     1      12.083  20.969  12.691  1.00  0.00     0.142 C 
HETATM   11  N6  UNL     1      13.204  20.093  12.964  1.00  0.00    -0.360 N 
ATOM     12  H6  UNL     1      14.191  20.283  12.790  1.00  0.00     0.162 HD
ENDBRANCH   4   6
ENDBRANCH   2   4
BRANCH   1  13
HETATM   13  C1  UNL     1      13.227  14.624  15.793  1.00  0.00     0.417 C 
BRANCH  13  14
HETATM   14  N1  UNL     1      11.804  14.629  15.943  1.00  0.00    -0.046 N 
ATOM     15  H13 UNL     1      11.357  14.328  15.076  1.00  0.00     0.277 HD
ATOM     16  H12 UNL     1      11.512  13.874  16.563  1.00  0.00     0.277 HD
ATOM     17  H11 UNL     1      11.409  15.515  16.255  1.00  0.00     0.277 HD
ENDBRANCH  13  14
BRANCH  13  18
HETATM   18  N2  UNL     1      13.787  13.363  15.432  1.00  0.00    -0.046 N 
ATOM     19  H23 UNL     1      14.777  13.335  15.674  1.00  0.00     0.277 HD
ATOM     20  H22 UNL     1      13.433  12.630  16.046  1.00  0.00     0.277 HD
ATOM     21  H21 UNL     1      13.654  13.099  14.455  1.00  0.00     0.277 HD
ENDBRANCH  13  18
ENDBRANCH   1  13
TORSDOF 5
ENDMDL
MODEL 5
REMARK VINA RESULT: -4.529471782      1.313      1.920
REMARK  5 active torsions:
REMARK  status: ('A' for Active; 'I' for Inactive)
REMARK    1  A    between atoms: N1_1  and  C1_5 
REMARK    2  A    between atoms: C1_5  and  N2_6 
REMARK    3  A    between atoms: C1_5  and  C2_10 
REMARK    4  A    between atoms: N3_11  and  N4_13 
REMARK    5  A    between atoms: N4_13  and  C3_15 
ROOT
HETATM    1  C2  UNL     1      13.615  15.643  14.807  1.00  0.00     0.141 C 
HETATM    2  N3  UNL     1      12.844  16.633  14.546  1.00  0.00    -0.309 N 
ATOM      3  H3  UNL     1      11.947  16.718  15.025  1.00  0.00     0.185 HD
ENDROOT
BRANCH   2   4
HETATM    4  N4  UNL     1      13.225  17.598  13.607  1.00  0.00    -0.272 N 
ATOM      5  H4  UNL     1      13.956  17.366  12.934  1.00  0.00     0.190 HD
BRANCH   4   6
HETATM    6  C3  UNL     1      12.630  18.896  13.554  1.00  0.00     0.190 C 
HETATM    7  N5  UNL     1      13.199  19.926  13.018  1.00  0.00    -0.360 N 
HETATM    8  C4  UNL     1      12.381  21.096  13.105  1.00  0.00     0.142 C 
ATOM      9  H5  UNL     1      14.122  19.907  12.586  1.00  0.00     0.162 HD
HETATM   10  C5  UNL     1      11.406  20.724  14.221  1.00  0.00     0.142 C 
HETATM   11  N6  UNL     1      11.344  19.285  14.064  1.00  0.00    -0.360 N 
ATOM     12  H6  UNL     1      10.553  18.675  14.273  1.00  0.00     0.162 HD
ENDBRANCH   4   6
ENDBRANCH   2   4
BRANCH   1  13
HETATM   13  C1  UNL     1      13.239  14.610  15.793  1.00  0.00     0.417 C 
BRANCH  13  14
HETATM   14  N1  UNL     1      11.818  14.614  15.953  1.00  0.00    -0.046 N 
ATOM     15  H13 UNL     1      11.388  13.957  15.303  1.00  0.00     0.277 HD
ATOM     16  H12 UNL     1      11.561  14.180  16.840  1.00  0.00     0.277 HD
ATOM     17  H11 UNL     1      11.380  15.531  15.869  1.00  0.00     0.277 HD
ENDBRANCH  13  14
BRANCH  13  18
HETATM   18  N2  UNL     1      13.796  13.351  15.421  1.00  0.00    -0.046 N 
ATOM     19  H23 UNL     1      14.423  13.013  16.151  1.00  0.00     0.277 HD
ATOM     20  H22 UNL     1      13.080  12.625  15.451  1.00  0.00     0.277 HD
ATOM     21  H21 UNL     1      14.270  13.342  14.518  1.00  0.00     0.277 HD
ENDBRANCH  13  18
ENDBRANCH   1  13
TORSDOF 5
ENDMDL
