MODEL 1
REMARK VINA RESULT: -4.616679978      0.000      0.000
REMARK  4 active torsions:
REMARK  status: ('A' for Active; 'I' for Inactive)
REMARK    1  A    between atoms: C2_2  and  C3_3 
REMARK    2  A    between atoms: C3_3  and  C4_4 
REMARK    3  A    between atoms: C4_4  and  C5_5 
REMARK    4  A    between atoms: C6_9  and  N4_10 
ROOT
HETATM    1  C5  UNL     1      12.539  15.900  15.824  1.00  0.00     0.144 C 
HETATM    2  N1  UNL     1      13.872  15.919  15.315  1.00  0.00    -0.122 NA
HETATM    3  N2  UNL     1      13.834  16.405  14.025  1.00  0.00    -0.038 NA
HETATM    4  N3  UNL     1      12.598  16.946  13.776  1.00  0.00    -0.095 NA
HETATM    5  C6  UNL     1      11.830  16.919  15.000  1.00  0.00     0.313 C 
ENDROOT
BRANCH   1   6
HETATM    6  C4  UNL     1      11.898  14.535  15.756  1.00  0.00     0.026 C 
BRANCH   6   7
HETATM    7  C3  UNL     1      12.859  13.423  15.998  1.00  0.00     0.001 C 
BRANCH   7   8
HETATM    8  C2  UNL     1      12.175  12.078  15.866  1.00  0.00    -0.004 C 
HETATM    9  C1  UNL     1      12.529  11.436  14.535  1.00  0.00     0.005 C 
ENDBRANCH   7   8
ENDBRANCH   6   7
ENDBRANCH   1   6
BRANCH   5  10
HETATM   10  N4  UNL     1      11.933  18.208  15.645  1.00  0.00    -0.058 N 
ATOM     11  H43 UNL     1      11.265  18.314  16.410  1.00  0.00     0.276 HD
ATOM     12  H42 UNL     1      12.791  18.302  16.189  1.00  0.00     0.276 HD
ATOM     13  H41 UNL     1      11.838  18.944  14.945  1.00  0.00     0.276 HD
ENDBRANCH   5  10
TORSDOF 4
ENDMDL
MODEL 2
REMARK VINA RESULT: -4.265784014      1.330      1.976
REMARK  4 active torsions:
REMARK  status: ('A' for Active; 'I' for Inactive)
REMARK    1  A    between atoms: C2_2  and  C3_3 
REMARK    2  A    between atoms: C3_3  and  C4_4 
REMARK    3  A    between atoms: C4_4  and  C5_5 
REMARK    4  A    between atoms: C6_9  and  N4_10 
ROOT
HETATM    1  C5  UNL     1      12.142  17.447  15.336  1.00  0.00     0.144 C 
HETATM    2  N1  UNL     1      13.125  17.529  14.305  1.00  0.00    -0.122 NA
HETATM    3  N2  UNL     1      12.566  18.183  13.227  1.00  0.00    -0.038 NA
HETATM    4  N3  UNL     1      11.379  18.758  13.607  1.00  0.00    -0.095 NA
HETATM    5  C6  UNL     1      11.213  18.570  15.030  1.00  0.00     0.313 C 
ENDROOT
BRANCH   1   6
HETATM    6  C4  UNL     1      11.451  16.106  15.391  1.00  0.00     0.026 C 
BRANCH   6   7
HETATM    7  C3  UNL     1      12.000  15.205  16.443  1.00  0.00     0.001 C 
BRANCH   7   8
HETATM    8  C2  UNL     1      12.919  14.164  15.839  1.00  0.00    -0.004 C 
HETATM    9  C1  UNL     1      12.430  12.767  16.181  1.00  0.00     0.005 C 
ENDBRANCH   7   8
ENDBRANCH   6   7
ENDBRANCH   1   6
BRANCH   5  10
HETATM   10  N4  UNL     1      11.662  19.760  15.715  1.00  0.00    -0.058 N 
ATOM     11  H43 UNL     1      10.914  20.444  15.835  1.00  0.00     0.276 HD
ATOM     12  H42 UNL     1      11.860  19.589  16.700  1.00  0.00     0.276 HD
ATOM     13  H41 UNL     1      12.466  20.149  15.221  1.00  0.00     0.276 HD
ENDBRANCH   5  10
TORSDOF 4
ENDMDL
MODEL 3
REMARK VINA RESULT: -4.232191135      4.200      6.080
REMARK  4 active torsions:
REMARK  status: ('A' for Active; 'I' for Inactive)
REMARK    1  A    between atoms: C2_2  and  C3_3 
REMARK    2  A    between atoms: C3_3  and  C4_4 
REMARK    3  A    between atoms: C4_4  and  C5_5 
REMARK    4  A    between atoms: C6_9  and  N4_10 
ROOT
HETATM    1  C5  UNL     1      11.834  19.144  13.918  1.00  0.00     0.144 C 
HETATM    2  N1  UNL     1      12.378  17.900  13.478  1.00  0.00    -0.122 NA
HETATM    3  N2  UNL     1      12.572  17.099  14.584  1.00  0.00    -0.038 NA
HETATM    4  N3  UNL     1      11.937  17.653  15.667  1.00  0.00    -0.095 NA
HETATM    5  C6  UNL     1      11.195  18.809  15.221  1.00  0.00     0.313 C 
ENDROOT
BRANCH   1   6
HETATM    6  C4  UNL     1      12.869  20.237  14.031  1.00  0.00     0.026 C 
BRANCH   6   7
HETATM    7  C3  UNL     1      12.918  21.124  12.836  1.00  0.00     0.001 C 
BRANCH   7   8
HETATM    8  C2  UNL     1      11.533  21.337  12.262  1.00  0.00    -0.004 C 
HETATM    9  C1  UNL     1      11.627  21.950  10.874  1.00  0.00     0.005 C 
ENDBRANCH   7   8
ENDBRANCH   6   7
ENDBRANCH   1   6
BRANCH   5  10
HETATM   10  N4  UNL     1       9.821  18.423  14.993  1.00  0.00    -0.058 N 
ATOM     11  H43 UNL     1       9.187  18.813  15.692  1.00  0.00     0.276 HD
ATOM     12  H42 UNL     1       9.423  18.875  14.170  1.00  0.00     0.276 HD
ATOM     13  H41 UNL     1       9.761  17.406  14.942  1.00  0.00     0.276 HD
ENDBRANCH   5  10
TORSDOF 4
ENDMDL
MODEL 4
REMARK VINA RESULT: -4.230595041      2.122      4.734
REMARK  4 active torsions:
REMARK  status: ('A' for Active; 'I' for Inactive)
REMARK    1  A    between atoms: C2_2  and  C3_3 
REMARK    2  A    between atoms: C3_3  and  C4_4 
REMARK    3  A    between atoms: C4_4  and  C5_5 
REMARK    4  A    between atoms: C6_9  and  N4_10 
ROOT
HETATM    1  C5  UNL     1      11.922  16.643  14.999  1.00  0.00     0.144 C 
HETATM    2  N1  UNL     1      12.820  16.585  13.892  1.00  0.00    -0.122 NA
HETATM    3  N2  UNL     1      14.001  16.018  14.324  1.00  0.00    -0.038 NA
HETATM    4  N3  UNL     1      13.816  15.468  15.567  1.00  0.00    -0.095 NA
HETATM    5  C6  UNL     1      12.417  15.577  15.913  1.00  0.00     0.313 C 
ENDROOT
BRANCH   1   6
HETATM    6  C4  UNL     1      11.871  18.004  15.651  1.00  0.00     0.026 C 
BRANCH   6   7
HETATM    7  C3  UNL     1      11.163  19.023  14.827  1.00  0.00     0.001 C 
BRANCH   7   8
HETATM    8  C2  UNL     1      12.070  20.196  14.519  1.00  0.00    -0.004 C 
HETATM    9  C1  UNL     1      12.498  20.163  13.062  1.00  0.00     0.005 C 
ENDBRANCH   7   8
ENDBRANCH   6   7
ENDBRANCH   1   6
BRANCH   5  10
HETATM   10  N4  UNL     1      11.758  14.331  15.594  1.00  0.00    -0.058 N 
ATOM     11  H43 UNL     1      10.864  14.231  16.076  1.00  0.00     0.276 HD
ATOM     12  H42 UNL     1      11.408  14.313  14.636  1.00  0.00     0.276 HD
ATOM     13  H41 UNL     1      12.391  13.555  15.789  1.00  0.00     0.276 HD
ENDBRANCH   5  10
TORSDOF 4
ENDMDL
MODEL 5
REMARK VINA RESULT: -4.170097022      2.275      4.982
REMARK  4 active torsions:
REMARK  status: ('A' for Active; 'I' for Inactive)
REMARK    1  A    between atoms: C2_2  and  C3_3 
REMARK    2  A    between atoms: C3_3  and  C4_4 
REMARK    3  A    between atoms: C4_4  and  C5_5 
REMARK    4  A    between atoms: C6_9  and  N4_10 
ROOT
HETATM    1  C5  UNL     1      11.860  16.911  14.834  1.00  0.00     0.144 C 
HETATM    2  N1  UNL     1      12.839  16.691  13.819  1.00  0.00    -0.122 NA
HETATM    3  N2  UNL     1      13.922  16.058  14.394  1.00  0.00    -0.038 NA
HETATM    4  N3  UNL     1      13.582  15.623  15.650  1.00  0.00    -0.095 NA
HETATM    5  C6  UNL     1      12.176  15.879  15.861  1.00  0.00     0.313 C 
ENDROOT
BRANCH   1   6
HETATM    6  C4  UNL     1      11.882  18.317  15.383  1.00  0.00     0.026 C 
BRANCH   6   7
HETATM    7  C3  UNL     1      11.988  19.359  14.325  1.00  0.00     0.001 C 
BRANCH   7   8
HETATM    8  C2  UNL     1      11.981  20.748  14.929  1.00  0.00    -0.004 C 
HETATM    9  C1  UNL     1      11.224  20.745  16.246  1.00  0.00     0.005 C 
ENDBRANCH   7   8
ENDBRANCH   6   7
ENDBRANCH   1   6
BRANCH   5  10
HETATM   10  N4  UNL     1      11.433  14.674  15.569  1.00  0.00    -0.058 N 
ATOM     11  H43 UNL     1      10.690  14.833  14.888  1.00  0.00     0.276 HD
ATOM     12  H42 UNL     1      11.981  14.002  15.032  1.00  0.00     0.276 HD
ATOM     13  H41 UNL     1      11.081  14.277  16.440  1.00  0.00     0.276 HD
ENDBRANCH   5  10
TORSDOF 4
ENDMDL
