MODEL 1
REMARK VINA RESULT: -5.114730935      0.000      0.000
REMARK  5 active torsions:
REMARK  status: ('A' for Active; 'I' for Inactive)
REMARK    1  A    between atoms: N1_1  and  C1_4 
REMARK    2  A    between atoms: C3_8  and  N3_9 
REMARK    3  A    between atoms: N3_9  and  C4_11 
REMARK    4  A    between atoms: C4_11  and  C5_12 
REMARK    5  A    between atoms: C5_12  and  N4_13 
ROOT
HETATM    1  C1  UNL     1      12.615  19.127  13.587  1.00  0.00     0.690 A 
HETATM    2  N2  UNL     1      11.610  19.145  14.474  1.00  0.00    -0.197 N 
ATOM      3  H2  UNL     1      11.093  20.017  14.592  1.00  0.00     0.183 HD
HETATM    4  C2  UNL     1      11.239  18.089  15.217  1.00  0.00     0.155 A 
HETATM    5  C3  UNL     1      11.947  16.919  15.046  1.00  0.00     0.132 A 
HETATM    6  N5  UNL     1      12.946  16.910  14.160  1.00  0.00    -0.270 N 
ATOM      7  H5  UNL     1      13.472  16.046  14.029  1.00  0.00     0.189 HD
HETATM    8  N6  UNL     1      13.288  17.972  13.440  1.00  0.00    -0.131 N 
ATOM      9  H6  UNL     1      14.061  17.913  12.777  1.00  0.00     0.205 HD
ENDROOT
BRANCH   5  10
HETATM   10  N3  UNL     1      11.628  15.750  15.788  1.00  0.00    -0.373 N 
ATOM     11  H3  UNL     1      10.658  15.437  15.811  1.00  0.00     0.161 HD
BRANCH  10  12
HETATM   12  C4  UNL     1      12.615  14.990  16.508  1.00  0.00     0.148 C 
BRANCH  12  13
HETATM   13  C5  UNL     1      12.654  13.546  16.060  1.00  0.00     0.249 C 
BRANCH  13  14
HETATM   14  N4  UNL     1      13.861  13.213  15.372  1.00  0.00    -0.078 N 
ATOM     15  H43 UNL     1      14.659  13.227  16.007  1.00  0.00     0.274 HD
ATOM     16  H42 UNL     1      13.873  12.226  15.112  1.00  0.00     0.274 HD
ATOM     17  H41 UNL     1      14.029  13.806  14.560  1.00  0.00     0.274 HD
ENDBRANCH  13  14
ENDBRANCH  12  13
ENDBRANCH  10  12
ENDBRANCH   5  10
BRANCH   1  18
HETATM   18  N1  UNL     1      12.948  20.176  12.880  1.00  0.00    -0.233 N 
ATOM     19  H12 UNL     1      12.504  20.348  11.978  1.00  0.00     0.174 HD
ATOM     20  H11 UNL     1      13.648  20.848  13.193  1.00  0.00     0.174 HD
ENDBRANCH   1  18
TORSDOF 5
ENDMDL
MODEL 2
REMARK VINA RESULT: -5.019961097      0.594      1.395
REMARK  5 active torsions:
REMARK  status: ('A' for Active; 'I' for Inactive)
REMARK    1  A    between atoms: N1_1  and  C1_4 
REMARK    2  A    between atoms: C3_8  and  N3_9 
REMARK    3  A    between atoms: N3_9  and  C4_11 
REMARK    4  A    between atoms: C4_11  and  C5_12 
REMARK    5  A    between atoms: C5_12  and  N4_13 
ROOT
HETATM    1  C1  UNL     1      12.593  19.163  13.554  1.00  0.00     0.690 A 
HETATM    2  N2  UNL     1      13.283  18.022  13.412  1.00  0.00    -0.197 N 
ATOM      3  H2  UNL     1      14.049  18.007  12.739  1.00  0.00     0.183 HD
HETATM    4  C2  UNL     1      13.030  16.896  14.102  1.00  0.00     0.155 A 
HETATM    5  C3  UNL     1      11.992  16.932  15.008  1.00  0.00     0.132 A 
HETATM    6  N5  UNL     1      11.311  18.073  15.142  1.00  0.00    -0.270 N 
ATOM      7  H5  UNL     1      10.543  18.104  15.812  1.00  0.00     0.189 HD
HETATM    8  N6  UNL     1      11.586  19.169  14.444  1.00  0.00    -0.131 N 
ATOM      9  H6  UNL     1      11.033  20.015  14.584  1.00  0.00     0.205 HD
ENDROOT
BRANCH   5  10
HETATM   10  N3  UNL     1      11.651  15.791  15.782  1.00  0.00    -0.373 N 
ATOM     11  H3  UNL     1      10.674  15.504  15.824  1.00  0.00     0.161 HD
BRANCH  10  12
HETATM   12  C4  UNL     1      12.626  15.023  16.510  1.00  0.00     0.148 C 
BRANCH  12  13
HETATM   13  C5  UNL     1      12.647  13.575  16.071  1.00  0.00     0.249 C 
BRANCH  13  14
HETATM   14  N4  UNL     1      13.848  13.222  15.384  1.00  0.00    -0.078 N 
ATOM     15  H43 UNL     1      14.052  13.887  14.638  1.00  0.00     0.274 HD
ATOM     16  H42 UNL     1      14.666  13.379  15.974  1.00  0.00     0.274 HD
ATOM     17  H41 UNL     1      13.834  12.266  15.028  1.00  0.00     0.274 HD
ENDBRANCH  13  14
ENDBRANCH  12  13
ENDBRANCH  10  12
ENDBRANCH   5  10
BRANCH   1  18
HETATM   18  N1  UNL     1      12.867  20.240  12.864  1.00  0.00    -0.233 N 
ATOM     19  H12 UNL     1      12.243  20.542  12.115  1.00  0.00     0.174 HD
ATOM     20  H11 UNL     1      13.694  20.808  13.041  1.00  0.00     0.174 HD
ENDBRANCH   1  18
TORSDOF 5
ENDMDL
MODEL 3
REMARK VINA RESULT: -4.869718429      1.231      5.046
REMARK  5 active torsions:
REMARK  status: ('A' for Active; 'I' for Inactive)
REMARK    1  A    between atoms: N1_1  and  C1_4 
REMARK    2  A    between atoms: C3_8  and  N3_9 
REMARK    3  A    between atoms: N3_9  and  C4_11 
REMARK    4  A    between atoms: C4_11  and  C5_12 
REMARK    5  A    between atoms: C5_12  and  N4_13 
ROOT
HETATM    1  C1  UNL     1      13.224  14.474  15.820  1.00  0.00     0.690 A 
HETATM    2  N2  UNL     1      12.202  15.338  15.901  1.00  0.00    -0.197 N 
ATOM      3  H2  UNL     1      11.446  15.124  16.551  1.00  0.00     0.183 HD
HETATM    4  C2  UNL     1      12.111  16.469  15.180  1.00  0.00     0.155 A 
HETATM    5  C3  UNL     1      13.141  16.745  14.307  1.00  0.00     0.132 A 
HETATM    6  N5  UNL     1      14.155  15.878  14.234  1.00  0.00    -0.270 N 
ATOM      7  H5  UNL     1      14.920  16.078  13.590  1.00  0.00     0.189 HD
HETATM    8  N6  UNL     1      14.215  14.768  14.960  1.00  0.00    -0.131 N 
ATOM      9  H6  UNL     1      15.012  14.139  14.865  1.00  0.00     0.205 HD
ENDROOT
BRANCH   5  10
HETATM   10  N3  UNL     1      13.131  17.916  13.504  1.00  0.00    -0.373 N 
ATOM     11  H3  UNL     1      13.700  17.932  12.658  1.00  0.00     0.161 HD
BRANCH  10  12
HETATM   12  C4  UNL     1      12.353  19.080  13.833  1.00  0.00     0.148 C 
BRANCH  12  13
HETATM   13  C5  UNL     1      12.759  20.283  13.010  1.00  0.00     0.249 C 
BRANCH  13  14
HETATM   14  N4  UNL     1      13.803  21.044  13.619  1.00  0.00    -0.078 N 
ATOM     15  H43 UNL     1      14.338  20.472  14.273  1.00  0.00     0.274 HD
ATOM     16  H42 UNL     1      14.540  21.258  12.947  1.00  0.00     0.274 HD
ATOM     17  H41 UNL     1      13.462  21.892  14.070  1.00  0.00     0.274 HD
ENDBRANCH  13  14
ENDBRANCH  12  13
ENDBRANCH  10  12
ENDBRANCH   5  10
BRANCH   1  18
HETATM   18  N1  UNL     1      13.280  13.382  16.538  1.00  0.00    -0.233 N 
ATOM     19  H12 UNL     1      12.969  13.390  17.509  1.00  0.00     0.174 HD
ATOM     20  H11 UNL     1      13.628  12.499  16.166  1.00  0.00     0.174 HD
ENDBRANCH   1  18
TORSDOF 5
ENDMDL
MODEL 4
REMARK VINA RESULT: -4.866035635      1.617      2.377
REMARK  5 active torsions:
REMARK  status: ('A' for Active; 'I' for Inactive)
REMARK    1  A    between atoms: N1_1  and  C1_4 
REMARK    2  A    between atoms: C3_8  and  N3_9 
REMARK    3  A    between atoms: N3_9  and  C4_11 
REMARK    4  A    between atoms: C4_11  and  C5_12 
REMARK    5  A    between atoms: C5_12  and  N4_13 
ROOT
HETATM    1  C1  UNL     1      13.178  17.049  14.068  1.00  0.00     0.690 A 
HETATM    2  N2  UNL     1      12.225  16.703  14.947  1.00  0.00    -0.197 N 
ATOM      3  H2  UNL     1      11.427  17.328  15.056  1.00  0.00     0.183 HD
HETATM    4  C2  UNL     1      12.257  15.586  15.692  1.00  0.00     0.155 A 
HETATM    5  C3  UNL     1      13.343  14.752  15.534  1.00  0.00     0.132 A 
HETATM    6  N5  UNL     1      14.285  15.105  14.655  1.00  0.00    -0.270 N 
ATOM      7  H5  UNL     1      15.090  14.490  14.534  1.00  0.00     0.189 HD
HETATM    8  N6  UNL     1      14.225  16.217  13.933  1.00  0.00    -0.131 N 
ATOM      9  H6  UNL     1      14.973  16.440  13.277  1.00  0.00     0.205 HD
ENDROOT
BRANCH   5  10
HETATM   10  N3  UNL     1      13.462  13.548  16.279  1.00  0.00    -0.373 N 
ATOM     11  H3  UNL     1      14.349  13.345  16.738  1.00  0.00     0.161 HD
BRANCH  10  12
HETATM   12  C4  UNL     1      12.384  12.605  16.414  1.00  0.00     0.148 C 
BRANCH  12  13
HETATM   13  C5  UNL     1      12.093  11.888  15.114  1.00  0.00     0.249 C 
BRANCH  13  14
HETATM   14  N4  UNL     1      13.278  11.452  14.446  1.00  0.00    -0.078 N 
ATOM     15  H43 UNL     1      13.996  11.177  15.116  1.00  0.00     0.274 HD
ATOM     16  H42 UNL     1      13.128  10.554  13.986  1.00  0.00     0.274 HD
ATOM     17  H41 UNL     1      13.638  12.143  13.788  1.00  0.00     0.274 HD
ENDBRANCH  13  14
ENDBRANCH  12  13
ENDBRANCH  10  12
ENDBRANCH   5  10
BRANCH   1  18
HETATM   18  N1  UNL     1      13.114  18.146  13.358  1.00  0.00    -0.233 N 
ATOM     19  H12 UNL     1      12.881  19.033  13.805  1.00  0.00     0.174 HD
ATOM     20  H11 UNL     1      13.290  18.160  12.354  1.00  0.00     0.174 HD
ENDBRANCH   1  18
TORSDOF 5
ENDMDL
MODEL 5
REMARK VINA RESULT: -4.797538947      1.357      5.223
REMARK  5 active torsions:
REMARK  status: ('A' for Active; 'I' for Inactive)
REMARK    1  A    between atoms: N1_1  and  C1_4 
REMARK    2  A    between atoms: C3_8  and  N3_9 
REMARK    3  A    between atoms: N3_9  and  C4_11 
REMARK    4  A    between atoms: C4_11  and  C5_12 
REMARK    5  A    between atoms: C5_12  and  N4_13 
ROOT
HETATM    1  C1  UNL     1      13.253  14.384  15.747  1.00  0.00     0.690 A 
HETATM    2  N2  UNL     1      14.266  14.715  14.932  1.00  0.00    -0.197 N 
ATOM      3  H2  UNL     1      15.060  14.078  14.876  1.00  0.00     0.183 HD
HETATM    4  C2  UNL     1      14.300  15.832  14.186  1.00  0.00     0.155 A 
HETATM    5  C3  UNL     1      13.218  16.682  14.273  1.00  0.00     0.132 A 
HETATM    6  N5  UNL     1      12.214  16.343  15.087  1.00  0.00    -0.270 N 
ATOM      7  H5  UNL     1      11.411  16.969  15.153  1.00  0.00     0.189 HD
HETATM    8  N6  UNL     1      12.211  15.231  15.812  1.00  0.00    -0.131 N 
ATOM      9  H6  UNL     1      11.419  15.021  16.419  1.00  0.00     0.205 HD
ENDROOT
BRANCH   5  10
HETATM   10  N3  UNL     1      13.166  17.886  13.521  1.00  0.00    -0.373 N 
ATOM     11  H3  UNL     1      13.765  17.975  12.701  1.00  0.00     0.161 HD
BRANCH  10  12
HETATM   12  C4  UNL     1      12.304  18.984  13.867  1.00  0.00     0.148 C 
BRANCH  12  13
HETATM   13  C5  UNL     1      12.622  20.227  13.065  1.00  0.00     0.249 C 
BRANCH  13  14
HETATM   14  N4  UNL     1      13.767  20.925  13.558  1.00  0.00    -0.078 N 
ATOM     15  H43 UNL     1      13.670  21.130  14.552  1.00  0.00     0.274 HD
ATOM     16  H42 UNL     1      14.581  20.312  13.594  1.00  0.00     0.274 HD
ATOM     17  H41 UNL     1      13.971  21.772  13.028  1.00  0.00     0.274 HD
ENDBRANCH  13  14
ENDBRANCH  12  13
ENDBRANCH  10  12
ENDBRANCH   5  10
BRANCH   1  18
HETATM   18  N1  UNL     1      13.253  13.287  16.460  1.00  0.00    -0.233 N 
ATOM     19  H12 UNL     1      13.275  13.339  17.479  1.00  0.00     0.174 HD
ATOM     20  H11 UNL     1      13.234  12.360  16.038  1.00  0.00     0.174 HD
ENDBRANCH   1  18
TORSDOF 5
ENDMDL
