MODEL 1
REMARK VINA RESULT: -4.588101657      0.000      0.000
REMARK  4 active torsions:
REMARK  status: ('A' for Active; 'I' for Inactive)
REMARK    1  A    between atoms: N1_2  and  N2_3 
REMARK    2  A    between atoms: N2_3  and  N3_4 
REMARK    3  A    between atoms: N2_3  and  C2_7 
REMARK    4  A    between atoms: C4_9  and  N4_10 
ROOT
HETATM    1  C2  UNL     1      12.217  15.767  15.495  1.00  0.00     0.145 A 
HETATM    2  C3  UNL     1      11.828  14.567  16.089  1.00  0.00     0.099 A 
HETATM    3  C4  UNL     1      12.705  13.498  16.062  1.00  0.00     0.103 A 
HETATM    4  N5  UNL     1      13.906  13.622  15.474  1.00  0.00    -0.339 N 
ATOM      5  H5  UNL     1      14.549  12.831  15.456  1.00  0.00     0.168 HD
HETATM    6  C5  UNL     1      14.257  14.780  14.912  1.00  0.00     0.183 A 
HETATM    7  N6  UNL     1      13.419  15.819  14.932  1.00  0.00    -0.336 N 
ATOM      8  H6  UNL     1      13.714  16.692  14.493  1.00  0.00     0.168 HD
ENDROOT
BRANCH   1   9
HETATM    9  N2  UNL     1      11.313  16.848  15.544  1.00  0.00    -0.191 N 
BRANCH   9  10
HETATM   10  N1  UNL     1      11.790  18.141  15.742  1.00  0.00    -0.121 NA
HETATM   11  C1  UNL     1      11.624  19.016  14.614  1.00  0.00     0.161 C 
ENDBRANCH   9  10
BRANCH   9  12
HETATM   12  N3  UNL     1       9.949  16.671  15.408  1.00  0.00    -0.325 N 
ATOM     13  H32 UNL     1       9.298  16.866  16.169  1.00  0.00     0.178 HD
ATOM     14  H31 UNL     1       9.594  16.340  14.511  1.00  0.00     0.178 HD
ENDBRANCH   9  12
ENDBRANCH   1   9
BRANCH   3  15
HETATM   15  N4  UNL     1      12.449  12.348  16.578  1.00  0.00    -0.385 N 
ATOM     16  H42 UNL     1      12.594  12.270  17.584  1.00  0.00     0.157 HD
ATOM     17  H41 UNL     1      12.120  11.545  16.042  1.00  0.00     0.157 HD
ENDBRANCH   3  15
TORSDOF 4
ENDMDL
MODEL 2
REMARK VINA RESULT: -4.561848297      1.846      5.156
REMARK  4 active torsions:
REMARK  status: ('A' for Active; 'I' for Inactive)
REMARK    1  A    between atoms: N1_2  and  N2_3 
REMARK    2  A    between atoms: N2_3  and  N3_4 
REMARK    3  A    between atoms: N2_3  and  C2_7 
REMARK    4  A    between atoms: C4_9  and  N4_10 
ROOT
HETATM    1  C2  UNL     1      11.939  18.019  14.977  1.00  0.00     0.145 A 
HETATM    2  C3  UNL     1      12.577  18.483  13.828  1.00  0.00     0.099 A 
HETATM    3  C4  UNL     1      12.623  19.846  13.597  1.00  0.00     0.103 A 
HETATM    4  N5  UNL     1      12.062  20.699  14.469  1.00  0.00    -0.339 N 
ATOM      5  H5  UNL     1      12.097  21.703  14.295  1.00  0.00     0.168 HD
HETATM    6  C5  UNL     1      11.457  20.233  15.563  1.00  0.00     0.183 A 
HETATM    7  N6  UNL     1      11.406  18.919  15.796  1.00  0.00    -0.336 N 
ATOM      8  H6  UNL     1      10.936  18.592  16.640  1.00  0.00     0.168 HD
ENDROOT
BRANCH   1   9
HETATM    9  N2  UNL     1      11.915  16.627  15.198  1.00  0.00    -0.191 N 
BRANCH   9  10
HETATM   10  N1  UNL     1      13.077  15.879  15.029  1.00  0.00    -0.121 NA
HETATM   11  C1  UNL     1      13.106  14.646  15.767  1.00  0.00     0.161 C 
ENDBRANCH   9  10
BRANCH   9  12
HETATM   12  N3  UNL     1      10.763  15.963  15.577  1.00  0.00    -0.325 N 
ATOM     13  H32 UNL     1      10.608  14.979  15.358  1.00  0.00     0.178 HD
ATOM     14  H31 UNL     1      10.057  16.484  16.095  1.00  0.00     0.178 HD
ENDBRANCH   9  12
ENDBRANCH   1   9
BRANCH   3  15
HETATM   15  N4  UNL     1      13.184  20.381  12.571  1.00  0.00    -0.385 N 
ATOM     16  H42 UNL     1      13.296  19.774  11.759  1.00  0.00     0.157 HD
ATOM     17  H41 UNL     1      13.508  21.348  12.539  1.00  0.00     0.157 HD
ENDBRANCH   3  15
TORSDOF 4
ENDMDL
MODEL 3
REMARK VINA RESULT: -4.459247692      1.779      4.696
REMARK  4 active torsions:
REMARK  status: ('A' for Active; 'I' for Inactive)
REMARK    1  A    between atoms: N1_2  and  N2_3 
REMARK    2  A    between atoms: N2_3  and  N3_4 
REMARK    3  A    between atoms: N2_3  and  C2_7 
REMARK    4  A    between atoms: C4_9  and  N4_10 
ROOT
HETATM    1  C2  UNL     1      12.264  17.229  14.752  1.00  0.00     0.145 A 
HETATM    2  C3  UNL     1      11.251  18.053  15.240  1.00  0.00     0.099 A 
HETATM    3  C4  UNL     1      11.096  19.313  14.691  1.00  0.00     0.103 A 
HETATM    4  N5  UNL     1      11.911  19.727  13.707  1.00  0.00    -0.339 N 
ATOM      5  H5  UNL     1      11.795  20.657  13.305  1.00  0.00     0.168 HD
HETATM    6  C5  UNL     1      12.874  18.921  13.255  1.00  0.00     0.183 A 
HETATM    7  N6  UNL     1      13.032  17.703  13.778  1.00  0.00    -0.336 N 
ATOM      8  H6  UNL     1      13.778  17.109  13.413  1.00  0.00     0.168 HD
ENDROOT
BRANCH   1   9
HETATM    9  N2  UNL     1      12.395  15.945  15.318  1.00  0.00    -0.191 N 
BRANCH   9  10
HETATM   10  N1  UNL     1      13.615  15.276  15.240  1.00  0.00    -0.121 NA
HETATM   11  C1  UNL     1      13.557  13.887  15.603  1.00  0.00     0.161 C 
ENDBRANCH   9  10
BRANCH   9  12
HETATM   12  N3  UNL     1      11.344  15.309  15.952  1.00  0.00    -0.325 N 
ATOM     13  H32 UNL     1      11.425  14.945  16.901  1.00  0.00     0.178 HD
ATOM     14  H31 UNL     1      10.465  15.213  15.445  1.00  0.00     0.178 HD
ENDBRANCH   9  12
ENDBRANCH   1   9
BRANCH   3  15
HETATM   15  N4  UNL     1      10.197  20.153  15.065  1.00  0.00    -0.385 N 
ATOM     16  H42 UNL     1       9.275  19.761  15.257  1.00  0.00     0.157 HD
ATOM     17  H41 UNL     1      10.363  21.154  15.172  1.00  0.00     0.157 HD
ENDBRANCH   3  15
TORSDOF 4
ENDMDL
MODEL 4
REMARK VINA RESULT: -4.436815063      1.121      1.503
REMARK  4 active torsions:
REMARK  status: ('A' for Active; 'I' for Inactive)
REMARK    1  A    between atoms: N1_2  and  N2_3 
REMARK    2  A    between atoms: N2_3  and  N3_4 
REMARK    3  A    between atoms: N2_3  and  C2_7 
REMARK    4  A    between atoms: C4_9  and  N4_10 
ROOT
HETATM    1  C2  UNL     1      12.167  16.280  15.261  1.00  0.00     0.145 A 
HETATM    2  C3  UNL     1      12.012  15.109  16.001  1.00  0.00     0.099 A 
HETATM    3  C4  UNL     1      13.011  14.154  15.951  1.00  0.00     0.103 A 
HETATM    4  N5  UNL     1      14.107  14.360  15.203  1.00  0.00    -0.339 N 
ATOM      5  H5  UNL     1      14.842  13.653  15.168  1.00  0.00     0.168 HD
HETATM    6  C5  UNL     1      14.235  15.489  14.504  1.00  0.00     0.183 A 
HETATM    7  N6  UNL     1      13.276  16.417  14.543  1.00  0.00    -0.336 N 
ATOM      8  H6  UNL     1      13.401  17.270  13.997  1.00  0.00     0.168 HD
ENDROOT
BRANCH   1   9
HETATM    9  N2  UNL     1      11.142  17.245  15.336  1.00  0.00    -0.191 N 
BRANCH   9  10
HETATM   10  N1  UNL     1       9.811  16.836  15.394  1.00  0.00    -0.121 NA
HETATM   11  C1  UNL     1       8.856  17.879  15.134  1.00  0.00     0.161 C 
ENDBRANCH   9  10
BRANCH   9  12
HETATM   12  N3  UNL     1      11.407  18.601  15.346  1.00  0.00    -0.325 N 
ATOM     13  H32 UNL     1      10.688  19.292  15.559  1.00  0.00     0.178 HD
ATOM     14  H31 UNL     1      12.358  18.906  15.137  1.00  0.00     0.178 HD
ENDBRANCH   9  12
ENDBRANCH   1   9
BRANCH   3  15
HETATM   15  N4  UNL     1      12.971  13.040  16.592  1.00  0.00    -0.385 N 
ATOM     16  H42 UNL     1      13.638  12.942  17.357  1.00  0.00     0.157 HD
ATOM     17  H41 UNL     1      12.324  12.281  16.373  1.00  0.00     0.157 HD
ENDBRANCH   3  15
TORSDOF 4
ENDMDL
MODEL 5
REMARK VINA RESULT: -4.413444626      1.655      1.948
REMARK  4 active torsions:
REMARK  status: ('A' for Active; 'I' for Inactive)
REMARK    1  A    between atoms: N1_2  and  N2_3 
REMARK    2  A    between atoms: N2_3  and  N3_4 
REMARK    3  A    between atoms: N2_3  and  C2_7 
REMARK    4  A    between atoms: C4_9  and  N4_10 
ROOT
HETATM    1  C2  UNL     1      12.791  17.093  14.411  1.00  0.00     0.145 A 
HETATM    2  C3  UNL     1      12.305  16.187  15.353  1.00  0.00     0.099 A 
HETATM    3  C4  UNL     1      13.034  15.039  15.609  1.00  0.00     0.103 A 
HETATM    4  N5  UNL     1      14.186  14.810  14.959  1.00  0.00    -0.339 N 
ATOM      5  H5  UNL     1      14.720  13.963  15.150  1.00  0.00     0.168 HD
HETATM    6  C5  UNL     1      14.633  15.692  14.062  1.00  0.00     0.183 A 
HETATM    7  N6  UNL     1      13.937  16.803  13.806  1.00  0.00    -0.336 N 
ATOM      8  H6  UNL     1      14.303  17.457  13.115  1.00  0.00     0.168 HD
ENDROOT
BRANCH   1   9
HETATM    9  N2  UNL     1      12.038  18.261  14.175  1.00  0.00    -0.191 N 
BRANCH   9  10
HETATM   10  N1  UNL     1      12.239  18.987  13.003  1.00  0.00    -0.121 NA
HETATM   11  C1  UNL     1      12.561  20.373  13.209  1.00  0.00     0.161 C 
ENDBRANCH   9  10
BRANCH   9  12
HETATM   12  N3  UNL     1      11.099  18.725  15.075  1.00  0.00    -0.325 N 
ATOM     13  H32 UNL     1      10.252  18.201  15.293  1.00  0.00     0.178 HD
ATOM     14  H31 UNL     1      11.273  19.620  15.533  1.00  0.00     0.178 HD
ENDBRANCH   9  12
ENDBRANCH   1   9
BRANCH   3  15
HETATM   15  N4  UNL     1      12.678  14.138  16.456  1.00  0.00    -0.385 N 
ATOM     16  H42 UNL     1      13.433  13.579  16.852  1.00  0.00     0.157 HD
ATOM     17  H41 UNL     1      11.711  13.969  16.734  1.00  0.00     0.157 HD
ENDBRANCH   3  15
TORSDOF 4
ENDMDL
