MODEL 1
REMARK VINA RESULT: -4.449743389      0.000      0.000
REMARK  5 active torsions:
REMARK  status: ('A' for Active; 'I' for Inactive)
REMARK    1  A    between atoms: N1_2  and  C2_5 
REMARK    2  A    between atoms: C2_5  and  C4_8 
REMARK    3  A    between atoms: C4_8  and  N3_9 
REMARK    4  A    between atoms: C4_8  and  C5_13 
REMARK    5  A    between atoms: N3_9  and  N4_10 
ROOT
HETATM    1  C2  UNL     1     -17.049  -6.340  -7.790  1.00  0.00     0.314 C 
HETATM    2  C3  UNL     1     -16.336  -7.478  -7.165  1.00  0.00     0.094 C 
HETATM    3  N2  UNL     1     -15.794  -8.380  -6.642  1.00  0.00    -0.195 NA
ENDROOT
BRANCH   1   4
HETATM    4  N1  UNL     1     -18.401  -6.387  -7.218  1.00  0.00    -0.061 N 
HETATM    5  C1  UNL     1     -18.279  -5.728  -5.916  1.00  0.00     0.268 C 
ATOM      6  H12 UNL     1     -18.799  -7.325  -7.173  1.00  0.00     0.278 HD
ATOM      7  H11 UNL     1     -19.120  -5.986  -7.820  1.00  0.00     0.278 HD
ENDBRANCH   1   4
BRANCH   1   8
HETATM    8  C4  UNL     1     -17.054  -6.479  -9.256  1.00  0.00     0.174 C 
BRANCH   8   9
HETATM    9  N3  UNL     1     -17.070  -5.191  -9.887  1.00  0.00    -0.138 NA
BRANCH   9  10
HETATM   10  N4  UNL     1     -16.276  -5.131 -10.987  1.00  0.00    -0.348 N 
ATOM     11  H42 UNL     1     -15.567  -5.835 -11.193  1.00  0.00     0.172 HD
ATOM     12  H41 UNL     1     -16.466  -4.317 -11.570  1.00  0.00     0.172 HD
ENDBRANCH   9  10
ENDBRANCH   8   9
BRANCH   8  13
HETATM   13  C5  UNL     1     -18.270  -7.210  -9.784  1.00  0.00     0.169 A 
HETATM   14  C6  UNL     1     -18.384  -8.600  -9.821  1.00  0.00     0.202 A 
HETATM   15  O1  UNL     1     -17.770  -8.042 -10.940  1.00  0.00    -0.379 OA
ENDBRANCH   8  13
ENDBRANCH   1   8
TORSDOF 5
ENDMDL
MODEL 2
REMARK VINA RESULT: -4.268085806      1.260      2.287
REMARK  5 active torsions:
REMARK  status: ('A' for Active; 'I' for Inactive)
REMARK    1  A    between atoms: N1_2  and  C2_5 
REMARK    2  A    between atoms: C2_5  and  C4_8 
REMARK    3  A    between atoms: C4_8  and  N3_9 
REMARK    4  A    between atoms: C4_8  and  C5_13 
REMARK    5  A    between atoms: N3_9  and  N4_10 
ROOT
HETATM    1  C2  UNL     1     -17.203  -7.626  -7.543  1.00  0.00     0.314 C 
HETATM    2  C3  UNL     1     -17.753  -6.472  -6.796  1.00  0.00     0.094 C 
HETATM    3  N2  UNL     1     -18.164  -5.558  -6.180  1.00  0.00    -0.195 NA
ENDROOT
BRANCH   1   4
HETATM    4  N1  UNL     1     -15.779  -7.658  -7.182  1.00  0.00    -0.061 N 
HETATM    5  C1  UNL     1     -15.516  -9.057  -6.833  1.00  0.00     0.268 C 
ATOM      6  H12 UNL     1     -15.521  -6.993  -6.454  1.00  0.00     0.278 HD
ATOM      7  H11 UNL     1     -15.160  -7.287  -7.903  1.00  0.00     0.278 HD
ENDBRANCH   1   4
BRANCH   1   8
HETATM    8  C4  UNL     1     -17.411  -7.449  -8.990  1.00  0.00     0.174 C 
BRANCH   8   9
HETATM    9  N3  UNL     1     -17.638  -6.068  -9.305  1.00  0.00    -0.138 NA
BRANCH   9  10
HETATM   10  N4  UNL     1     -16.664  -5.536 -10.087  1.00  0.00    -0.348 N 
ATOM     11  H42 UNL     1     -15.673  -5.714  -9.929  1.00  0.00     0.172 HD
ATOM     12  H41 UNL     1     -17.032  -4.950 -10.836  1.00  0.00     0.172 HD
ENDBRANCH   9  10
ENDBRANCH   8   9
BRANCH   8  13
HETATM   13  C5  UNL     1     -18.620  -8.194  -9.517  1.00  0.00     0.169 A 
HETATM   14  C6  UNL     1     -19.176  -9.310  -8.890  1.00  0.00     0.202 A 
HETATM   15  O1  UNL     1     -18.142  -9.602  -9.778  1.00  0.00    -0.379 OA
ENDBRANCH   8  13
ENDBRANCH   1   8
TORSDOF 5
ENDMDL
MODEL 3
REMARK VINA RESULT: -4.193915183      2.219      2.993
REMARK  5 active torsions:
REMARK  status: ('A' for Active; 'I' for Inactive)
REMARK    1  A    between atoms: N1_2  and  C2_5 
REMARK    2  A    between atoms: C2_5  and  C4_8 
REMARK    3  A    between atoms: C4_8  and  N3_9 
REMARK    4  A    between atoms: C4_8  and  C5_13 
REMARK    5  A    between atoms: N3_9  and  N4_10 
ROOT
HETATM    1  C2  UNL     1     -18.264  -7.105 -10.065  1.00  0.00     0.314 C 
HETATM    2  C3  UNL     1     -17.957  -6.573  -8.718  1.00  0.00     0.094 C 
HETATM    3  N2  UNL     1     -17.718  -6.183  -7.635  1.00  0.00    -0.195 NA
ENDROOT
BRANCH   1   4
HETATM    4  N1  UNL     1     -18.004  -8.547  -9.966  1.00  0.00    -0.061 N 
HETATM    5  C1  UNL     1     -19.036  -9.049  -9.054  1.00  0.00     0.268 C 
ATOM      6  H12 UNL     1     -17.053  -8.778  -9.683  1.00  0.00     0.278 HD
ATOM      7  H11 UNL     1     -17.977  -9.027 -10.865  1.00  0.00     0.278 HD
ENDBRANCH   1   4
BRANCH   1   8
HETATM    8  C4  UNL     1     -17.421  -6.452 -11.081  1.00  0.00     0.174 C 
BRANCH   8   9
HETATM    9  N3  UNL     1     -17.093  -5.114 -10.683  1.00  0.00    -0.138 NA
BRANCH   9  10
HETATM   10  N4  UNL     1     -15.804  -4.783 -10.952  1.00  0.00    -0.348 N 
ATOM     11  H42 UNL     1     -15.171  -5.402 -11.458  1.00  0.00     0.172 HD
ATOM     12  H41 UNL     1     -15.547  -3.862 -10.598  1.00  0.00     0.172 HD
ENDBRANCH   9  10
ENDBRANCH   8   9
BRANCH   8  13
HETATM   13  C5  UNL     1     -18.099  -6.324 -12.430  1.00  0.00     0.169 A 
HETATM   14  C6  UNL     1     -17.598  -6.887 -13.605  1.00  0.00     0.202 A 
HETATM   15  O1  UNL     1     -17.102  -5.617 -13.316  1.00  0.00    -0.379 OA
ENDBRANCH   8  13
ENDBRANCH   1   8
TORSDOF 5
ENDMDL
MODEL 4
REMARK VINA RESULT: -4.151277810      2.973      4.332
REMARK  5 active torsions:
REMARK  status: ('A' for Active; 'I' for Inactive)
REMARK    1  A    between atoms: N1_2  and  C2_5 
REMARK    2  A    between atoms: C2_5  and  C4_8 
REMARK    3  A    between atoms: C4_8  and  N3_9 
REMARK    4  A    between atoms: C4_8  and  C5_13 
REMARK    5  A    between atoms: N3_9  and  N4_10 
ROOT
HETATM    1  C2  UNL     1     -18.462  -7.184 -11.389  1.00  0.00     0.314 C 
HETATM    2  C3  UNL     1     -19.722  -6.627 -11.934  1.00  0.00     0.094 C 
HETATM    3  N2  UNL     1     -20.737  -6.193 -12.337  1.00  0.00    -0.195 NA
ENDROOT
BRANCH   1   4
HETATM    4  N1  UNL     1     -18.630  -7.128  -9.931  1.00  0.00    -0.061 N 
HETATM    5  C1  UNL     1     -18.438  -8.510  -9.481  1.00  0.00     0.268 C 
ATOM      6  H12 UNL     1     -19.512  -6.713  -9.631  1.00  0.00     0.278 HD
ATOM      7  H11 UNL     1     -18.022  -6.453  -9.468  1.00  0.00     0.278 HD
ENDBRANCH   1   4
BRANCH   1   8
HETATM    8  C4  UNL     1     -17.308  -6.394 -11.851  1.00  0.00     0.174 C 
BRANCH   8   9
HETATM    9  N3  UNL     1     -17.145  -5.217 -11.049  1.00  0.00    -0.138 NA
BRANCH   9  10
HETATM   10  N4  UNL     1     -15.847  -4.842 -10.917  1.00  0.00    -0.348 N 
ATOM     11  H42 UNL     1     -15.467  -4.470 -10.047  1.00  0.00     0.172 HD
ATOM     12  H41 UNL     1     -15.306  -4.972 -11.772  1.00  0.00     0.172 HD
ENDBRANCH   9  10
ENDBRANCH   8   9
BRANCH   8  13
HETATM   13  C5  UNL     1     -17.451  -5.903 -13.277  1.00  0.00     0.169 A 
HETATM   14  C6  UNL     1     -17.034  -6.630 -14.392  1.00  0.00     0.202 A 
HETATM   15  O1  UNL     1     -16.044  -5.832 -13.821  1.00  0.00    -0.379 OA
ENDBRANCH   8  13
ENDBRANCH   1   8
TORSDOF 5
ENDMDL
MODEL 5
REMARK VINA RESULT: -4.135117969      2.319      3.904
REMARK  5 active torsions:
REMARK  status: ('A' for Active; 'I' for Inactive)
REMARK    1  A    between atoms: N1_2  and  C2_5 
REMARK    2  A    between atoms: C2_5  and  C4_8 
REMARK    3  A    between atoms: C4_8  and  N3_9 
REMARK    4  A    between atoms: C4_8  and  C5_13 
REMARK    5  A    between atoms: N3_9  and  N4_10 
ROOT
HETATM    1  C2  UNL     1     -18.044  -6.861  -9.149  1.00  0.00     0.314 C 
HETATM    2  C3  UNL     1     -18.100  -8.338  -9.236  1.00  0.00     0.094 C 
HETATM    3  N2  UNL     1     -18.139  -9.508  -9.340  1.00  0.00    -0.195 NA
ENDROOT
BRANCH   1   4
HETATM    4  N1  UNL     1     -17.270  -6.446 -10.327  1.00  0.00    -0.061 N 
HETATM    5  C1  UNL     1     -18.130  -6.767 -11.469  1.00  0.00     0.268 C 
ATOM      6  H12 UNL     1     -16.340  -6.861 -10.378  1.00  0.00     0.278 HD
ATOM      7  H11 UNL     1     -16.961  -5.475 -10.300  1.00  0.00     0.278 HD
ENDBRANCH   1   4
BRANCH   1   8
HETATM    8  C4  UNL     1     -17.410  -6.444  -7.886  1.00  0.00     0.174 C 
BRANCH   8   9
HETATM    9  N3  UNL     1     -16.190  -7.165  -7.668  1.00  0.00    -0.138 NA
BRANCH   9  10
HETATM   10  N4  UNL     1     -16.039  -7.574  -6.383  1.00  0.00    -0.348 N 
ATOM     11  H42 UNL     1     -16.238  -8.528  -6.082  1.00  0.00     0.172 HD
ATOM     12  H41 UNL     1     -15.710  -6.832  -5.765  1.00  0.00     0.172 HD
ENDBRANCH   9  10
ENDBRANCH   8   9
BRANCH   8  13
HETATM   13  C5  UNL     1     -18.269  -6.713  -6.667  1.00  0.00     0.169 A 
HETATM   14  C6  UNL     1     -19.522  -6.136  -6.460  1.00  0.00     0.202 A 
HETATM   15  O1  UNL     1     -18.452  -5.371  -6.000  1.00  0.00    -0.379 OA
ENDBRANCH   8  13
ENDBRANCH   1   8
TORSDOF 5
ENDMDL
