MODEL 1
REMARK VINA RESULT: -5.655171461      0.000      0.000
REMARK  3 active torsions:
REMARK  status: ('A' for Active; 'I' for Inactive)
REMARK    1  A    between atoms: C3_5  and  N2_6 
REMARK    2  A    between atoms: N2_6  and  N3_8 
REMARK    3  A    between atoms: N3_8  and  C4_10 
ROOT
HETATM    1  N3  UNL     1     -16.874  -6.151  -8.135  1.00  0.00    -0.269 N 
ATOM      2  H3  UNL     1     -17.453  -5.602  -7.499  1.00  0.00     0.190 HD
ENDROOT
BRANCH   1   3
HETATM    3  N2  UNL     1     -15.826  -6.908  -7.673  1.00  0.00    -0.283 N 
ATOM      4  H2  UNL     1     -14.891  -6.515  -7.785  1.00  0.00     0.188 HD
BRANCH   3   5
HETATM    5  C3  UNL     1     -15.912  -8.188  -7.052  1.00  0.00     0.119 A 
HETATM    6  N1  UNL     1     -14.898  -9.046  -6.829  1.00  0.00    -0.351 N 
HETATM    7  C2  UNL     1     -15.361 -10.153  -6.203  1.00  0.00     0.090 A 
ATOM      8  H1  UNL     1     -13.925  -8.885  -7.091  1.00  0.00     0.166 HD
HETATM    9  C1  UNL     1     -16.721 -10.037  -6.001  1.00  0.00     0.021 A 
HETATM   10  C6  UNL     1     -17.048  -8.800  -6.538  1.00  0.00     0.051 A 
ENDBRANCH   3   5
ENDBRANCH   1   3
BRANCH   1  11
HETATM   11  C4  UNL     1     -17.122  -6.163  -9.544  1.00  0.00     0.207 A 
HETATM   12  N4  UNL     1     -16.546  -5.367 -10.394  1.00  0.00    -0.273 N 
HETATM   13  N5  UNL     1     -16.986  -5.608 -11.696  1.00  0.00    -0.119 NA
ATOM     14  H4  UNL     1     -15.861  -4.656 -10.142  1.00  0.00     0.185 HD
HETATM   15  C5  UNL     1     -17.905  -6.739 -11.663  1.00  0.00     0.259 A 
HETATM   16  N6  UNL     1     -18.002  -7.014 -10.235  1.00  0.00    -0.345 N 
ATOM     17  H6  UNL     1     -18.611  -7.712  -9.807  1.00  0.00     0.164 HD
ENDBRANCH   1  11
TORSDOF 3
ENDMDL
MODEL 2
REMARK VINA RESULT: -5.546805248      1.413      2.085
REMARK  3 active torsions:
REMARK  status: ('A' for Active; 'I' for Inactive)
REMARK    1  A    between atoms: C3_5  and  N2_6 
REMARK    2  A    between atoms: N2_6  and  N3_8 
REMARK    3  A    between atoms: N3_8  and  C4_10 
ROOT
HETATM    1  N3  UNL     1     -16.612  -5.380 -10.101  1.00  0.00    -0.269 N 
ATOM      2  H3  UNL     1     -16.043  -4.646  -9.680  1.00  0.00     0.190 HD
ENDROOT
BRANCH   1   3
HETATM    3  N2  UNL     1     -17.390  -6.209  -9.330  1.00  0.00    -0.283 N 
ATOM      4  H2  UNL     1     -18.401  -6.092  -9.407  1.00  0.00     0.188 HD
BRANCH   3   5
HETATM    5  C3  UNL     1     -16.927  -7.217  -8.434  1.00  0.00     0.119 A 
HETATM    6  N1  UNL     1     -15.876  -7.129  -7.597  1.00  0.00    -0.351 N 
HETATM    7  C2  UNL     1     -15.753  -8.278  -6.892  1.00  0.00     0.090 A 
ATOM      8  H1  UNL     1     -15.264  -6.318  -7.507  1.00  0.00     0.166 HD
HETATM    9  C1  UNL     1     -16.746  -9.160  -7.265  1.00  0.00     0.021 A 
HETATM   10  C6  UNL     1     -17.472  -8.477  -8.231  1.00  0.00     0.051 A 
ENDBRANCH   3   5
ENDBRANCH   1   3
BRANCH   1  11
HETATM   11  C4  UNL     1     -16.632  -5.588 -11.516  1.00  0.00     0.207 A 
HETATM   12  N4  UNL     1     -15.694  -5.196 -12.326  1.00  0.00    -0.273 N 
HETATM   13  N5  UNL     1     -15.988  -5.535 -13.646  1.00  0.00    -0.119 NA
ATOM     14  H4  UNL     1     -14.851  -4.703 -12.032  1.00  0.00     0.185 HD
HETATM   15  C5  UNL     1     -17.235  -6.288 -13.656  1.00  0.00     0.259 A 
HETATM   16  N6  UNL     1     -17.637  -6.235 -12.257  1.00  0.00    -0.345 N 
ATOM     17  H6  UNL     1     -18.507  -6.607 -11.876  1.00  0.00     0.164 HD
ENDBRANCH   1  11
TORSDOF 3
ENDMDL
MODEL 3
REMARK VINA RESULT: -5.396976268      1.659      2.198
REMARK  3 active torsions:
REMARK  status: ('A' for Active; 'I' for Inactive)
REMARK    1  A    between atoms: C3_5  and  N2_6 
REMARK    2  A    between atoms: N2_6  and  N3_8 
REMARK    3  A    between atoms: N3_8  and  C4_10 
ROOT
HETATM    1  N3  UNL     1     -16.665  -5.428 -10.023  1.00  0.00    -0.269 N 
ATOM      2  H3  UNL     1     -16.094  -4.715  -9.569  1.00  0.00     0.190 HD
ENDROOT
BRANCH   1   3
HETATM    3  N2  UNL     1     -17.482  -6.258  -9.297  1.00  0.00    -0.283 N 
ATOM      4  H2  UNL     1     -18.488  -6.116  -9.397  1.00  0.00     0.188 HD
BRANCH   3   5
HETATM    5  C3  UNL     1     -17.067  -7.299  -8.415  1.00  0.00     0.119 A 
HETATM    6  N1  UNL     1     -17.526  -8.565  -8.391  1.00  0.00    -0.351 N 
HETATM    7  C2  UNL     1     -16.885  -9.268  -7.428  1.00  0.00     0.090 A 
ATOM      8  H1  UNL     1     -18.249  -8.938  -9.006  1.00  0.00     0.166 HD
HETATM    9  C1  UNL     1     -15.972  -8.454  -6.789  1.00  0.00     0.021 A 
HETATM   10  C6  UNL     1     -16.100  -7.225  -7.422  1.00  0.00     0.051 A 
ENDBRANCH   3   5
ENDBRANCH   1   3
BRANCH   1  11
HETATM   11  C4  UNL     1     -16.646  -5.602 -11.444  1.00  0.00     0.207 A 
HETATM   12  N4  UNL     1     -15.701  -5.166 -12.221  1.00  0.00    -0.273 N 
HETATM   13  N5  UNL     1     -15.954  -5.481 -13.556  1.00  0.00    -0.119 NA
ATOM     14  H4  UNL     1     -14.878  -4.658 -11.896  1.00  0.00     0.185 HD
HETATM   15  C5  UNL     1     -17.179  -6.267 -13.613  1.00  0.00     0.259 A 
HETATM   16  N6  UNL     1     -17.615  -6.258 -12.223  1.00  0.00    -0.345 N 
ATOM     17  H6  UNL     1     -18.484  -6.663 -11.871  1.00  0.00     0.164 HD
ENDBRANCH   1  11
TORSDOF 3
ENDMDL
MODEL 4
REMARK VINA RESULT: -5.370305432      3.390      5.495
REMARK  3 active torsions:
REMARK  status: ('A' for Active; 'I' for Inactive)
REMARK    1  A    between atoms: C3_5  and  N2_6 
REMARK    2  A    between atoms: N2_6  and  N3_8 
REMARK    3  A    between atoms: N3_8  and  C4_10 
ROOT
HETATM    1  N3  UNL     1     -17.080  -6.379 -13.972  1.00  0.00    -0.269 N 
ATOM      2  H3  UNL     1     -16.182  -6.863 -13.996  1.00  0.00     0.190 HD
ENDROOT
BRANCH   1   3
HETATM    3  N2  UNL     1     -18.011  -6.651 -13.001  1.00  0.00    -0.283 N 
ATOM      4  H2  UNL     1     -18.946  -6.907 -13.320  1.00  0.00     0.188 HD
BRANCH   3   5
HETATM    5  C3  UNL     1     -17.804  -6.611 -11.591  1.00  0.00     0.119 A 
HETATM    6  N1  UNL     1     -18.339  -7.440 -10.674  1.00  0.00    -0.351 N 
HETATM    7  C2  UNL     1     -17.899  -7.103  -9.439  1.00  0.00     0.090 A 
ATOM      8  H1  UNL     1     -18.978  -8.207 -10.880  1.00  0.00     0.166 HD
HETATM    9  C1  UNL     1     -17.049  -6.021  -9.527  1.00  0.00     0.021 A 
HETATM   10  C6  UNL     1     -17.000  -5.727 -10.883  1.00  0.00     0.051 A 
ENDBRANCH   3   5
ENDBRANCH   1   3
BRANCH   1  11
HETATM   11  C4  UNL     1     -17.418  -5.389 -14.949  1.00  0.00     0.207 A 
HETATM   12  N4  UNL     1     -18.609  -5.229 -15.444  1.00  0.00    -0.273 N 
HETATM   13  N5  UNL     1     -18.637  -4.191 -16.375  1.00  0.00    -0.119 NA
ATOM     14  H4  UNL     1     -19.420  -5.791 -15.185  1.00  0.00     0.185 HD
HETATM   15  C5  UNL     1     -17.313  -3.585 -16.421  1.00  0.00     0.259 A 
HETATM   16  N6  UNL     1     -16.551  -4.444 -15.524  1.00  0.00    -0.345 N 
ATOM     17  H6  UNL     1     -15.550  -4.371 -15.342  1.00  0.00     0.164 HD
ENDBRANCH   1  11
TORSDOF 3
ENDMDL
MODEL 5
REMARK VINA RESULT: -5.284401393      1.676      2.436
REMARK  3 active torsions:
REMARK  status: ('A' for Active; 'I' for Inactive)
REMARK    1  A    between atoms: C3_5  and  N2_6 
REMARK    2  A    between atoms: N2_6  and  N3_8 
REMARK    3  A    between atoms: N3_8  and  C4_10 
ROOT
HETATM    1  N3  UNL     1     -16.587  -5.356 -10.236  1.00  0.00    -0.269 N 
ATOM      2  H3  UNL     1     -16.042  -4.611  -9.801  1.00  0.00     0.190 HD
ENDROOT
BRANCH   1   3
HETATM    3  N2  UNL     1     -17.356  -6.209  -9.483  1.00  0.00    -0.283 N 
ATOM      4  H2  UNL     1     -18.213  -6.556  -9.915  1.00  0.00     0.188 HD
BRANCH   3   5
HETATM    5  C3  UNL     1     -17.077  -6.660  -8.160  1.00  0.00     0.119 A 
HETATM    6  N1  UNL     1     -16.128  -7.543  -7.793  1.00  0.00    -0.351 N 
HETATM    7  C2  UNL     1     -16.152  -7.711  -6.450  1.00  0.00     0.090 A 
ATOM      8  H1  UNL     1     -15.487  -8.014  -8.431  1.00  0.00     0.166 HD
HETATM    9  C1  UNL     1     -17.141  -6.921  -5.901  1.00  0.00     0.021 A 
HETATM   10  C6  UNL     1     -17.708  -6.270  -6.987  1.00  0.00     0.051 A 
ENDBRANCH   3   5
ENDBRANCH   1   3
BRANCH   1  11
HETATM   11  C4  UNL     1     -16.582  -5.553 -11.653  1.00  0.00     0.207 A 
HETATM   12  N4  UNL     1     -15.629  -5.155 -12.442  1.00  0.00    -0.273 N 
HETATM   13  N5  UNL     1     -15.898  -5.484 -13.771  1.00  0.00    -0.119 NA
ATOM     14  H4  UNL     1     -14.791  -4.663 -12.130  1.00  0.00     0.185 HD
HETATM   15  C5  UNL     1     -17.145  -6.237 -13.809  1.00  0.00     0.259 A 
HETATM   16  N6  UNL     1     -17.572  -6.194 -12.417  1.00  0.00    -0.345 N 
ATOM     17  H6  UNL     1     -18.449  -6.570 -12.054  1.00  0.00     0.164 HD
ENDBRANCH   1  11
TORSDOF 3
ENDMDL
