MODEL 1
REMARK VINA RESULT: -4.330084041      0.000      0.000
REMARK  5 active torsions:
REMARK  status: ('A' for Active; 'I' for Inactive)
REMARK    1  A    between atoms: C2_2  and  C3_3 
REMARK    2  A    between atoms: C3_3  and  C4_4 
REMARK    3  A    between atoms: C4_4  and  C5_5 
REMARK    4  A    between atoms: C6_9  and  N2_10 
REMARK    5  A    between atoms: N4_15  and  N5_16 
ROOT
HETATM    1  C5  UNL     1     -18.158  -7.107  -9.279  1.00  0.00     0.301 C 
HETATM    2  N1  UNL     1     -17.682  -8.169  -8.407  1.00  0.00    -0.011 N 
ATOM      3  H11 UNL     1     -16.699  -8.429  -8.495  1.00  0.00     0.283 HD
ATOM      4  H12 UNL     1     -18.016  -9.112  -8.605  1.00  0.00     0.283 HD
HETATM    5  C6  UNL     1     -18.100  -7.572  -7.121  1.00  0.00     0.491 C 
HETATM    6  N3  UNL     1     -18.245  -6.123  -7.373  1.00  0.00    -0.083 NA
HETATM    7  N4  UNL     1     -17.503  -6.011  -8.626  1.00  0.00    -0.116 NA
ENDROOT
BRANCH   1   8
HETATM    8  C4  UNL     1     -18.188  -7.307 -10.689  1.00  0.00     0.052 C 
BRANCH   8   9
HETATM    9  C3  UNL     1     -17.667  -6.418 -11.717  1.00  0.00     0.003 C 
BRANCH   9  10
HETATM   10  C2  UNL     1     -18.313  -6.361 -13.058  1.00  0.00    -0.004 C 
HETATM   11  C1  UNL     1     -17.185  -6.490 -14.118  1.00  0.00     0.005 C 
ENDBRANCH   9  10
ENDBRANCH   8   9
ENDBRANCH   1   8
BRANCH   7  12
HETATM   12  N5  UNL     1     -16.213  -6.425  -8.147  1.00  0.00    -0.347 NA
ATOM     13  H52 UNL     1     -15.835  -5.505  -7.920  1.00  0.00     0.172 HD
ATOM     14  H51 UNL     1     -16.286  -6.748  -7.182  1.00  0.00     0.172 HD
ENDBRANCH   7  12
BRANCH   5  15
HETATM   15  N2  UNL     1     -19.425  -8.080  -6.843  1.00  0.00    -0.035 N 
ATOM     16  H23 UNL     1     -19.936  -7.521  -6.159  1.00  0.00     0.278 HD
ATOM     17  H22 UNL     1     -20.076  -7.958  -7.618  1.00  0.00     0.278 HD
ATOM     18  H21 UNL     1     -19.309  -9.054  -6.562  1.00  0.00     0.278 HD
ENDBRANCH   5  15
TORSDOF 5
ENDMDL
MODEL 2
REMARK VINA RESULT: -4.299353964      1.242      2.063
REMARK  5 active torsions:
REMARK  status: ('A' for Active; 'I' for Inactive)
REMARK    1  A    between atoms: C2_2  and  C3_3 
REMARK    2  A    between atoms: C3_3  and  C4_4 
REMARK    3  A    between atoms: C4_4  and  C5_5 
REMARK    4  A    between atoms: C6_9  and  N2_10 
REMARK    5  A    between atoms: N4_15  and  N5_16 
ROOT
HETATM    1  C5  UNL     1     -17.190  -6.785  -8.735  1.00  0.00     0.301 C 
HETATM    2  N1  UNL     1     -16.286  -6.232  -7.741  1.00  0.00    -0.011 N 
ATOM      3  H11 UNL     1     -16.484  -5.285  -7.416  1.00  0.00     0.283 HD
ATOM      4  H12 UNL     1     -15.344  -5.996  -8.056  1.00  0.00     0.283 HD
HETATM    5  C6  UNL     1     -16.401  -7.316  -6.743  1.00  0.00     0.491 C 
HETATM    6  N3  UNL     1     -17.673  -8.007  -7.037  1.00  0.00    -0.083 NA
HETATM    7  N4  UNL     1     -18.317  -6.999  -7.874  1.00  0.00    -0.116 NA
ENDROOT
BRANCH   1   8
HETATM    8  C4  UNL     1     -17.263  -6.200 -10.032  1.00  0.00     0.052 C 
BRANCH   8   9
HETATM    9  C3  UNL     1     -17.941  -6.735 -11.205  1.00  0.00     0.003 C 
BRANCH   9  10
HETATM   10  C2  UNL     1     -17.496  -6.345 -12.571  1.00  0.00    -0.004 C 
HETATM   11  C1  UNL     1     -18.749  -6.371 -13.488  1.00  0.00     0.005 C 
ENDBRANCH   9  10
ENDBRANCH   8   9
ENDBRANCH   1   8
BRANCH   7  12
HETATM   12  N5  UNL     1     -18.404  -5.941  -6.907  1.00  0.00    -0.347 NA
ATOM     13  H52 UNL     1     -17.967  -5.199  -7.454  1.00  0.00     0.172 HD
ATOM     14  H51 UNL     1     -19.340  -5.537  -6.914  1.00  0.00     0.172 HD
ENDBRANCH   7  12
BRANCH   5  15
HETATM   15  N2  UNL     1     -15.340  -8.256  -7.032  1.00  0.00    -0.035 N 
ATOM     16  H23 UNL     1     -15.378  -9.097  -6.456  1.00  0.00     0.278 HD
ATOM     17  H22 UNL     1     -15.445  -8.717  -7.936  1.00  0.00     0.278 HD
ATOM     18  H21 UNL     1     -14.464  -7.743  -6.939  1.00  0.00     0.278 HD
ENDBRANCH   5  15
TORSDOF 5
ENDMDL
MODEL 3
REMARK VINA RESULT: -4.260482299      4.059      5.804
REMARK  5 active torsions:
REMARK  status: ('A' for Active; 'I' for Inactive)
REMARK    1  A    between atoms: C2_2  and  C3_3 
REMARK    2  A    between atoms: C3_3  and  C4_4 
REMARK    3  A    between atoms: C4_4  and  C5_5 
REMARK    4  A    between atoms: C6_9  and  N2_10 
REMARK    5  A    between atoms: N4_15  and  N5_16 
ROOT
HETATM    1  C5  UNL     1     -17.701  -6.031 -12.794  1.00  0.00     0.301 C 
HETATM    2  N1  UNL     1     -17.178  -6.905 -13.832  1.00  0.00    -0.011 N 
ATOM      3  H11 UNL     1     -17.581  -7.840 -13.891  1.00  0.00     0.283 HD
ATOM      4  H12 UNL     1     -16.228  -7.253 -13.704  1.00  0.00     0.283 HD
HETATM    5  C6  UNL     1     -17.409  -6.007 -14.983  1.00  0.00     0.491 C 
HETATM    6  N3  UNL     1     -18.451  -5.052 -14.552  1.00  0.00    -0.083 NA
HETATM    7  N4  UNL     1     -18.978  -5.764 -13.391  1.00  0.00    -0.116 NA
ENDROOT
BRANCH   1   8
HETATM    8  C4  UNL     1     -17.503  -6.360 -11.423  1.00  0.00     0.052 C 
BRANCH   8   9
HETATM    9  C3  UNL     1     -18.229  -7.350 -10.639  1.00  0.00     0.003 C 
BRANCH   9  10
HETATM   10  C2  UNL     1     -18.356  -7.193  -9.164  1.00  0.00    -0.004 C 
HETATM   11  C1  UNL     1     -17.121  -6.386  -8.678  1.00  0.00     0.005 C 
ENDBRANCH   9  10
ENDBRANCH   8   9
ENDBRANCH   1   8
BRANCH   7  12
HETATM   12  N5  UNL     1     -19.461  -6.938 -14.063  1.00  0.00    -0.347 NA
ATOM     13  H52 UNL     1     -19.635  -7.521 -13.243  1.00  0.00     0.172 HD
ATOM     14  H51 UNL     1     -20.443  -6.818 -14.313  1.00  0.00     0.172 HD
ENDBRANCH   7  12
BRANCH   5  15
HETATM   15  N2  UNL     1     -16.193  -5.243 -15.159  1.00  0.00    -0.035 N 
ATOM     16  H23 UNL     1     -15.651  -5.529 -15.974  1.00  0.00     0.278 HD
ATOM     17  H22 UNL     1     -16.360  -4.279 -15.450  1.00  0.00     0.278 HD
ATOM     18  H21 UNL     1     -15.674  -5.316 -14.283  1.00  0.00     0.278 HD
ENDBRANCH   5  15
TORSDOF 5
ENDMDL
MODEL 4
REMARK VINA RESULT: -4.232262324      0.975      2.216
REMARK  5 active torsions:
REMARK  status: ('A' for Active; 'I' for Inactive)
REMARK    1  A    between atoms: C2_2  and  C3_3 
REMARK    2  A    between atoms: C3_3  and  C4_4 
REMARK    3  A    between atoms: C4_4  and  C5_5 
REMARK    4  A    between atoms: C6_9  and  N2_10 
REMARK    5  A    between atoms: N4_15  and  N5_16 
ROOT
HETATM    1  C5  UNL     1     -17.943  -7.638  -9.808  1.00  0.00     0.301 C 
HETATM    2  N1  UNL     1     -18.170  -6.924  -8.562  1.00  0.00    -0.011 N 
ATOM      3  H11 UNL     1     -19.139  -6.831  -8.256  1.00  0.00     0.283 HD
ATOM      4  H12 UNL     1     -18.010  -5.916  -8.574  1.00  0.00     0.283 HD
HETATM    5  C6  UNL     1     -17.275  -7.730  -7.706  1.00  0.00     0.491 C 
HETATM    6  N3  UNL     1     -17.104  -9.023  -8.399  1.00  0.00    -0.083 NA
HETATM    7  N4  UNL     1     -18.228  -8.959  -9.329  1.00  0.00    -0.116 NA
ENDROOT
BRANCH   1   8
HETATM    8  C4  UNL     1     -18.430  -7.100 -11.034  1.00  0.00     0.052 C 
BRANCH   8   9
HETATM    9  C3  UNL     1     -17.655  -6.460 -12.087  1.00  0.00     0.003 C 
BRANCH   9  10
HETATM   10  C2  UNL     1     -18.208  -6.351 -13.465  1.00  0.00    -0.004 C 
HETATM   11  C1  UNL     1     -17.004  -6.350 -14.446  1.00  0.00     0.005 C 
ENDBRANCH   9  10
ENDBRANCH   8   9
ENDBRANCH   1   8
BRANCH   7  12
HETATM   12  N5  UNL     1     -19.296  -8.914  -8.370  1.00  0.00    -0.347 NA
ATOM     13  H52 UNL     1     -19.755  -8.062  -8.694  1.00  0.00     0.172 HD
ATOM     14  H51 UNL     1     -20.045  -9.548  -8.651  1.00  0.00     0.172 HD
ENDBRANCH   7  12
BRANCH   5  15
HETATM   15  N2  UNL     1     -15.986  -7.074  -7.725  1.00  0.00    -0.035 N 
ATOM     16  H23 UNL     1     -15.311  -7.493  -7.086  1.00  0.00     0.278 HD
ATOM     17  H22 UNL     1     -15.463  -7.236  -8.586  1.00  0.00     0.278 HD
ATOM     18  H21 UNL     1     -16.160  -6.086  -7.538  1.00  0.00     0.278 HD
ENDBRANCH   5  15
TORSDOF 5
ENDMDL
MODEL 5
REMARK VINA RESULT: -4.098032524      1.202      1.536
REMARK  5 active torsions:
REMARK  status: ('A' for Active; 'I' for Inactive)
REMARK    1  A    between atoms: C2_2  and  C3_3 
REMARK    2  A    between atoms: C3_3  and  C4_4 
REMARK    3  A    between atoms: C4_4  and  C5_5 
REMARK    4  A    between atoms: C6_9  and  N2_10 
REMARK    5  A    between atoms: N4_15  and  N5_16 
ROOT
HETATM    1  C5  UNL     1     -17.847  -6.576 -10.452  1.00  0.00     0.301 C 
HETATM    2  N1  UNL     1     -17.709  -7.942  -9.974  1.00  0.00    -0.011 N 
ATOM      3  H11 UNL     1     -16.760  -8.272  -9.793  1.00  0.00     0.283 HD
ATOM      4  H12 UNL     1     -17.909  -8.686 -10.642  1.00  0.00     0.283 HD
HETATM    5  C6  UNL     1     -18.610  -7.835  -8.807  1.00  0.00     0.491 C 
HETATM    6  N3  UNL     1     -18.695  -6.395  -8.488  1.00  0.00    -0.083 NA
HETATM    7  N4  UNL     1     -17.531  -5.907  -9.223  1.00  0.00    -0.116 NA
ENDROOT
BRANCH   1   8
HETATM    8  C4  UNL     1     -17.324  -6.214 -11.727  1.00  0.00     0.052 C 
BRANCH   8   9
HETATM    9  C3  UNL     1     -17.964  -6.381 -13.024  1.00  0.00     0.003 C 
BRANCH   9  10
HETATM   10  C2  UNL     1     -17.139  -6.532 -14.254  1.00  0.00    -0.004 C 
HETATM   11  C1  UNL     1     -17.574  -5.413 -15.240  1.00  0.00     0.005 C 
ENDBRANCH   9  10
ENDBRANCH   8   9
ENDBRANCH   1   8
BRANCH   7  12
HETATM   12  N5  UNL     1     -16.513  -6.633  -8.517  1.00  0.00    -0.347 NA
ATOM     13  H52 UNL     1     -16.154  -5.869  -7.943  1.00  0.00     0.172 HD
ATOM     14  H51 UNL     1     -16.929  -7.154  -7.744  1.00  0.00     0.172 HD
ENDBRANCH   7  12
BRANCH   5  15
HETATM   15  N2  UNL     1     -19.923  -8.238  -9.263  1.00  0.00    -0.035 N 
ATOM     16  H23 UNL     1     -20.680  -7.709  -8.830  1.00  0.00     0.278 HD
ATOM     17  H22 UNL     1     -20.116  -7.969 -10.228  1.00  0.00     0.278 HD
ATOM     18  H21 UNL     1     -19.990  -9.243  -9.103  1.00  0.00     0.278 HD
ENDBRANCH   5  15
TORSDOF 5
ENDMDL
