MODEL 1
REMARK VINA RESULT: -4.791459713      0.000      0.000
REMARK  5 active torsions:
REMARK  status: ('A' for Active; 'I' for Inactive)
REMARK    1  A    between atoms: C2_2  and  C3_3 
REMARK    2  A    between atoms: C3_3  and  N1_4 
REMARK    3  A    between atoms: N1_4  and  N2_6 
REMARK    4  A    between atoms: N2_6  and  C4_8 
REMARK    5  A    between atoms: C5_12  and  N4_13 
ROOT
HETATM    1  C4  UNL     1     -16.653  -6.012 -13.253  1.00  0.00     0.720 A 
HETATM    2  N3  UNL     1     -15.566  -5.240 -13.099  1.00  0.00    -0.086 N 
ATOM      3  H3  UNL     1     -14.924  -4.963 -13.842  1.00  0.00     0.214 HD
HETATM    4  O1  UNL     1     -15.464  -4.900 -11.830  1.00  0.00    -0.186 OA
HETATM    5  C5  UNL     1     -16.453  -5.428 -11.156  1.00  0.00     0.256 A 
HETATM    6  N5  UNL     1     -17.198  -6.120 -12.031  1.00  0.00    -0.150 N 
ATOM      7  H5  UNL     1     -18.043  -6.645 -11.804  1.00  0.00     0.188 HD
ENDROOT
BRANCH   1   8
HETATM    8  N2  UNL     1     -17.135  -6.564 -14.308  1.00  0.00    -0.134 N 
ATOM      9  H2  UNL     1     -17.683  -7.421 -14.220  1.00  0.00     0.205 HD
BRANCH   8  10
HETATM   10  N1  UNL     1     -16.924  -6.012 -15.574  1.00  0.00    -0.319 N 
ATOM     11  H1  UNL     1     -15.964  -5.939 -15.910  1.00  0.00     0.181 HD
BRANCH  10  12
HETATM   12  C3  UNL     1     -17.970  -5.544 -16.428  1.00  0.00     0.166 C 
BRANCH  12  13
HETATM   13  C2  UNL     1     -18.267  -4.118 -16.284  1.00  0.00    -0.016 C 
HETATM   14  C1  UNL     1     -17.288  -3.231 -16.223  1.00  0.00     0.008 C 
ENDBRANCH  12  13
ENDBRANCH  10  12
ENDBRANCH   8  10
ENDBRANCH   1   8
BRANCH   5  15
HETATM   15  N4  UNL     1     -16.666  -5.304  -9.898  1.00  0.00    -0.363 N 
ATOM     16  H42 UNL     1     -17.509  -4.937  -9.457  1.00  0.00     0.159 HD
ATOM     17  H41 UNL     1     -16.022  -5.556  -9.148  1.00  0.00     0.159 HD
ENDBRANCH   5  15
TORSDOF 5
ENDMDL
MODEL 2
REMARK VINA RESULT: -4.712820614      2.121      5.273
REMARK  5 active torsions:
REMARK  status: ('A' for Active; 'I' for Inactive)
REMARK    1  A    between atoms: C2_2  and  C3_3 
REMARK    2  A    between atoms: C3_3  and  N1_4 
REMARK    3  A    between atoms: N1_4  and  N2_6 
REMARK    4  A    between atoms: N2_6  and  C4_8 
REMARK    5  A    between atoms: C5_12  and  N4_13 
ROOT
HETATM    1  C4  UNL     1     -17.718  -6.379 -12.452  1.00  0.00     0.720 A 
HETATM    2  N3  UNL     1     -16.544  -5.748 -12.285  1.00  0.00    -0.086 N 
ATOM      3  H3  UNL     1     -16.127  -5.497 -11.388  1.00  0.00     0.214 HD
HETATM    4  O1  UNL     1     -16.020  -5.507 -13.470  1.00  0.00    -0.186 OA
HETATM    5  C5  UNL     1     -16.818  -5.963 -14.401  1.00  0.00     0.256 A 
HETATM    6  N5  UNL     1     -17.875  -6.507 -13.779  1.00  0.00    -0.150 N 
ATOM      7  H5  UNL     1     -18.672  -6.947 -14.240  1.00  0.00     0.188 HD
ENDROOT
BRANCH   1   8
HETATM    8  N2  UNL     1     -18.563  -6.802 -11.582  1.00  0.00    -0.134 N 
ATOM      9  H2  UNL     1     -19.553  -6.585 -11.699  1.00  0.00     0.205 HD
BRANCH   8  10
HETATM   10  N1  UNL     1     -18.150  -7.554 -10.479  1.00  0.00    -0.319 N 
ATOM     11  H1  UNL     1     -17.725  -8.465 -10.653  1.00  0.00     0.181 HD
BRANCH  10  12
HETATM   12  C3  UNL     1     -18.288  -7.127  -9.122  1.00  0.00     0.166 C 
BRANCH  12  13
HETATM   13  C2  UNL     1     -17.100  -6.464  -8.580  1.00  0.00    -0.016 C 
HETATM   14  C1  UNL     1     -16.360  -7.061  -7.660  1.00  0.00     0.008 C 
ENDBRANCH  12  13
ENDBRANCH  10  12
ENDBRANCH   8  10
ENDBRANCH   1   8
BRANCH   5  15
HETATM   15  N4  UNL     1     -16.623  -5.900 -15.665  1.00  0.00    -0.363 N 
ATOM     16  H42 UNL     1     -16.985  -5.191 -16.303  1.00  0.00     0.159 HD
ATOM     17  H41 UNL     1     -16.073  -6.552 -16.226  1.00  0.00     0.159 HD
ENDBRANCH   5  15
TORSDOF 5
ENDMDL
MODEL 3
REMARK VINA RESULT: -4.656091120      2.428      5.921
REMARK  5 active torsions:
REMARK  status: ('A' for Active; 'I' for Inactive)
REMARK    1  A    between atoms: C2_2  and  C3_3 
REMARK    2  A    between atoms: C3_3  and  N1_4 
REMARK    3  A    between atoms: N1_4  and  N2_6 
REMARK    4  A    between atoms: N2_6  and  C4_8 
REMARK    5  A    between atoms: C5_12  and  N4_13 
ROOT
HETATM    1  C4  UNL     1     -16.439  -5.364 -11.195  1.00  0.00     0.720 A 
HETATM    2  N3  UNL     1     -15.397  -4.958 -11.936  1.00  0.00    -0.086 N 
ATOM      3  H3  UNL     1     -14.589  -4.440 -11.591  1.00  0.00     0.214 HD
HETATM    4  O1  UNL     1     -15.589  -5.339 -13.183  1.00  0.00    -0.186 OA
HETATM    5  C5  UNL     1     -16.725  -5.981 -13.273  1.00  0.00     0.256 A 
HETATM    6  N5  UNL     1     -17.261  -6.003 -12.043  1.00  0.00    -0.150 N 
ATOM      7  H5  UNL     1     -18.151  -6.435 -11.792  1.00  0.00     0.188 HD
ENDROOT
BRANCH   1   8
HETATM    8  N2  UNL     1     -16.673  -5.215  -9.941  1.00  0.00    -0.134 N 
ATOM      9  H2  UNL     1     -16.845  -4.280  -9.570  1.00  0.00     0.205 HD
BRANCH   8  10
HETATM   10  N1  UNL     1     -16.697  -6.311  -9.074  1.00  0.00    -0.319 N 
ATOM     11  H1  UNL     1     -16.175  -7.145  -9.342  1.00  0.00     0.181 HD
BRANCH  10  12
HETATM   12  C3  UNL     1     -17.409  -6.336  -7.835  1.00  0.00     0.166 C 
BRANCH  12  13
HETATM   13  C2  UNL     1     -16.674  -6.961  -6.734  1.00  0.00    -0.016 C 
HETATM   14  C1  UNL     1     -15.945  -8.045  -6.943  1.00  0.00     0.008 C 
ENDBRANCH  12  13
ENDBRANCH  10  12
ENDBRANCH   8  10
ENDBRANCH   1   8
BRANCH   5  15
HETATM   15  N4  UNL     1     -17.227  -6.491 -14.335  1.00  0.00    -0.363 N 
ATOM     16  H42 UNL     1     -16.993  -6.246 -15.297  1.00  0.00     0.159 HD
ATOM     17  H41 UNL     1     -17.938  -7.221 -14.378  1.00  0.00     0.159 HD
ENDBRANCH   5  15
TORSDOF 5
ENDMDL
MODEL 4
REMARK VINA RESULT: -4.631912933      3.004      6.453
REMARK  5 active torsions:
REMARK  status: ('A' for Active; 'I' for Inactive)
REMARK    1  A    between atoms: C2_2  and  C3_3 
REMARK    2  A    between atoms: C3_3  and  N1_4 
REMARK    3  A    between atoms: N1_4  and  N2_6 
REMARK    4  A    between atoms: N2_6  and  C4_8 
REMARK    5  A    between atoms: C5_12  and  N4_13 
ROOT
HETATM    1  C4  UNL     1     -17.214  -6.108 -10.168  1.00  0.00     0.720 A 
HETATM    2  N3  UNL     1     -16.345  -5.269 -10.752  1.00  0.00    -0.086 N 
ATOM      3  H3  UNL     1     -15.690  -4.657 -10.264  1.00  0.00     0.214 HD
HETATM    4  O1  UNL     1     -16.477  -5.363 -12.060  1.00  0.00    -0.186 OA
HETATM    5  C5  UNL     1     -17.406  -6.241 -12.342  1.00  0.00     0.256 A 
HETATM    6  N5  UNL     1     -17.870  -6.709 -11.173  1.00  0.00    -0.150 N 
ATOM      7  H5  UNL     1     -18.604  -7.410 -11.066  1.00  0.00     0.188 HD
ENDROOT
BRANCH   1   8
HETATM    8  N2  UNL     1     -17.431  -6.344  -8.924  1.00  0.00    -0.134 N 
ATOM      9  H2  UNL     1     -18.380  -6.547  -8.610  1.00  0.00     0.205 HD
BRANCH   8  10
HETATM   10  N1  UNL     1     -16.390  -6.326  -7.992  1.00  0.00    -0.319 N 
ATOM     11  H1  UNL     1     -15.687  -5.591  -8.073  1.00  0.00     0.181 HD
BRANCH  10  12
HETATM   12  C3  UNL     1     -16.247  -7.275  -6.933  1.00  0.00     0.166 C 
BRANCH  12  13
HETATM   13  C2  UNL     1     -16.314  -8.672  -7.367  1.00  0.00    -0.016 C 
HETATM   14  C1  UNL     1     -15.601  -9.601  -6.753  1.00  0.00     0.008 C 
ENDBRANCH  12  13
ENDBRANCH  10  12
ENDBRANCH   8  10
ENDBRANCH   1   8
BRANCH   5  15
HETATM   15  N4  UNL     1     -17.796  -6.584 -13.513  1.00  0.00    -0.363 N 
ATOM     16  H42 UNL     1     -17.400  -7.323 -14.095  1.00  0.00     0.159 HD
ATOM     17  H41 UNL     1     -18.563  -6.168 -14.041  1.00  0.00     0.159 HD
ENDBRANCH   5  15
TORSDOF 5
ENDMDL
MODEL 5
REMARK VINA RESULT: -4.606505086      1.790      2.020
REMARK  5 active torsions:
REMARK  status: ('A' for Active; 'I' for Inactive)
REMARK    1  A    between atoms: C2_2  and  C3_3 
REMARK    2  A    between atoms: C3_3  and  N1_4 
REMARK    3  A    between atoms: N1_4  and  N2_6 
REMARK    4  A    between atoms: N2_6  and  C4_8 
REMARK    5  A    between atoms: C5_12  and  N4_13 
ROOT
HETATM    1  C4  UNL     1     -17.579  -6.337 -11.690  1.00  0.00     0.720 A 
HETATM    2  N3  UNL     1     -16.892  -5.430 -10.977  1.00  0.00    -0.086 N 
ATOM      3  H3  UNL     1     -16.316  -4.682 -11.365  1.00  0.00     0.214 HD
HETATM    4  O1  UNL     1     -17.082  -5.666  -9.695  1.00  0.00    -0.186 OA
HETATM    5  C5  UNL     1     -17.874  -6.698  -9.554  1.00  0.00     0.256 A 
HETATM    6  N5  UNL     1     -18.189  -7.122 -10.788  1.00  0.00    -0.150 N 
ATOM      7  H5  UNL     1     -18.794  -7.914 -11.005  1.00  0.00     0.188 HD
ENDROOT
BRANCH   1   8
HETATM    8  N2  UNL     1     -17.683  -6.486 -12.962  1.00  0.00    -0.134 N 
ATOM      9  H2  UNL     1     -18.469  -7.014 -13.342  1.00  0.00     0.205 HD
BRANCH   8  10
HETATM   10  N1  UNL     1     -16.739  -5.937 -13.834  1.00  0.00    -0.319 N 
ATOM     11  H1  UNL     1     -15.901  -5.518 -13.431  1.00  0.00     0.181 HD
BRANCH  10  12
HETATM   12  C3  UNL     1     -16.876  -5.926 -15.257  1.00  0.00     0.166 C 
BRANCH  12  13
HETATM   13  C2  UNL     1     -17.868  -4.972 -15.755  1.00  0.00    -0.016 C 
HETATM   14  C1  UNL     1     -17.496  -3.775 -16.177  1.00  0.00     0.008 C 
ENDBRANCH  12  13
ENDBRANCH  10  12
ENDBRANCH   8  10
ENDBRANCH   1   8
BRANCH   5  15
HETATM   15  N4  UNL     1     -18.271  -7.204  -8.446  1.00  0.00    -0.363 N 
ATOM     16  H42 UNL     1     -18.566  -8.167  -8.288  1.00  0.00     0.159 HD
ATOM     17  H41 UNL     1     -18.352  -6.717  -7.553  1.00  0.00     0.159 HD
ENDBRANCH   5  15
TORSDOF 5
ENDMDL
