MODEL 1
REMARK VINA RESULT: -7.524829720      0.000      0.000
REMARK  8 active torsions:
REMARK  status: ('A' for Active; 'I' for Inactive)
REMARK    1  A    between atoms: C1_2  and  C2_4 
REMARK    2  A    between atoms: C3_5  and  C4_6 
REMARK    3  A    between atoms: C5_9  and  O4_10 
REMARK    4  A    between atoms: C5_9  and  C12_17 
REMARK    5  A    between atoms: O4_10  and  C6_11 
REMARK    6  A    between atoms: C16_24  and  O7_25 
REMARK    7  A    between atoms: C17_27  and  C18_28 
REMARK    8  A    between atoms: C18_28  and  O8_29 
ROOT
HETATM    1  C2  UNL     1      16.433  -7.899  25.732  1.00  0.00     0.112 C 
HETATM    2  C3  UNL     1      17.862  -8.248  25.773  1.00  0.00     0.147 C 
HETATM    3  C5  UNL     1      18.308  -9.618  26.088  1.00  0.00     0.171 C 
HETATM    4  C13 UNL     1      17.545 -10.204  27.312  1.00  0.00     0.125 C 
HETATM    5  S1  UNL     1      15.854 -10.399  26.733  1.00  0.00    -0.154 SA
HETATM    6  C14 UNL     1      15.379  -8.662  26.390  1.00  0.00     0.031 A 
HETATM    7  C15 UNL     1      14.032  -8.708  25.638  1.00  0.00     0.054 A 
HETATM    8  C16 UNL     1      13.287  -8.142  26.796  1.00  0.00     0.127 A 
HETATM    9  C17 UNL     1      14.616  -8.127  27.545  1.00  0.00     0.058 A 
ENDROOT
BRANCH   3  10
HETATM   10  O4  UNL     1      19.577  -9.747  26.588  1.00  0.00    -0.362 OA
BRANCH  10  11
HETATM   11  C6  UNL     1      20.011  -9.435  27.768  1.00  0.00     0.123 C 
HETATM   12  C7  UNL     1      21.263 -10.315  28.045  1.00  0.00     0.032 C 
HETATM   13  C8  UNL     1      21.612 -10.244  29.515  1.00  0.00     0.002 C 
HETATM   14  C9  UNL     1      21.409  -8.824  30.005  1.00  0.00     0.000 C 
HETATM   15  C10 UNL     1      21.658  -7.870  28.856  1.00  0.00     0.002 C 
HETATM   16  C11 UNL     1      20.623  -8.017  27.754  1.00  0.00     0.032 C 
ENDBRANCH  10  11
ENDBRANCH   3  10
BRANCH   3  17
HETATM   17  C12 UNL     1      18.008 -10.620  25.017  1.00  0.00     0.211 C 
HETATM   18  O5  UNL     1      18.603 -11.717  24.873  1.00  0.00    -0.646 OA
HETATM   19  O6  UNL     1      17.020 -10.429  24.057  1.00  0.00    -0.646 OA
ENDBRANCH   3  17
BRANCH   2  20
HETATM   20  C4  UNL     1      18.495  -7.757  24.527  1.00  0.00     0.181 C 
HETATM   21  O2  UNL     1      19.721  -7.600  24.328  1.00  0.00    -0.648 OA
HETATM   22  O3  UNL     1      17.690  -7.422  23.452  1.00  0.00    -0.648 OA
ENDBRANCH   2  20
BRANCH   1  23
HETATM   23  C1  UNL     1      16.280  -6.452  26.042  1.00  0.00     0.237 C 
HETATM   24  N1  UNL     1      17.079  -5.897  27.083  1.00  0.00    -0.062 NA
HETATM   25  O1  UNL     1      15.492  -5.670  25.451  1.00  0.00    -0.276 OA
ENDBRANCH   1  23
BRANCH   9  26
HETATM   26  C18 UNL     1      14.482  -9.075  28.733  1.00  0.00     0.172 C 
BRANCH  26  27
HETATM   27  O8  UNL     1      14.151  -8.368  29.891  1.00  0.00    -0.400 OA
ATOM     28  H8  UNL     1      13.692  -7.565  29.672  1.00  0.00     0.209 HD
ENDBRANCH  26  27
ENDBRANCH   9  26
BRANCH   8  29
HETATM   29  O7  UNL     1      12.730  -6.876  26.589  1.00  0.00    -0.395 OA
ATOM     30  H7  UNL     1      11.781  -6.837  26.624  1.00  0.00     0.210 HD
ENDBRANCH   8  29
TORSDOF 8
ENDMDL
MODEL 2
REMARK VINA RESULT: -7.114842732      3.276      6.055
REMARK  8 active torsions:
REMARK  status: ('A' for Active; 'I' for Inactive)
REMARK    1  A    between atoms: C1_2  and  C2_4 
REMARK    2  A    between atoms: C3_5  and  C4_6 
REMARK    3  A    between atoms: C5_9  and  O4_10 
REMARK    4  A    between atoms: C5_9  and  C12_17 
REMARK    5  A    between atoms: O4_10  and  C6_11 
REMARK    6  A    between atoms: C16_24  and  O7_25 
REMARK    7  A    between atoms: C17_27  and  C18_28 
REMARK    8  A    between atoms: C18_28  and  O8_29 
ROOT
HETATM    1  C2  UNL     1      16.678  -9.229  25.614  1.00  0.00     0.112 C 
HETATM    2  C3  UNL     1      17.230  -9.261  24.251  1.00  0.00     0.147 C 
HETATM    3  C5  UNL     1      16.905  -8.211  23.267  1.00  0.00     0.171 C 
HETATM    4  C13 UNL     1      15.383  -7.886  23.255  1.00  0.00     0.125 C 
HETATM    5  S1  UNL     1      15.077  -7.121  24.854  1.00  0.00    -0.154 SA
HETATM    6  C14 UNL     1      15.481  -8.491  26.002  1.00  0.00     0.031 A 
HETATM    7  C15 UNL     1      15.512  -7.888  27.422  1.00  0.00     0.054 A 
HETATM    8  C16 UNL     1      14.269  -8.603  27.826  1.00  0.00     0.127 A 
HETATM    9  C17 UNL     1      14.228  -9.171  26.412  1.00  0.00     0.058 A 
ENDROOT
BRANCH   3  10
HETATM   10  O4  UNL     1      17.026  -8.553  21.946  1.00  0.00    -0.362 OA
BRANCH  10  11
HETATM   11  C6  UNL     1      16.171  -8.377  20.989  1.00  0.00     0.123 C 
HETATM   12  C7  UNL     1      16.689  -7.195  20.121  1.00  0.00     0.032 C 
HETATM   13  C8  UNL     1      15.585  -6.727  19.200  1.00  0.00     0.002 C 
HETATM   14  C9  UNL     1      14.826  -7.931  18.682  1.00  0.00     0.000 C 
HETATM   15  C10 UNL     1      15.771  -9.112  18.613  1.00  0.00     0.002 C 
HETATM   16  C11 UNL     1      16.240  -9.552  19.989  1.00  0.00     0.032 C 
ENDBRANCH  10  11
ENDBRANCH   3  10
BRANCH   3  17
HETATM   17  C12 UNL     1      17.513  -6.877  23.573  1.00  0.00     0.211 C 
HETATM   18  O5  UNL     1      17.065  -6.062  24.417  1.00  0.00    -0.646 OA
HETATM   19  O6  UNL     1      18.656  -6.402  22.939  1.00  0.00    -0.646 OA
ENDBRANCH   3  17
BRANCH   2  20
HETATM   20  C4  UNL     1      18.695  -9.461  24.348  1.00  0.00     0.181 C 
HETATM   21  O2  UNL     1      19.407 -10.132  23.568  1.00  0.00    -0.648 OA
HETATM   22  O3  UNL     1      19.385  -8.871  25.393  1.00  0.00    -0.648 OA
ENDBRANCH   2  20
BRANCH   1  23
HETATM   23  C1  UNL     1      16.608 -10.619  26.139  1.00  0.00     0.237 C 
HETATM   24  N1  UNL     1      17.128 -10.875  27.441  1.00  0.00    -0.062 NA
HETATM   25  O1  UNL     1      16.120 -11.598  25.519  1.00  0.00    -0.276 OA
ENDBRANCH   1  23
BRANCH   9  26
HETATM   26  C18 UNL     1      12.957  -8.651  25.746  1.00  0.00     0.172 C 
BRANCH  26  27
HETATM   27  O8  UNL     1      12.186  -9.711  25.264  1.00  0.00    -0.400 OA
ATOM     28  H8  UNL     1      12.716 -10.494  25.170  1.00  0.00     0.209 HD
ENDBRANCH  26  27
ENDBRANCH   9  26
BRANCH   8  29
HETATM   29  O7  UNL     1      14.430  -9.566  28.828  1.00  0.00    -0.395 OA
ATOM     30  H7  UNL     1      14.289  -9.259  29.716  1.00  0.00     0.210 HD
ENDBRANCH   8  29
TORSDOF 8
ENDMDL
MODEL 3
REMARK VINA RESULT: -6.860737175      1.469      1.741
REMARK  8 active torsions:
REMARK  status: ('A' for Active; 'I' for Inactive)
REMARK    1  A    between atoms: C1_2  and  C2_4 
REMARK    2  A    between atoms: C3_5  and  C4_6 
REMARK    3  A    between atoms: C5_9  and  O4_10 
REMARK    4  A    between atoms: C5_9  and  C12_17 
REMARK    5  A    between atoms: O4_10  and  C6_11 
REMARK    6  A    between atoms: C16_24  and  O7_25 
REMARK    7  A    between atoms: C17_27  and  C18_28 
REMARK    8  A    between atoms: C18_28  and  O8_29 
ROOT
HETATM    1  C2  UNL     1      17.643  -8.131  25.378  1.00  0.00     0.112 C 
HETATM    2  C3  UNL     1      19.020  -8.619  25.551  1.00  0.00     0.147 C 
HETATM    3  C5  UNL     1      19.304  -9.874  26.272  1.00  0.00     0.171 C 
HETATM    4  C13 UNL     1      18.496  -9.969  27.599  1.00  0.00     0.125 C 
HETATM    5  S1  UNL     1      16.784 -10.126  27.071  1.00  0.00    -0.154 SA
HETATM    6  C14 UNL     1      16.516  -8.528  26.213  1.00  0.00     0.031 A 
HETATM    7  C15 UNL     1      15.161  -8.638  25.482  1.00  0.00     0.054 A 
HETATM    8  C16 UNL     1      14.508  -7.664  26.401  1.00  0.00     0.127 A 
HETATM    9  C17 UNL     1      15.841  -7.584  27.138  1.00  0.00     0.058 A 
ENDROOT
BRANCH   3  10
HETATM   10  O4  UNL     1      20.556  -9.998  26.813  1.00  0.00    -0.362 OA
BRANCH  10  11
HETATM   11  C6  UNL     1      21.020  -9.456  27.895  1.00  0.00     0.123 C 
HETATM   12  C7  UNL     1      21.929 -10.514  28.585  1.00  0.00     0.032 C 
HETATM   13  C8  UNL     1      22.227 -10.073  30.000  1.00  0.00     0.002 C 
HETATM   14  C9  UNL     1      22.453  -8.574  30.016  1.00  0.00     0.000 C 
HETATM   15  C10 UNL     1      23.027  -8.152  28.679  1.00  0.00     0.002 C 
HETATM   16  C11 UNL     1      22.039  -8.351  27.543  1.00  0.00     0.032 C 
ENDBRANCH  10  11
ENDBRANCH   3  10
BRANCH   3  17
HETATM   17  C12 UNL     1      18.867 -11.108  25.545  1.00  0.00     0.211 C 
HETATM   18  O5  UNL     1      18.078 -11.124  24.568  1.00  0.00    -0.646 OA
HETATM   19  O6  UNL     1      19.302 -12.383  25.890  1.00  0.00    -0.646 OA
ENDBRANCH   3  17
BRANCH   2  20
HETATM   20  C4  UNL     1      19.686  -8.604  24.228  1.00  0.00     0.181 C 
HETATM   21  O2  UNL     1      19.127  -8.709  23.113  1.00  0.00    -0.648 OA
HETATM   22  O3  UNL     1      21.062  -8.469  24.171  1.00  0.00    -0.648 OA
ENDBRANCH   2  20
BRANCH   1  23
HETATM   23  C1  UNL     1      17.669  -6.650  25.236  1.00  0.00     0.237 C 
HETATM   24  N1  UNL     1      16.983  -6.066  24.131  1.00  0.00    -0.062 NA
HETATM   25  O1  UNL     1      18.256  -5.863  26.021  1.00  0.00    -0.276 OA
ENDBRANCH   1  23
BRANCH   9  26
HETATM   26  C18 UNL     1      15.614  -8.109  28.553  1.00  0.00     0.172 C 
BRANCH  26  27
HETATM   27  O8  UNL     1      16.444  -7.446  29.461  1.00  0.00    -0.400 OA
ATOM     28  H8  UNL     1      15.944  -7.141  30.209  1.00  0.00     0.209 HD
ENDBRANCH  26  27
ENDBRANCH   9  26
BRANCH   8  29
HETATM   29  O7  UNL     1      14.104  -6.462  25.813  1.00  0.00    -0.395 OA
ATOM     30  H7  UNL     1      13.541  -5.915  26.348  1.00  0.00     0.210 HD
ENDBRANCH   8  29
TORSDOF 8
ENDMDL
MODEL 4
REMARK VINA RESULT: -6.755386308      3.202      5.925
REMARK  8 active torsions:
REMARK  status: ('A' for Active; 'I' for Inactive)
REMARK    1  A    between atoms: C1_2  and  C2_4 
REMARK    2  A    between atoms: C3_5  and  C4_6 
REMARK    3  A    between atoms: C5_9  and  O4_10 
REMARK    4  A    between atoms: C5_9  and  C12_17 
REMARK    5  A    between atoms: O4_10  and  C6_11 
REMARK    6  A    between atoms: C16_24  and  O7_25 
REMARK    7  A    between atoms: C17_27  and  C18_28 
REMARK    8  A    between atoms: C18_28  and  O8_29 
ROOT
HETATM    1  C2  UNL     1      16.551  -9.004  25.858  1.00  0.00     0.112 C 
HETATM    2  C3  UNL     1      16.994  -8.951  24.456  1.00  0.00     0.147 C 
HETATM    3  C5  UNL     1      16.467  -7.939  23.522  1.00  0.00     0.171 C 
HETATM    4  C13 UNL     1      14.920  -7.805  23.634  1.00  0.00     0.125 C 
HETATM    5  S1  UNL     1      14.649  -7.102  25.267  1.00  0.00    -0.154 SA
HETATM    6  C14 UNL     1      15.307  -8.425  26.352  1.00  0.00     0.031 A 
HETATM    7  C15 UNL     1      15.374  -7.840  27.778  1.00  0.00     0.054 A 
HETATM    8  C16 UNL     1      14.264  -8.708  28.261  1.00  0.00     0.127 A 
HETATM    9  C17 UNL     1      14.183  -9.261  26.841  1.00  0.00     0.058 A 
ENDROOT
BRANCH   3  10
HETATM   10  O4  UNL     1      16.525  -8.248  22.189  1.00  0.00    -0.362 OA
BRANCH  10  11
HETATM   11  C6  UNL     1      16.306  -7.472  21.175  1.00  0.00     0.123 C 
HETATM   12  C7  UNL     1      17.628  -7.396  20.360  1.00  0.00     0.032 C 
HETATM   13  C8  UNL     1      17.542  -6.259  19.368  1.00  0.00     0.002 C 
HETATM   14  C9  UNL     1      16.145  -6.216  18.782  1.00  0.00     0.000 C 
HETATM   15  C10 UNL     1      15.578  -7.621  18.768  1.00  0.00     0.002 C 
HETATM   16  C11 UNL     1      15.360  -8.164  20.169  1.00  0.00     0.032 C 
ENDBRANCH  10  11
ENDBRANCH   3  10
BRANCH   3  17
HETATM   17  C12 UNL     1      16.928  -6.543  23.810  1.00  0.00     0.211 C 
HETATM   18  O5  UNL     1      18.122  -6.209  24.010  1.00  0.00    -0.646 OA
HETATM   19  O6  UNL     1      16.059  -5.460  23.886  1.00  0.00    -0.646 OA
ENDBRANCH   3  17
BRANCH   2  20
HETATM   20  C4  UNL     1      18.476  -8.969  24.438  1.00  0.00     0.181 C 
HETATM   21  O2  UNL     1      19.234  -8.648  25.380  1.00  0.00    -0.648 OA
HETATM   22  O3  UNL     1      19.128  -9.369  23.284  1.00  0.00    -0.648 OA
ENDBRANCH   2  20
BRANCH   1  23
HETATM   23  C1  UNL     1      16.694 -10.399  26.358  1.00  0.00     0.237 C 
HETATM   24  N1  UNL     1      16.330 -11.467  25.487  1.00  0.00    -0.062 NA
HETATM   25  O1  UNL     1      17.115 -10.713  27.499  1.00  0.00    -0.276 OA
ENDBRANCH   1  23
BRANCH   9  26
HETATM   26  C18 UNL     1      12.809  -8.895  26.286  1.00  0.00     0.172 C 
BRANCH  26  27
HETATM   27  O8  UNL     1      12.257  -9.974  25.591  1.00  0.00    -0.400 OA
ATOM     28  H8  UNL     1      12.863 -10.292  24.932  1.00  0.00     0.209 HD
ENDBRANCH  26  27
ENDBRANCH   9  26
BRANCH   8  29
HETATM   29  O7  UNL     1      14.620  -9.656  29.226  1.00  0.00    -0.395 OA
ATOM     30  H7  UNL     1      13.933 -10.262  29.475  1.00  0.00     0.210 HD
ENDBRANCH   8  29
TORSDOF 8
ENDMDL
MODEL 5
REMARK VINA RESULT: -6.751464244      2.979      5.624
REMARK  8 active torsions:
REMARK  status: ('A' for Active; 'I' for Inactive)
REMARK    1  A    between atoms: C1_2  and  C2_4 
REMARK    2  A    between atoms: C3_5  and  C4_6 
REMARK    3  A    between atoms: C5_9  and  O4_10 
REMARK    4  A    between atoms: C5_9  and  C12_17 
REMARK    5  A    between atoms: O4_10  and  C6_11 
REMARK    6  A    between atoms: C16_24  and  O7_25 
REMARK    7  A    between atoms: C17_27  and  C18_28 
REMARK    8  A    between atoms: C18_28  and  O8_29 
ROOT
HETATM    1  C2  UNL     1      17.046  -8.851  26.384  1.00  0.00     0.112 C 
HETATM    2  C3  UNL     1      17.708  -8.892  25.071  1.00  0.00     0.147 C 
HETATM    3  C5  UNL     1      17.157  -8.168  23.910  1.00  0.00     0.171 C 
HETATM    4  C13 UNL     1      15.620  -8.381  23.778  1.00  0.00     0.125 C 
HETATM    5  S1  UNL     1      14.927  -7.541  25.209  1.00  0.00    -0.154 SA
HETATM    6  C14 UNL     1      15.642  -8.513  26.589  1.00  0.00     0.031 A 
HETATM    7  C15 UNL     1      15.335  -7.737  27.887  1.00  0.00     0.054 A 
HETATM    8  C16 UNL     1      14.361  -8.763  28.351  1.00  0.00     0.127 A 
HETATM    9  C17 UNL     1      14.645  -9.510  27.052  1.00  0.00     0.058 A 
ENDROOT
BRANCH   3  10
HETATM   10  O4  UNL     1      17.511  -8.636  22.673  1.00  0.00    -0.362 OA
BRANCH  10  11
HETATM   11  C6  UNL     1      16.759  -8.802  21.631  1.00  0.00     0.123 C 
HETATM   12  C7  UNL     1      17.248  -7.800  20.547  1.00  0.00     0.032 C 
HETATM   13  C8  UNL     1      16.216  -7.708  19.446  1.00  0.00     0.002 C 
HETATM   14  C9  UNL     1      15.651  -9.088  19.178  1.00  0.00     0.000 C 
HETATM   15  C10 UNL     1      16.716 -10.120  19.486  1.00  0.00     0.002 C 
HETATM   16  C11 UNL     1      17.065 -10.160  20.963  1.00  0.00     0.032 C 
ENDBRANCH  10  11
ENDBRANCH   3  10
BRANCH   3  17
HETATM   17  C12 UNL     1      17.263  -6.677  24.013  1.00  0.00     0.211 C 
HETATM   18  O5  UNL     1      18.160  -6.064  24.643  1.00  0.00    -0.646 OA
HETATM   19  O6  UNL     1      16.359  -5.811  23.409  1.00  0.00    -0.646 OA
ENDBRANCH   3  17
BRANCH   2  20
HETATM   20  C4  UNL     1      19.141  -8.569  25.265  1.00  0.00     0.181 C 
HETATM   21  O2  UNL     1      20.073  -8.815  24.467  1.00  0.00    -0.648 OA
HETATM   22  O3  UNL     1      19.535  -7.938  26.432  1.00  0.00    -0.648 OA
ENDBRANCH   2  20
BRANCH   1  23
HETATM   23  C1  UNL     1      17.382 -10.092  27.133  1.00  0.00     0.237 C 
HETATM   24  N1  UNL     1      17.383 -11.328  26.424  1.00  0.00    -0.062 NA
HETATM   25  O1  UNL     1      17.669 -10.137  28.356  1.00  0.00    -0.276 OA
ENDBRANCH   1  23
BRANCH   9  26
HETATM   26  C18 UNL     1      13.345  -9.551  26.254  1.00  0.00     0.172 C 
BRANCH  26  27
HETATM   27  O8  UNL     1      12.793 -10.834  26.282  1.00  0.00    -0.400 OA
ATOM     28  H8  UNL     1      12.058 -10.894  25.683  1.00  0.00     0.209 HD
ENDBRANCH  26  27
ENDBRANCH   9  26
BRANCH   8  29
HETATM   29  O7  UNL     1      14.728  -9.459  29.507  1.00  0.00    -0.395 OA
ATOM     30  H7  UNL     1      14.009  -9.730  30.066  1.00  0.00     0.210 HD
ENDBRANCH   8  29
TORSDOF 8
ENDMDL
