MODEL 1
REMARK VINA RESULT: -7.460306003      0.000      0.000
REMARK  11 active torsions:
REMARK  status: ('A' for Active; 'I' for Inactive)
REMARK    1  A    between atoms: C2_2  and  N1_3 
REMARK    2  A    between atoms: N1_3  and  C3_4 
REMARK    3  A    between atoms: N1_3  and  C7_8 
REMARK    4  A    between atoms: C12_13  and  O1_14 
REMARK    5  A    between atoms: O1_14  and  C13_15 
REMARK    6  A    between atoms: C14_16  and  O2_17 
REMARK    7  A    between atoms: C15_19  and  O3_20 
REMARK    8  A    between atoms: C16_22  and  O4_23 
REMARK    9  A    between atoms: C17_25  and  C18_26 
REMARK   10  A    between atoms: C19_29  and  O7_30 
REMARK   11  A    between atoms: C20_32  and  O8_33 
ROOT
HETATM    1  C13 UNL     1      17.874  -8.403  27.522  1.00  0.00     0.185 C 
HETATM    2  C14 UNL     1      18.190  -8.015  26.087  1.00  0.00     0.181 C 
HETATM    3  C15 UNL     1      17.061  -7.727  25.198  1.00  0.00     0.179 C 
HETATM    4  C16 UNL     1      15.742  -8.343  25.516  1.00  0.00     0.166 C 
HETATM    5  C17 UNL     1      14.977  -7.680  26.626  1.00  0.00     0.149 C 
HETATM    6  C19 UNL     1      15.433  -8.126  27.975  1.00  0.00     0.166 C 
HETATM    7  C20 UNL     1      16.857  -7.577  28.168  1.00  0.00     0.179 C 
ENDROOT
BRANCH   1   8
HETATM    8  O1  UNL     1      19.092  -8.319  28.179  1.00  0.00    -0.369 OA
BRANCH   8   9
HETATM    9  C12 UNL     1      19.525  -9.521  28.750  1.00  0.00     0.167 C 
HETATM   10  C7  UNL     1      20.924  -9.776  28.463  1.00  0.00     0.014 C 
HETATM   11  C8  UNL     1      21.488 -11.044  29.037  1.00  0.00     0.055 C 
HETATM   12  C9  UNL     1      20.596 -12.184  28.618  1.00  0.00     0.006 C 
HETATM   13  C10 UNL     1      19.584 -11.777  27.592  1.00  0.00     0.003 C 
HETATM   14  C11 UNL     1      18.719 -10.649  28.010  1.00  0.00     0.038 C 
BRANCH  10  15
HETATM   15  N1  UNL     1      21.852  -8.675  28.521  1.00  0.00    -0.381 N 
BRANCH  15  16
HETATM   16  C2  UNL     1      22.602  -8.541  27.332  1.00  0.00     0.118 C 
HETATM   17  C1  UNL     1      21.943  -8.924  26.046  1.00  0.00     0.026 C 
ENDBRANCH  15  16
BRANCH  15  18
HETATM   18  C3  UNL     1      22.431  -8.422  29.760  1.00  0.00     0.084 C 
HETATM   19  C4  UNL     1      23.722  -7.603  29.765  1.00  0.00     0.025 C 
HETATM   20  C5  UNL     1      22.955  -6.453  30.406  1.00  0.00     0.004 C 
HETATM   21  C6  UNL     1      21.853  -7.460  30.703  1.00  0.00     0.025 C 
ENDBRANCH  15  18
ENDBRANCH  10  15
ENDBRANCH   8   9
ENDBRANCH   1   8
BRANCH   2  22
HETATM   22  O2  UNL     1      19.035  -6.895  26.127  1.00  0.00    -0.390 OA
ATOM     23  H2  UNL     1      18.619  -6.240  26.675  1.00  0.00     0.210 HD
ENDBRANCH   2  22
BRANCH   7  24
HETATM   24  O8  UNL     1      16.897  -6.225  27.803  1.00  0.00    -0.390 OA
ATOM     25  H8  UNL     1      16.043  -5.835  27.654  1.00  0.00     0.210 HD
ENDBRANCH   7  24
BRANCH   3  26
HETATM   26  O3  UNL     1      16.857  -6.349  24.926  1.00  0.00    -0.390 OA
ATOM     27  H3  UNL     1      16.237  -6.170  24.229  1.00  0.00     0.210 HD
ENDBRANCH   3  26
BRANCH   6  28
HETATM   28  O7  UNL     1      15.528  -9.507  28.059  1.00  0.00    -0.392 OA
ATOM     29  H7  UNL     1      15.321  -9.824  28.930  1.00  0.00     0.210 HD
ENDBRANCH   6  28
BRANCH   4  30
HETATM   30  O4  UNL     1      15.869  -9.723  25.672  1.00  0.00    -0.392 OA
ATOM     31  H4  UNL     1      15.901  -9.953  26.593  1.00  0.00     0.210 HD
ENDBRANCH   4  30
BRANCH   5  32
HETATM   32  C18 UNL     1      13.539  -8.012  26.471  1.00  0.00     0.182 C 
HETATM   33  O5  UNL     1      13.217  -9.180  26.169  1.00  0.00    -0.648 OA
HETATM   34  O6  UNL     1      12.540  -7.079  26.648  1.00  0.00    -0.648 OA
ENDBRANCH   5  32
TORSDOF 11
ENDMDL
MODEL 2
REMARK VINA RESULT: -7.333373919      1.324      1.689
REMARK  11 active torsions:
REMARK  status: ('A' for Active; 'I' for Inactive)
REMARK    1  A    between atoms: C2_2  and  N1_3 
REMARK    2  A    between atoms: N1_3  and  C3_4 
REMARK    3  A    between atoms: N1_3  and  C7_8 
REMARK    4  A    between atoms: C12_13  and  O1_14 
REMARK    5  A    between atoms: O1_14  and  C13_15 
REMARK    6  A    between atoms: C14_16  and  O2_17 
REMARK    7  A    between atoms: C15_19  and  O3_20 
REMARK    8  A    between atoms: C16_22  and  O4_23 
REMARK    9  A    between atoms: C17_25  and  C18_26 
REMARK   10  A    between atoms: C19_29  and  O7_30 
REMARK   11  A    between atoms: C20_32  and  O8_33 
ROOT
HETATM    1  C13 UNL     1      16.785  -8.433  26.675  1.00  0.00     0.185 C 
HETATM    2  C14 UNL     1      16.920  -7.204  25.793  1.00  0.00     0.181 C 
HETATM    3  C15 UNL     1      15.707  -6.695  25.147  1.00  0.00     0.179 C 
HETATM    4  C16 UNL     1      14.587  -7.649  24.907  1.00  0.00     0.166 C 
HETATM    5  C17 UNL     1      13.753  -7.973  26.114  1.00  0.00     0.149 C 
HETATM    6  C19 UNL     1      14.375  -9.026  26.968  1.00  0.00     0.166 C 
HETATM    7  C20 UNL     1      15.641  -8.408  27.585  1.00  0.00     0.179 C 
ENDROOT
BRANCH   1   8
HETATM    8  O1  UNL     1      17.985  -8.497  27.366  1.00  0.00    -0.369 OA
BRANCH   8   9
HETATM    9  C12 UNL     1      18.364  -9.789  27.748  1.00  0.00     0.167 C 
HETATM   10  C7  UNL     1      19.805  -9.914  27.854  1.00  0.00     0.014 C 
HETATM   11  C8  UNL     1      20.315 -11.265  28.264  1.00  0.00     0.055 C 
HETATM   12  C9  UNL     1      19.714 -12.292  27.339  1.00  0.00     0.006 C 
HETATM   13  C10 UNL     1      19.003 -11.673  26.176  1.00  0.00     0.003 C 
HETATM   14  C11 UNL     1      17.935 -10.719  26.556  1.00  0.00     0.038 C 
BRANCH  10  15
HETATM   15  N1  UNL     1      20.550  -8.832  28.448  1.00  0.00    -0.381 N 
BRANCH  15  16
HETATM   16  C2  UNL     1      21.472  -8.257  27.547  1.00  0.00     0.118 C 
HETATM   17  C1  UNL     1      21.402  -8.678  26.114  1.00  0.00     0.026 C 
ENDBRANCH  15  16
BRANCH  15  18
HETATM   18  C3  UNL     1      20.862  -8.966  29.796  1.00  0.00     0.084 C 
HETATM   19  C4  UNL     1      22.273  -8.560  30.223  1.00  0.00     0.025 C 
HETATM   20  C5  UNL     1      21.676  -7.364  30.955  1.00  0.00     0.004 C 
HETATM   21  C6  UNL     1      20.326  -8.052  30.809  1.00  0.00     0.025 C 
ENDBRANCH  15  18
ENDBRANCH  10  15
ENDBRANCH   8   9
ENDBRANCH   1   8
BRANCH   2  22
HETATM   22  O2  UNL     1      17.483  -6.182  26.573  1.00  0.00    -0.390 OA
ATOM     23  H2  UNL     1      18.013  -5.641  25.999  1.00  0.00     0.210 HD
ENDBRANCH   2  22
BRANCH   7  24
HETATM   24  O8  UNL     1      15.346  -7.141  28.104  1.00  0.00    -0.390 OA
ATOM     25  H8  UNL     1      15.288  -6.455  27.449  1.00  0.00     0.210 HD
ENDBRANCH   7  24
BRANCH   3  26
HETATM   26  O3  UNL     1      15.174  -5.517  25.731  1.00  0.00    -0.390 OA
ATOM     27  H3  UNL     1      15.039  -4.799  25.124  1.00  0.00     0.210 HD
ENDBRANCH   3  26
BRANCH   6  28
HETATM   28  O7  UNL     1      14.793 -10.118  26.221  1.00  0.00    -0.392 OA
ATOM     29  H7  UNL     1      14.120 -10.415  25.621  1.00  0.00     0.210 HD
ENDBRANCH   6  28
BRANCH   4  30
HETATM   30  O4  UNL     1      15.039  -8.775  24.222  1.00  0.00    -0.392 OA
ATOM     31  H4  UNL     1      15.595  -8.524  23.495  1.00  0.00     0.210 HD
ENDBRANCH   4  30
BRANCH   5  32
HETATM   32  C18 UNL     1      12.425  -8.449  25.655  1.00  0.00     0.182 C 
HETATM   33  O5  UNL     1      11.454  -7.664  25.695  1.00  0.00    -0.648 OA
HETATM   34  O6  UNL     1      12.218  -9.727  25.182  1.00  0.00    -0.648 OA
ENDBRANCH   5  32
TORSDOF 11
ENDMDL
MODEL 3
REMARK VINA RESULT: -7.254645241      1.685      2.495
REMARK  11 active torsions:
REMARK  status: ('A' for Active; 'I' for Inactive)
REMARK    1  A    between atoms: C2_2  and  N1_3 
REMARK    2  A    between atoms: N1_3  and  C3_4 
REMARK    3  A    between atoms: N1_3  and  C7_8 
REMARK    4  A    between atoms: C12_13  and  O1_14 
REMARK    5  A    between atoms: O1_14  and  C13_15 
REMARK    6  A    between atoms: C14_16  and  O2_17 
REMARK    7  A    between atoms: C15_19  and  O3_20 
REMARK    8  A    between atoms: C16_22  and  O4_23 
REMARK    9  A    between atoms: C17_25  and  C18_26 
REMARK   10  A    between atoms: C19_29  and  O7_30 
REMARK   11  A    between atoms: C20_32  and  O8_33 
ROOT
HETATM    1  C13 UNL     1      18.404  -8.176  26.618  1.00  0.00     0.185 C 
HETATM    2  C14 UNL     1      17.628  -7.632  25.430  1.00  0.00     0.181 C 
HETATM    3  C15 UNL     1      16.166  -7.612  25.526  1.00  0.00     0.179 C 
HETATM    4  C16 UNL     1      15.510  -8.583  26.447  1.00  0.00     0.166 C 
HETATM    5  C17 UNL     1      15.564  -8.221  27.903  1.00  0.00     0.149 C 
HETATM    6  C19 UNL     1      16.860  -8.603  28.535  1.00  0.00     0.166 C 
HETATM    7  C20 UNL     1      17.941  -7.698  27.919  1.00  0.00     0.179 C 
ENDROOT
BRANCH   1   8
HETATM    8  O1  UNL     1      19.716  -7.800  26.375  1.00  0.00    -0.369 OA
BRANCH   8   9
HETATM    9  C12 UNL     1      20.591  -8.869  26.147  1.00  0.00     0.167 C 
HETATM   10  C7  UNL     1      21.849  -8.689  26.845  1.00  0.00     0.014 C 
HETATM   11  C8  UNL     1      22.857  -9.787  26.668  1.00  0.00     0.055 C 
HETATM   12  C9  UNL     1      23.045 -10.016  25.190  1.00  0.00     0.006 C 
HETATM   13  C10 UNL     1      22.383  -8.964  24.356  1.00  0.00     0.003 C 
HETATM   14  C11 UNL     1      20.932  -8.809  24.614  1.00  0.00     0.038 C 
BRANCH  10  15
HETATM   15  N1  UNL     1      21.825  -8.163  28.187  1.00  0.00    -0.381 N 
BRANCH  15  16
HETATM   16  C2  UNL     1      23.039  -7.534  28.539  1.00  0.00     0.118 C 
HETATM   17  C1  UNL     1      22.963  -6.211  29.231  1.00  0.00     0.026 C 
ENDBRANCH  15  16
BRANCH  15  18
HETATM   18  C3  UNL     1      21.107  -8.899  29.124  1.00  0.00     0.084 C 
HETATM   19  C4  UNL     1      21.899  -9.498  30.286  1.00  0.00     0.025 C 
HETATM   20  C5  UNL     1      21.215  -8.509  31.223  1.00  0.00     0.004 C 
HETATM   21  C6  UNL     1      20.221  -8.256  30.098  1.00  0.00     0.025 C 
ENDBRANCH  15  18
ENDBRANCH  10  15
ENDBRANCH   8   9
ENDBRANCH   1   8
BRANCH   2  22
HETATM   22  O2  UNL     1      18.086  -6.328  25.185  1.00  0.00    -0.390 OA
ATOM     23  H2  UNL     1      18.821  -6.390  24.586  1.00  0.00     0.210 HD
ENDBRANCH   2  22
BRANCH   7  24
HETATM   24  O8  UNL     1      17.502  -6.368  27.921  1.00  0.00    -0.390 OA
ATOM     25  H8  UNL     1      18.171  -5.735  27.688  1.00  0.00     0.210 HD
ENDBRANCH   7  24
BRANCH   3  26
HETATM   26  O3  UNL     1      15.605  -6.329  25.754  1.00  0.00    -0.390 OA
ATOM     27  H3  UNL     1      15.732  -5.708  25.047  1.00  0.00     0.210 HD
ENDBRANCH   3  26
BRANCH   6  28
HETATM   28  O7  UNL     1      17.219  -9.908  28.232  1.00  0.00    -0.392 OA
ATOM     29  H7  UNL     1      18.159 -10.002  28.130  1.00  0.00     0.210 HD
ENDBRANCH   6  28
BRANCH   4  30
HETATM   30  O4  UNL     1      15.939  -9.882  26.178  1.00  0.00    -0.392 OA
ATOM     31  H4  UNL     1      16.462 -10.217  26.897  1.00  0.00     0.210 HD
ENDBRANCH   4  30
BRANCH   5  32
HETATM   32  C18 UNL     1      14.462  -8.923  28.605  1.00  0.00     0.182 C 
HETATM   33  O5  UNL     1      13.959  -9.938  28.078  1.00  0.00    -0.648 OA
HETATM   34  O6  UNL     1      13.967  -8.500  29.820  1.00  0.00    -0.648 OA
ENDBRANCH   5  32
TORSDOF 11
ENDMDL
MODEL 4
REMARK VINA RESULT: -7.234895399      1.242      1.638
REMARK  11 active torsions:
REMARK  status: ('A' for Active; 'I' for Inactive)
REMARK    1  A    between atoms: C2_2  and  N1_3 
REMARK    2  A    between atoms: N1_3  and  C3_4 
REMARK    3  A    between atoms: N1_3  and  C7_8 
REMARK    4  A    between atoms: C12_13  and  O1_14 
REMARK    5  A    between atoms: O1_14  and  C13_15 
REMARK    6  A    between atoms: C14_16  and  O2_17 
REMARK    7  A    between atoms: C15_19  and  O3_20 
REMARK    8  A    between atoms: C16_22  and  O4_23 
REMARK    9  A    between atoms: C17_25  and  C18_26 
REMARK   10  A    between atoms: C19_29  and  O7_30 
REMARK   11  A    between atoms: C20_32  and  O8_33 
ROOT
HETATM    1  C13 UNL     1      18.545  -9.105  27.202  1.00  0.00     0.185 C 
HETATM    2  C14 UNL     1      18.461  -7.787  26.450  1.00  0.00     0.181 C 
HETATM    3  C15 UNL     1      17.229  -7.006  26.586  1.00  0.00     0.179 C 
HETATM    4  C16 UNL     1      15.974  -7.730  26.939  1.00  0.00     0.166 C 
HETATM    5  C17 UNL     1      15.840  -8.109  28.386  1.00  0.00     0.149 C 
HETATM    6  C19 UNL     1      16.574  -9.364  28.715  1.00  0.00     0.166 C 
HETATM    7  C20 UNL     1      18.075  -9.050  28.584  1.00  0.00     0.179 C 
ENDROOT
BRANCH   1   8
HETATM    8  O1  UNL     1      19.885  -9.457  27.134  1.00  0.00    -0.369 OA
BRANCH   8   9
HETATM    9  C12 UNL     1      20.294 -10.367  28.116  1.00  0.00     0.167 C 
HETATM   10  C7  UNL     1      21.693 -10.192  28.457  1.00  0.00     0.014 C 
HETATM   11  C8  UNL     1      22.230 -11.120  29.507  1.00  0.00     0.055 C 
HETATM   12  C9  UNL     1      21.910 -12.533  29.092  1.00  0.00     0.006 C 
HETATM   13  C10 UNL     1      21.386 -12.616  27.692  1.00  0.00     0.003 C 
HETATM   14  C11 UNL     1      20.186 -11.783  27.443  1.00  0.00     0.038 C 
BRANCH  10  15
HETATM   15  N1  UNL     1      22.212  -8.852  28.576  1.00  0.00    -0.381 N 
BRANCH  15  16
HETATM   16  C2  UNL     1      22.953  -8.461  27.439  1.00  0.00     0.118 C 
HETATM   17  C1  UNL     1      23.232  -9.497  26.398  1.00  0.00     0.026 C 
ENDBRANCH  15  16
BRANCH  15  18
HETATM   18  C3  UNL     1      22.599  -8.453  29.850  1.00  0.00     0.084 C 
HETATM   19  C4  UNL     1      23.774  -7.478  29.941  1.00  0.00     0.025 C 
HETATM   20  C5  UNL     1      22.803  -6.397  30.400  1.00  0.00     0.004 C 
HETATM   21  C6  UNL     1      21.800  -7.516  30.643  1.00  0.00     0.025 C 
ENDBRANCH  15  18
ENDBRANCH  10  15
ENDBRANCH   8   9
ENDBRANCH   1   8
BRANCH   2  22
HETATM   22  O2  UNL     1      19.548  -6.997  26.855  1.00  0.00    -0.390 OA
ATOM     23  H2  UNL     1      19.921  -7.398  27.631  1.00  0.00     0.210 HD
ENDBRANCH   2  22
BRANCH   7  24
HETATM   24  O8  UNL     1      18.366  -7.849  29.244  1.00  0.00    -0.390 OA
ATOM     25  H8  UNL     1      18.942  -7.945  29.994  1.00  0.00     0.210 HD
ENDBRANCH   7  24
BRANCH   3  26
HETATM   26  O3  UNL     1      17.339  -5.867  27.424  1.00  0.00    -0.390 OA
ATOM     27  H3  UNL     1      17.075  -6.011  28.325  1.00  0.00     0.210 HD
ENDBRANCH   3  26
BRANCH   6  28
HETATM   28  O7  UNL     1      16.303 -10.377  27.807  1.00  0.00    -0.392 OA
ATOM     29  H7  UNL     1      16.604 -10.158  26.933  1.00  0.00     0.210 HD
ENDBRANCH   6  28
BRANCH   4  30
HETATM   30  O4  UNL     1      15.756  -8.791  26.062  1.00  0.00    -0.392 OA
ATOM     31  H4  UNL     1      15.884  -8.514  25.163  1.00  0.00     0.210 HD
ENDBRANCH   4  30
BRANCH   5  32
HETATM   32  C18 UNL     1      14.400  -8.300  28.691  1.00  0.00     0.182 C 
HETATM   33  O5  UNL     1      13.562  -8.144  27.778  1.00  0.00    -0.648 OA
HETATM   34  O6  UNL     1      13.948  -8.647  29.946  1.00  0.00    -0.648 OA
ENDBRANCH   5  32
TORSDOF 11
ENDMDL
MODEL 5
REMARK VINA RESULT: -7.164060866      2.041      4.026
REMARK  11 active torsions:
REMARK  status: ('A' for Active; 'I' for Inactive)
REMARK    1  A    between atoms: C2_2  and  N1_3 
REMARK    2  A    between atoms: N1_3  and  C3_4 
REMARK    3  A    between atoms: N1_3  and  C7_8 
REMARK    4  A    between atoms: C12_13  and  O1_14 
REMARK    5  A    between atoms: O1_14  and  C13_15 
REMARK    6  A    between atoms: C14_16  and  O2_17 
REMARK    7  A    between atoms: C15_19  and  O3_20 
REMARK    8  A    between atoms: C16_22  and  O4_23 
REMARK    9  A    between atoms: C17_25  and  C18_26 
REMARK   10  A    between atoms: C19_29  and  O7_30 
REMARK   11  A    between atoms: C20_32  and  O8_33 
ROOT
HETATM    1  C13 UNL     1      17.746  -7.698  25.714  1.00  0.00     0.185 C 
HETATM    2  C14 UNL     1      16.626  -7.268  24.782  1.00  0.00     0.181 C 
HETATM    3  C15 UNL     1      15.253  -7.352  25.287  1.00  0.00     0.179 C 
HETATM    4  C16 UNL     1      14.965  -8.327  26.377  1.00  0.00     0.166 C 
HETATM    5  C17 UNL     1      15.396  -7.897  27.751  1.00  0.00     0.149 C 
HETATM    6  C19 UNL     1      16.844  -8.153  27.999  1.00  0.00     0.166 C 
HETATM    7  C20 UNL     1      17.628  -7.199  27.082  1.00  0.00     0.179 C 
ENDROOT
BRANCH   1   8
HETATM    8  O1  UNL     1      18.902  -7.238  25.101  1.00  0.00    -0.369 OA
BRANCH   8   9
HETATM    9  C12 UNL     1      19.314  -7.996  23.999  1.00  0.00     0.167 C 
HETATM   10  C7  UNL     1      20.529  -8.736  24.283  1.00  0.00     0.014 C 
HETATM   11  C8  UNL     1      21.052  -9.586  23.162  1.00  0.00     0.055 C 
HETATM   12  C9  UNL     1      21.178  -8.719  21.936  1.00  0.00     0.006 C 
HETATM   13  C10 UNL     1      20.984  -7.265  22.237  1.00  0.00     0.003 C 
HETATM   14  C11 UNL     1      19.693  -6.948  22.891  1.00  0.00     0.038 C 
BRANCH  10  15
HETATM   15  N1  UNL     1      20.670  -9.362  25.573  1.00  0.00    -0.381 N 
BRANCH  15  16
HETATM   16  C2  UNL     1      21.614  -8.703  26.390  1.00  0.00     0.118 C 
HETATM   17  C1  UNL     1      21.126  -8.081  27.658  1.00  0.00     0.026 C 
ENDBRANCH  15  16
BRANCH  15  18
HETATM   18  C3  UNL     1      20.548 -10.747  25.602  1.00  0.00     0.084 C 
HETATM   19  C4  UNL     1      21.231 -11.477  26.759  1.00  0.00     0.025 C 
HETATM   20  C5  UNL     1      19.855 -11.807  27.325  1.00  0.00     0.004 C 
HETATM   21  C6  UNL     1      19.291 -11.405  25.969  1.00  0.00     0.025 C 
ENDBRANCH  15  18
ENDBRANCH  10  15
ENDBRANCH   8   9
ENDBRANCH   1   8
BRANCH   2  22
HETATM   22  O2  UNL     1      16.886  -5.945  24.389  1.00  0.00    -0.390 OA
ATOM     23  H2  UNL     1      16.912  -5.928  23.439  1.00  0.00     0.210 HD
ENDBRANCH   2  22
BRANCH   7  24
HETATM   24  O8  UNL     1      17.098  -5.906  27.179  1.00  0.00    -0.390 OA
ATOM     25  H8  UNL     1      16.336  -5.754  26.632  1.00  0.00     0.210 HD
ENDBRANCH   7  24
BRANCH   3  26
HETATM   26  O3  UNL     1      14.673  -6.106  25.637  1.00  0.00    -0.390 OA
ATOM     27  H3  UNL     1      13.946  -5.838  25.088  1.00  0.00     0.210 HD
ENDBRANCH   3  26
BRANCH   6  28
HETATM   28  O7  UNL     1      17.212  -9.440  27.634  1.00  0.00    -0.392 OA
ATOM     29  H7  UNL     1      16.833 -10.093  28.210  1.00  0.00     0.210 HD
ENDBRANCH   6  28
BRANCH   4  30
HETATM   30  O4  UNL     1      15.409  -9.601  26.027  1.00  0.00    -0.392 OA
ATOM     31  H4  UNL     1      16.309  -9.729  26.303  1.00  0.00     0.210 HD
ENDBRANCH   4  30
BRANCH   5  32
HETATM   32  C18 UNL     1      14.596  -8.647  28.751  1.00  0.00     0.182 C 
HETATM   33  O5  UNL     1      14.268  -9.826  28.502  1.00  0.00    -0.648 OA
HETATM   34  O6  UNL     1      14.200  -8.093  29.950  1.00  0.00    -0.648 OA
ENDBRANCH   5  32
TORSDOF 11
ENDMDL
