MODEL 1
REMARK VINA RESULT: -9.115081258      0.000      0.000
REMARK  10 active torsions:
REMARK  status: ('A' for Active; 'I' for Inactive)
REMARK    1  A    between atoms: C5_5  and  O1_7 
REMARK    2  A    between atoms: O1_7  and  C7_8 
REMARK    3  A    between atoms: C7_8  and  C8_10 
REMARK    4  A    between atoms: C8_10  and  N1_11 
REMARK       I    between atoms: N1_11  and  C9_13 
REMARK    5  A    between atoms: C9_13  and  C10_15 
REMARK    6  A    between atoms: C10_15  and  O4_16 
REMARK    7  A    between atoms: C15_22  and  O5_23 
REMARK    8  A    between atoms: C15_22  and  C16_25 
REMARK    9  A    between atoms: C17_28  and  C18_29 
REMARK   10  A    between atoms: C18_29  and  O8_30 
ROOT
HETATM    1  C10 UNL     1      15.428  -7.751  25.740  1.00  0.00     0.147 C 
HETATM    2  C11 UNL     1      14.217  -8.570  26.115  1.00  0.00     0.049 C 
HETATM    3  C12 UNL     1      13.947  -8.524  27.600  1.00  0.00     0.011 C 
HETATM    4  C13 UNL     1      15.197  -8.155  28.372  1.00  0.00     0.027 C 
HETATM    5  C14 UNL     1      15.078  -8.519  29.836  1.00  0.00     0.014 C 
HETATM    6  C15 UNL     1      16.408  -8.788  27.730  1.00  0.00     0.157 C 
HETATM    7  C17 UNL     1      16.690  -8.136  26.430  1.00  0.00     0.099 C 
ENDROOT
BRANCH   1   8
HETATM    8  C9  UNL     1      15.608  -7.953  24.255  1.00  0.00     0.253 C 
HETATM    9  N1  UNL     1      15.175  -6.970  23.330  1.00  0.00    -0.349 N 
ATOM     10  H1  UNL     1      14.733  -6.119  23.678  1.00  0.00     0.163 HD
HETATM   11  O3  UNL     1      16.147  -8.994  23.806  1.00  0.00    -0.270 OA
BRANCH   9  12
HETATM   12  C8  UNL     1      15.341  -7.145  21.926  1.00  0.00     0.233 C 
BRANCH  12  13
HETATM   13  C7  UNL     1      14.865  -6.006  21.101  1.00  0.00     0.279 C 
HETATM   14  O2  UNL     1      15.415  -4.869  21.074  1.00  0.00    -0.263 OA
BRANCH  13  15
HETATM   15  O1  UNL     1      13.746  -6.116  20.275  1.00  0.00    -0.282 OA
BRANCH  15  16
HETATM   16  C5  UNL     1      13.765  -6.651  18.994  1.00  0.00     0.170 C 
HETATM   17  C4  UNL     1      12.517  -6.417  18.192  1.00  0.00     0.073 C 
HETATM   18  C3  UNL     1      12.867  -6.770  16.738  1.00  0.00     0.041 C 
HETATM   19  C2  UNL     1      13.346  -8.181  16.772  1.00  0.00    -0.066 C 
HETATM   20  C1  UNL     1      12.970  -9.013  15.781  1.00  0.00     0.016 C 
HETATM   21  C19 UNL     1      14.208  -8.631  17.877  1.00  0.00     0.205 C 
HETATM   22  O9  UNL     1      13.978  -8.011  19.076  1.00  0.00    -0.351 OA
HETATM   23  C6  UNL     1      14.898  -5.939  18.240  1.00  0.00     0.079 C 
ENDBRANCH  15  16
ENDBRANCH  13  15
ENDBRANCH  12  13
ENDBRANCH   9  12
ENDBRANCH   1   8
BRANCH   1  24
HETATM   24  O4  UNL     1      15.219  -6.391  25.952  1.00  0.00    -0.380 OA
ATOM     25  H4  UNL     1      14.386  -6.298  26.399  1.00  0.00     0.211 HD
ENDBRANCH   1  24
BRANCH   7  26
HETATM   26  C18 UNL     1      17.688  -6.998  26.486  1.00  0.00     0.175 C 
BRANCH  26  27
HETATM   27  O8  UNL     1      17.242  -6.003  27.390  1.00  0.00    -0.400 OA
ATOM     28  H8  UNL     1      17.175  -5.165  26.948  1.00  0.00     0.209 HD
ENDBRANCH  26  27
ENDBRANCH   7  26
BRANCH   6  29
HETATM   29  O5  UNL     1      16.060 -10.133  27.436  1.00  0.00    -0.378 OA
ATOM     30  H5  UNL     1      16.565 -10.682  28.024  1.00  0.00     0.211 HD
ENDBRANCH   6  29
BRANCH   6  31
HETATM   31  C16 UNL     1      17.521  -8.844  28.683  1.00  0.00     0.210 C 
HETATM   32  O6  UNL     1      18.298  -9.851  28.790  1.00  0.00    -0.646 OA
HETATM   33  O7  UNL     1      17.813  -7.797  29.547  1.00  0.00    -0.646 OA
ENDBRANCH   6  31
TORSDOF 10
ENDMDL
MODEL 2
REMARK VINA RESULT: -8.914324543      3.081      4.552
REMARK  10 active torsions:
REMARK  status: ('A' for Active; 'I' for Inactive)
REMARK    1  A    between atoms: C5_5  and  O1_7 
REMARK    2  A    between atoms: O1_7  and  C7_8 
REMARK    3  A    between atoms: C7_8  and  C8_10 
REMARK    4  A    between atoms: C8_10  and  N1_11 
REMARK       I    between atoms: N1_11  and  C9_13 
REMARK    5  A    between atoms: C9_13  and  C10_15 
REMARK    6  A    between atoms: C10_15  and  O4_16 
REMARK    7  A    between atoms: C15_22  and  O5_23 
REMARK    8  A    between atoms: C15_22  and  C16_25 
REMARK    9  A    between atoms: C17_28  and  C18_29 
REMARK   10  A    between atoms: C18_29  and  O8_30 
ROOT
HETATM    1  C10 UNL     1      15.855  -9.189  27.419  1.00  0.00     0.147 C 
HETATM    2  C11 UNL     1      15.719 -10.536  26.751  1.00  0.00     0.049 C 
HETATM    3  C12 UNL     1      17.037 -11.272  26.701  1.00  0.00     0.011 C 
HETATM    4  C13 UNL     1      18.204 -10.313  26.815  1.00  0.00     0.027 C 
HETATM    5  C14 UNL     1      19.494 -10.945  26.341  1.00  0.00     0.014 C 
HETATM    6  C15 UNL     1      17.897  -9.034  26.076  1.00  0.00     0.157 C 
HETATM    7  C17 UNL     1      16.849  -8.272  26.795  1.00  0.00     0.099 C 
ENDROOT
BRANCH   1   8
HETATM    8  C9  UNL     1      14.489  -8.554  27.328  1.00  0.00     0.253 C 
HETATM    9  N1  UNL     1      13.896  -8.281  26.070  1.00  0.00    -0.349 N 
ATOM     10  H1  UNL     1      14.404  -8.518  25.218  1.00  0.00     0.163 HD
HETATM   11  O3  UNL     1      13.848  -8.252  28.365  1.00  0.00    -0.270 OA
BRANCH   9  12
HETATM   12  C8  UNL     1      12.606  -7.685  25.969  1.00  0.00     0.233 C 
BRANCH  12  13
HETATM   13  C7  UNL     1      11.611  -8.488  25.213  1.00  0.00     0.279 C 
HETATM   14  O2  UNL     1      11.601  -9.751  25.172  1.00  0.00    -0.263 OA
BRANCH  13  15
HETATM   15  O1  UNL     1      10.592  -7.887  24.477  1.00  0.00    -0.282 OA
BRANCH  15  16
HETATM   16  C5  UNL     1      10.690  -7.537  23.137  1.00  0.00     0.170 C 
HETATM   17  C4  UNL     1      12.091  -7.466  22.602  1.00  0.00     0.073 C 
HETATM   18  C3  UNL     1      11.966  -7.410  21.071  1.00  0.00     0.041 C 
HETATM   19  C2  UNL     1      11.114  -6.221  20.782  1.00  0.00    -0.066 C 
HETATM   20  C1  UNL     1      11.438  -5.436  19.737  1.00  0.00     0.016 C 
HETATM   21  C19 UNL     1       9.951  -5.934  21.637  1.00  0.00     0.205 C 
HETATM   22  O9  UNL     1      10.092  -6.309  22.946  1.00  0.00    -0.351 OA
HETATM   23  C6  UNL     1       9.984  -8.646  22.342  1.00  0.00     0.079 C 
ENDBRANCH  15  16
ENDBRANCH  13  15
ENDBRANCH  12  13
ENDBRANCH   9  12
ENDBRANCH   1   8
BRANCH   1  24
HETATM   24  O4  UNL     1      16.168  -9.309  28.770  1.00  0.00    -0.380 OA
ATOM     25  H4  UNL     1      15.622 -10.000  29.127  1.00  0.00     0.211 HD
ENDBRANCH   1  24
BRANCH   7  26
HETATM   26  C18 UNL     1      17.365  -7.233  27.768  1.00  0.00     0.175 C 
BRANCH  26  27
HETATM   27  O8  UNL     1      17.037  -5.933  27.311  1.00  0.00    -0.400 OA
ATOM     28  H8  UNL     1      16.828  -5.370  28.047  1.00  0.00     0.209 HD
ENDBRANCH  26  27
ENDBRANCH   7  26
BRANCH   6  29
HETATM   29  O5  UNL     1      17.333  -9.408  24.827  1.00  0.00    -0.378 OA
ATOM     30  H5  UNL     1      18.056  -9.506  24.218  1.00  0.00     0.211 HD
ENDBRANCH   6  29
BRANCH   6  31
HETATM   31  C16 UNL     1      19.135  -8.308  25.773  1.00  0.00     0.210 C 
HETATM   32  O6  UNL     1      19.399  -7.828  24.621  1.00  0.00    -0.646 OA
HETATM   33  O7  UNL     1      20.119  -8.090  26.728  1.00  0.00    -0.646 OA
ENDBRANCH   6  31
TORSDOF 10
ENDMDL
MODEL 3
REMARK VINA RESULT: -8.897607575      0.909      1.339
REMARK  10 active torsions:
REMARK  status: ('A' for Active; 'I' for Inactive)
REMARK    1  A    between atoms: C5_5  and  O1_7 
REMARK    2  A    between atoms: O1_7  and  C7_8 
REMARK    3  A    between atoms: C7_8  and  C8_10 
REMARK    4  A    between atoms: C8_10  and  N1_11 
REMARK       I    between atoms: N1_11  and  C9_13 
REMARK    5  A    between atoms: C9_13  and  C10_15 
REMARK    6  A    between atoms: C10_15  and  O4_16 
REMARK    7  A    between atoms: C15_22  and  O5_23 
REMARK    8  A    between atoms: C15_22  and  C16_25 
REMARK    9  A    between atoms: C17_28  and  C18_29 
REMARK   10  A    between atoms: C18_29  and  O8_30 
ROOT
HETATM    1  C10 UNL     1      15.675  -7.539  25.465  1.00  0.00     0.147 C 
HETATM    2  C11 UNL     1      14.402  -8.326  25.665  1.00  0.00     0.049 C 
HETATM    3  C12 UNL     1      13.968  -8.332  27.111  1.00  0.00     0.011 C 
HETATM    4  C13 UNL     1      15.134  -8.044  28.034  1.00  0.00     0.027 C 
HETATM    5  C14 UNL     1      14.837  -8.463  29.457  1.00  0.00     0.014 C 
HETATM    6  C15 UNL     1      16.387  -8.695  27.503  1.00  0.00     0.157 C 
HETATM    7  C17 UNL     1      16.837  -8.001  26.273  1.00  0.00     0.099 C 
ENDROOT
BRANCH   1   8
HETATM    8  C9  UNL     1      16.015  -7.685  24.003  1.00  0.00     0.253 C 
HETATM    9  N1  UNL     1      16.446  -6.569  23.241  1.00  0.00    -0.349 N 
ATOM     10  H1  UNL     1      16.522  -5.658  23.693  1.00  0.00     0.163 HD
HETATM   11  O3  UNL     1      15.926  -8.797  23.427  1.00  0.00    -0.270 OA
BRANCH   9  12
HETATM   12  C8  UNL     1      16.774  -6.693  21.860  1.00  0.00     0.233 C 
BRANCH  12  13
HETATM   13  C7  UNL     1      16.034  -5.767  20.965  1.00  0.00     0.279 C 
HETATM   14  O2  UNL     1      15.407  -4.744  21.361  1.00  0.00    -0.263 OA
BRANCH  13  15
HETATM   15  O1  UNL     1      15.980  -5.969  19.586  1.00  0.00    -0.282 OA
BRANCH  15  16
HETATM   16  C5  UNL     1      15.060  -6.789  18.947  1.00  0.00     0.170 C 
HETATM   17  C4  UNL     1      15.630  -8.055  18.375  1.00  0.00     0.073 C 
HETATM   18  C3  UNL     1      14.430  -8.952  18.033  1.00  0.00     0.041 C 
HETATM   19  C2  UNL     1      13.587  -8.154  17.097  1.00  0.00    -0.066 C 
HETATM   20  C1  UNL     1      13.018  -8.781  16.049  1.00  0.00     0.016 C 
HETATM   21  C19 UNL     1      13.398  -6.714  17.335  1.00  0.00     0.205 C 
HETATM   22  O9  UNL     1      14.461  -6.084  17.924  1.00  0.00    -0.351 OA
HETATM   23  C6  UNL     1      14.044  -7.221  20.015  1.00  0.00     0.079 C 
ENDBRANCH  15  16
ENDBRANCH  13  15
ENDBRANCH  12  13
ENDBRANCH   9  12
ENDBRANCH   1   8
BRANCH   1  24
HETATM   24  O4  UNL     1      15.489  -6.182  25.715  1.00  0.00    -0.380 OA
ATOM     25  H4  UNL     1      15.167  -5.787  24.912  1.00  0.00     0.211 HD
ENDBRANCH   1  24
BRANCH   7  26
HETATM   26  C18 UNL     1      17.860  -6.906  26.493  1.00  0.00     0.175 C 
BRANCH  26  27
HETATM   27  O8  UNL     1      17.321  -5.896  27.328  1.00  0.00    -0.400 OA
ATOM     28  H8  UNL     1      17.203  -5.093  26.835  1.00  0.00     0.209 HD
ENDBRANCH  26  27
ENDBRANCH   7  26
BRANCH   6  29
HETATM   29  O5  UNL     1      16.030 -10.012  27.110  1.00  0.00    -0.378 OA
ATOM     30  H5  UNL     1      16.520 -10.607  27.667  1.00  0.00     0.211 HD
ENDBRANCH   6  29
BRANCH   6  31
HETATM   31  C16 UNL     1      17.383  -8.834  28.571  1.00  0.00     0.210 C 
HETATM   32  O6  UNL     1      18.063  -9.899  28.757  1.00  0.00    -0.646 OA
HETATM   33  O7  UNL     1      17.661  -7.809  29.465  1.00  0.00    -0.646 OA
ENDBRANCH   6  31
TORSDOF 10
ENDMDL
MODEL 4
REMARK VINA RESULT: -8.807568720      1.305      2.480
REMARK  10 active torsions:
REMARK  status: ('A' for Active; 'I' for Inactive)
REMARK    1  A    between atoms: C5_5  and  O1_7 
REMARK    2  A    between atoms: O1_7  and  C7_8 
REMARK    3  A    between atoms: C7_8  and  C8_10 
REMARK    4  A    between atoms: C8_10  and  N1_11 
REMARK       I    between atoms: N1_11  and  C9_13 
REMARK    5  A    between atoms: C9_13  and  C10_15 
REMARK    6  A    between atoms: C10_15  and  O4_16 
REMARK    7  A    between atoms: C15_22  and  O5_23 
REMARK    8  A    between atoms: C15_22  and  C16_25 
REMARK    9  A    between atoms: C17_28  and  C18_29 
REMARK   10  A    between atoms: C18_29  and  O8_30 
ROOT
HETATM    1  C10 UNL     1      16.329  -8.016  24.972  1.00  0.00     0.147 C 
HETATM    2  C11 UNL     1      17.746  -7.651  25.343  1.00  0.00     0.049 C 
HETATM    3  C12 UNL     1      18.280  -8.529  26.450  1.00  0.00     0.011 C 
HETATM    4  C13 UNL     1      17.151  -9.146  27.251  1.00  0.00     0.027 C 
HETATM    5  C14 UNL     1      17.633  -9.658  28.590  1.00  0.00     0.014 C 
HETATM    6  C15 UNL     1      16.020  -8.158  27.397  1.00  0.00     0.157 C 
HETATM    7  C17 UNL     1      15.349  -7.960  26.091  1.00  0.00     0.099 C 
ENDROOT
BRANCH   1   8
HETATM    8  C9  UNL     1      15.917  -7.017  23.919  1.00  0.00     0.253 C 
HETATM    9  N1  UNL     1      15.459  -7.448  22.648  1.00  0.00    -0.349 N 
ATOM     10  H1  UNL     1      15.411  -8.447  22.448  1.00  0.00     0.163 HD
HETATM   11  O3  UNL     1      15.969  -5.783  24.144  1.00  0.00    -0.270 OA
BRANCH   9  12
HETATM   12  C8  UNL     1      15.063  -6.517  21.645  1.00  0.00     0.233 C 
BRANCH  12  13
HETATM   13  C7  UNL     1      13.680  -6.707  21.137  1.00  0.00     0.279 C 
HETATM   14  O2  UNL     1      12.791  -7.379  21.731  1.00  0.00    -0.263 OA
BRANCH  13  15
HETATM   15  O1  UNL     1      13.257  -6.139  19.936  1.00  0.00    -0.282 OA
BRANCH  15  16
HETATM   16  C5  UNL     1      13.426  -6.722  18.688  1.00  0.00     0.170 C 
HETATM   17  C4  UNL     1      12.232  -6.637  17.782  1.00  0.00     0.073 C 
HETATM   18  C3  UNL     1      12.729  -7.018  16.377  1.00  0.00     0.041 C 
HETATM   19  C2  UNL     1      13.324  -8.377  16.518  1.00  0.00    -0.066 C 
HETATM   20  C1  UNL     1      13.105  -9.280  15.543  1.00  0.00     0.016 C 
HETATM   21  C19 UNL     1      14.130  -8.699  17.707  1.00  0.00     0.205 C 
HETATM   22  O9  UNL     1      13.750  -8.052  18.853  1.00  0.00    -0.351 OA
HETATM   23  C6  UNL     1      14.550  -5.942  17.989  1.00  0.00     0.079 C 
ENDBRANCH  15  16
ENDBRANCH  13  15
ENDBRANCH  12  13
ENDBRANCH   9  12
ENDBRANCH   1   8
BRANCH   1  24
HETATM   24  O4  UNL     1      16.254  -9.281  24.396  1.00  0.00    -0.380 OA
ATOM     25  H4  UNL     1      16.507  -9.194  23.485  1.00  0.00     0.211 HD
ENDBRANCH   1  24
BRANCH   7  26
HETATM   26  C18 UNL     1      14.144  -8.846  25.849  1.00  0.00     0.175 C 
BRANCH  26  27
HETATM   27  O8  UNL     1      13.442  -8.409  24.699  1.00  0.00    -0.400 OA
ATOM     28  H8  UNL     1      13.005  -9.143  24.284  1.00  0.00     0.209 HD
ENDBRANCH  26  27
ENDBRANCH   7  26
BRANCH   6  29
HETATM   29  O5  UNL     1      16.607  -6.911  27.738  1.00  0.00    -0.378 OA
ATOM     30  H5  UNL     1      16.007  -6.479  28.336  1.00  0.00     0.211 HD
ENDBRANCH   6  29
BRANCH   6  31
HETATM   31  C16 UNL     1      15.156  -8.533  28.521  1.00  0.00     0.210 C 
HETATM   32  O6  UNL     1      14.438  -9.589  28.528  1.00  0.00    -0.646 OA
HETATM   33  O7  UNL     1      15.056  -7.760  29.671  1.00  0.00    -0.646 OA
ENDBRANCH   6  31
TORSDOF 10
ENDMDL
MODEL 5
REMARK VINA RESULT: -8.722551028      1.399      2.136
REMARK  10 active torsions:
REMARK  status: ('A' for Active; 'I' for Inactive)
REMARK    1  A    between atoms: C5_5  and  O1_7 
REMARK    2  A    between atoms: O1_7  and  C7_8 
REMARK    3  A    between atoms: C7_8  and  C8_10 
REMARK    4  A    between atoms: C8_10  and  N1_11 
REMARK       I    between atoms: N1_11  and  C9_13 
REMARK    5  A    between atoms: C9_13  and  C10_15 
REMARK    6  A    between atoms: C10_15  and  O4_16 
REMARK    7  A    between atoms: C15_22  and  O5_23 
REMARK    8  A    between atoms: C15_22  and  C16_25 
REMARK    9  A    between atoms: C17_28  and  C18_29 
REMARK   10  A    between atoms: C18_29  and  O8_30 
ROOT
HETATM    1  C10 UNL     1      15.666  -7.597  25.666  1.00  0.00     0.147 C 
HETATM    2  C11 UNL     1      14.417  -8.413  25.901  1.00  0.00     0.049 C 
HETATM    3  C12 UNL     1      14.019  -8.420  27.358  1.00  0.00     0.011 C 
HETATM    4  C13 UNL     1      15.201  -8.100  28.249  1.00  0.00     0.027 C 
HETATM    5  C14 UNL     1      14.950  -8.519  29.681  1.00  0.00     0.014 C 
HETATM    6  C15 UNL     1      16.455  -8.725  27.691  1.00  0.00     0.157 C 
HETATM    7  C17 UNL     1      16.858  -8.028  26.446  1.00  0.00     0.099 C 
ENDROOT
BRANCH   1   8
HETATM    8  C9  UNL     1      15.973  -7.744  24.196  1.00  0.00     0.253 C 
HETATM    9  N1  UNL     1      16.385  -6.628  23.424  1.00  0.00    -0.349 N 
ATOM     10  H1  UNL     1      16.471  -5.717  23.873  1.00  0.00     0.163 HD
HETATM   11  O3  UNL     1      15.872  -8.857  23.623  1.00  0.00    -0.270 OA
BRANCH   9  12
HETATM   12  C8  UNL     1      16.681  -6.752  22.036  1.00  0.00     0.233 C 
BRANCH  12  13
HETATM   13  C7  UNL     1      15.843  -5.906  21.148  1.00  0.00     0.279 C 
HETATM   14  O2  UNL     1      15.769  -4.648  21.227  1.00  0.00    -0.263 OA
BRANCH  13  15
HETATM   15  O1  UNL     1      15.059  -6.460  20.136  1.00  0.00    -0.282 OA
BRANCH  15  16
HETATM   16  C5  UNL     1      13.674  -6.539  20.169  1.00  0.00     0.170 C 
HETATM   17  C4  UNL     1      12.960  -5.230  19.990  1.00  0.00     0.073 C 
HETATM   18  C3  UNL     1      11.488  -5.576  19.717  1.00  0.00     0.041 C 
HETATM   19  C2  UNL     1      11.044  -6.387  20.886  1.00  0.00    -0.066 C 
HETATM   20  C1  UNL     1       9.811  -6.174  21.386  1.00  0.00     0.016 C 
HETATM   21  C19 UNL     1      11.951  -7.393  21.461  1.00  0.00     0.205 C 
HETATM   22  O9  UNL     1      13.283  -7.083  21.374  1.00  0.00    -0.351 OA
HETATM   23  C6  UNL     1      13.258  -7.419  18.981  1.00  0.00     0.079 C 
ENDBRANCH  15  16
ENDBRANCH  13  15
ENDBRANCH  12  13
ENDBRANCH   9  12
ENDBRANCH   1   8
BRANCH   1  24
HETATM   24  O4  UNL     1      15.454  -6.244  25.913  1.00  0.00    -0.380 OA
ATOM     25  H4  UNL     1      14.672  -5.988  25.439  1.00  0.00     0.211 HD
ENDBRANCH   1  24
BRANCH   7  26
HETATM   26  C18 UNL     1      17.860  -6.908  26.635  1.00  0.00     0.175 C 
BRANCH  26  27
HETATM   27  O8  UNL     1      17.307  -5.892  27.452  1.00  0.00    -0.400 OA
ATOM     28  H8  UNL     1      17.980  -5.269  27.699  1.00  0.00     0.209 HD
ENDBRANCH  26  27
ENDBRANCH   7  26
BRANCH   6  29
HETATM   29  O5  UNL     1      16.119 -10.053  27.314  1.00  0.00    -0.378 OA
ATOM     30  H5  UNL     1      16.640 -10.633  27.857  1.00  0.00     0.211 HD
ENDBRANCH   6  29
BRANCH   6  31
HETATM   31  C16 UNL     1      17.480  -8.836  28.734  1.00  0.00     0.210 C 
HETATM   32  O6  UNL     1      18.224  -9.863  28.876  1.00  0.00    -0.646 OA
HETATM   33  O7  UNL     1      17.718  -7.821  29.652  1.00  0.00    -0.646 OA
ENDBRANCH   6  31
TORSDOF 10
ENDMDL
