MODEL 1
REMARK VINA RESULT: -7.215485865      0.000      0.000
REMARK  11 active torsions:
REMARK  status: ('A' for Active; 'I' for Inactive)
REMARK    1  A    between atoms: C2_2  and  C3_3 
REMARK    2  A    between atoms: C2_2  and  C5_8 
REMARK    3  A    between atoms: C3_3  and  C4_4 
REMARK    4  A    between atoms: C6_9  and  O1_10 
REMARK    5  A    between atoms: C7_12  and  O2_13 
REMARK    6  A    between atoms: C8_15  and  O3_16 
REMARK    7  A    between atoms: C9_18  and  S1_19 
REMARK    8  A    between atoms: S1_19  and  C10_20 
REMARK    9  A    between atoms: C11_21  and  N2_22 
REMARK   10  A    between atoms: N2_22  and  O4_23 
REMARK   11  A    between atoms: C17_31  and  C18_32 
ROOT
HETATM    1  C5  UNL     1      15.885  -9.390  27.976  1.00  0.00     0.115 C 
HETATM    2  C6  UNL     1      15.348  -8.252  28.787  1.00  0.00     0.172 C 
HETATM    3  C7  UNL     1      16.248  -7.809  29.897  1.00  0.00     0.180 C 
HETATM    4  C8  UNL     1      17.614  -8.510  29.843  1.00  0.00     0.182 C 
HETATM    5  C9  UNL     1      18.059  -8.387  28.416  1.00  0.00     0.173 C 
HETATM    6  N4  UNL     1      17.264  -9.331  27.654  1.00  0.00    -0.394 N 
HETATM    7  C19 UNL     1      17.904 -10.585  27.443  1.00  0.00     0.145 C 
ENDROOT
BRANCH   5   8
HETATM    8  S1  UNL     1      19.734  -8.727  28.065  1.00  0.00    -0.133 SA
BRANCH   8   9
HETATM    9  C10 UNL     1      20.741  -9.618  29.206  1.00  0.00     0.104 C 
HETATM   10  C11 UNL     1      21.781  -8.756  29.822  1.00  0.00     0.124 C 
HETATM   11  C12 UNL     1      23.019  -8.580  28.992  1.00  0.00     0.061 C 
HETATM   12  C13 UNL     1      23.340  -9.791  28.152  1.00  0.00     0.230 C 
HETATM   13  C14 UNL     1      23.630 -11.007  28.998  1.00  0.00     0.032 A 
HETATM   14  N3  UNL     1      22.221 -10.251  27.352  1.00  0.00     0.100 N 
HETATM   15  C15 UNL     1      23.218 -12.149  28.183  1.00  0.00     0.027 A 
HETATM   16  C18 UNL     1      22.294 -11.601  29.203  1.00  0.00     0.033 A 
HETATM   17  C16 UNL     1      22.772 -11.533  26.873  1.00  0.00     0.279 C 
HETATM   18  C17 UNL     1      21.347 -10.772  28.412  1.00  0.00     0.243 C 
BRANCH  10  19
HETATM   19  N2  UNL     1      21.282  -7.476  30.244  1.00  0.00    -0.098 NA
BRANCH  19  20
HETATM   20  O4  UNL     1      21.081  -7.393  31.572  1.00  0.00    -0.296 OA
ATOM     21  H4  UNL     1      21.841  -7.083  32.049  1.00  0.00     0.238 HD
ENDBRANCH  19  20
ENDBRANCH  10  19
ENDBRANCH   8   9
ENDBRANCH   5   8
BRANCH   4  22
HETATM   22  O3  UNL     1      18.409  -7.849  30.748  1.00  0.00    -0.390 OA
ATOM     23  H3  UNL     1      19.108  -7.456  30.239  1.00  0.00     0.210 HD
ENDBRANCH   4  22
BRANCH   3  24
HETATM   24  O2  UNL     1      15.725  -8.059  31.166  1.00  0.00    -0.390 OA
ATOM     25  H2  UNL     1      15.755  -7.304  31.740  1.00  0.00     0.210 HD
ENDBRANCH   3  24
BRANCH   1  26
HETATM   26  C2  UNL     1      15.133  -9.644  26.714  1.00  0.00     0.011 C 
HETATM   27  C1  UNL     1      13.860 -10.407  26.866  1.00  0.00     0.012 C 
BRANCH  26  28
HETATM   28  C3  UNL     1      14.803  -8.356  25.966  1.00  0.00     0.050 C 
BRANCH  28  29
HETATM   29  C4  UNL     1      13.331  -8.185  25.824  1.00  0.00     0.053 C 
HETATM   30  N1  UNL     1      12.759  -7.050  25.881  1.00  0.00    -0.411 N 
ATOM     31  H12 UNL     1      13.349  -6.232  26.031  1.00  0.00     0.155 HD
ATOM     32  H11 UNL     1      11.750  -6.933  25.784  1.00  0.00     0.155 HD
ENDBRANCH  28  29
ENDBRANCH  26  28
ENDBRANCH   1  26
BRANCH   2  33
HETATM   33  O1  UNL     1      14.155  -8.678  29.390  1.00  0.00    -0.391 OA
ATOM     34  H1  UNL     1      14.326  -8.807  30.316  1.00  0.00     0.210 HD
ENDBRANCH   2  33
TORSDOF 11
ENDMDL
MODEL 2
REMARK VINA RESULT: -7.150417453      1.876      2.724
REMARK  11 active torsions:
REMARK  status: ('A' for Active; 'I' for Inactive)
REMARK    1  A    between atoms: C2_2  and  C3_3 
REMARK    2  A    between atoms: C2_2  and  C5_8 
REMARK    3  A    between atoms: C3_3  and  C4_4 
REMARK    4  A    between atoms: C6_9  and  O1_10 
REMARK    5  A    between atoms: C7_12  and  O2_13 
REMARK    6  A    between atoms: C8_15  and  O3_16 
REMARK    7  A    between atoms: C9_18  and  S1_19 
REMARK    8  A    between atoms: S1_19  and  C10_20 
REMARK    9  A    between atoms: C11_21  and  N2_22 
REMARK   10  A    between atoms: N2_22  and  O4_23 
REMARK   11  A    between atoms: C17_31  and  C18_32 
ROOT
HETATM    1  C5  UNL     1      15.471  -9.524  27.776  1.00  0.00     0.115 C 
HETATM    2  C6  UNL     1      15.181  -8.296  28.583  1.00  0.00     0.172 C 
HETATM    3  C7  UNL     1      16.280  -7.901  29.518  1.00  0.00     0.180 C 
HETATM    4  C8  UNL     1      17.544  -8.749  29.310  1.00  0.00     0.182 C 
HETATM    5  C9  UNL     1      17.777  -8.744  27.828  1.00  0.00     0.173 C 
HETATM    6  N4  UNL     1      16.784  -9.631  27.253  1.00  0.00    -0.394 N 
HETATM    7  C19 UNL     1      17.255 -10.955  27.031  1.00  0.00     0.145 C 
ENDROOT
BRANCH   5   8
HETATM    8  S1  UNL     1      19.336  -9.280  27.258  1.00  0.00    -0.133 SA
BRANCH   8   9
HETATM    9  C10 UNL     1      20.699  -8.166  27.151  1.00  0.00     0.104 C 
HETATM   10  C11 UNL     1      21.734  -8.642  26.200  1.00  0.00     0.124 C 
HETATM   11  C12 UNL     1      22.699  -9.639  26.774  1.00  0.00     0.061 C 
HETATM   12  C13 UNL     1      22.963  -9.422  28.243  1.00  0.00     0.230 C 
HETATM   13  C14 UNL     1      23.607  -8.084  28.512  1.00  0.00     0.032 A 
HETATM   14  N3  UNL     1      21.754  -9.329  29.039  1.00  0.00     0.100 N 
HETATM   15  C15 UNL     1      23.164  -7.705  29.852  1.00  0.00     0.027 A 
HETATM   16  C18 UNL     1      22.452  -7.177  28.665  1.00  0.00     0.033 A 
HETATM   17  C16 UNL     1      22.336  -8.884  30.320  1.00  0.00     0.279 C 
HETATM   18  C17 UNL     1      21.240  -8.033  28.572  1.00  0.00     0.243 C 
BRANCH  10  19
HETATM   19  N2  UNL     1      21.188  -9.137  24.966  1.00  0.00    -0.098 NA
BRANCH  19  20
HETATM   20  O4  UNL     1      20.803  -8.159  24.123  1.00  0.00    -0.296 OA
ATOM     21  H4  UNL     1      19.921  -8.274  23.791  1.00  0.00     0.238 HD
ENDBRANCH  19  20
ENDBRANCH  10  19
ENDBRANCH   8   9
ENDBRANCH   5   8
BRANCH   4  22
HETATM   22  O3  UNL     1      18.530  -8.135  30.045  1.00  0.00    -0.390 OA
ATOM     23  H3  UNL     1      18.458  -8.492  30.922  1.00  0.00     0.210 HD
ENDBRANCH   4  22
BRANCH   3  24
HETATM   24  O2  UNL     1      15.934  -8.031  30.864  1.00  0.00    -0.390 OA
ATOM     25  H2  UNL     1      16.231  -7.306  31.400  1.00  0.00     0.210 HD
ENDBRANCH   3  24
BRANCH   1  26
HETATM   26  C2  UNL     1      14.514  -9.754  26.657  1.00  0.00     0.011 C 
HETATM   27  C1  UNL     1      13.504 -10.829  26.885  1.00  0.00     0.012 C 
BRANCH  26  28
HETATM   28  C3  UNL     1      13.752  -8.490  26.276  1.00  0.00     0.050 C 
BRANCH  28  29
HETATM   29  C4  UNL     1      14.244  -7.941  24.982  1.00  0.00     0.053 C 
HETATM   30  N1  UNL     1      13.569  -7.999  23.905  1.00  0.00    -0.411 N 
ATOM     31  H12 UNL     1      12.652  -8.444  23.948  1.00  0.00     0.155 HD
ATOM     32  H11 UNL     1      13.906  -7.623  23.019  1.00  0.00     0.155 HD
ENDBRANCH  28  29
ENDBRANCH  26  28
ENDBRANCH   1  26
BRANCH   2  33
HETATM   33  O1  UNL     1      14.058  -8.560  29.380  1.00  0.00    -0.391 OA
ATOM     34  H1  UNL     1      14.283  -8.354  30.280  1.00  0.00     0.210 HD
ENDBRANCH   2  33
TORSDOF 11
ENDMDL
MODEL 3
REMARK VINA RESULT: -7.131371521      1.741      7.394
REMARK  11 active torsions:
REMARK  status: ('A' for Active; 'I' for Inactive)
REMARK    1  A    between atoms: C2_2  and  C3_3 
REMARK    2  A    between atoms: C2_2  and  C5_8 
REMARK    3  A    between atoms: C3_3  and  C4_4 
REMARK    4  A    between atoms: C6_9  and  O1_10 
REMARK    5  A    between atoms: C7_12  and  O2_13 
REMARK    6  A    between atoms: C8_15  and  O3_16 
REMARK    7  A    between atoms: C9_18  and  S1_19 
REMARK    8  A    between atoms: S1_19  and  C10_20 
REMARK    9  A    between atoms: C11_21  and  N2_22 
REMARK   10  A    between atoms: N2_22  and  O4_23 
REMARK   11  A    between atoms: C17_31  and  C18_32 
ROOT
HETATM    1  C5  UNL     1      21.187  -8.656  28.564  1.00  0.00     0.115 C 
HETATM    2  C6  UNL     1      21.300  -8.739  30.054  1.00  0.00     0.172 C 
HETATM    3  C7  UNL     1      20.077  -8.287  30.790  1.00  0.00     0.180 C 
HETATM    4  C8  UNL     1      18.905  -8.005  29.837  1.00  0.00     0.182 C 
HETATM    5  C9  UNL     1      18.842  -9.200  28.933  1.00  0.00     0.173 C 
HETATM    6  N4  UNL     1      19.952  -9.074  28.008  1.00  0.00    -0.394 N 
HETATM    7  C19 UNL     1      19.600  -8.476  26.764  1.00  0.00     0.145 C 
ENDROOT
BRANCH   5   8
HETATM    8  S1  UNL     1      17.398  -9.409  27.977  1.00  0.00    -0.133 SA
BRANCH   8   9
HETATM    9  C10 UNL     1      16.229  -8.101  27.796  1.00  0.00     0.104 C 
HETATM   10  C11 UNL     1      14.880  -8.489  28.278  1.00  0.00     0.124 C 
HETATM   11  C12 UNL     1      14.056  -9.254  27.282  1.00  0.00     0.061 C 
HETATM   12  C13 UNL     1      14.342  -8.857  25.855  1.00  0.00     0.230 C 
HETATM   13  C14 UNL     1      13.998  -7.411  25.590  1.00  0.00     0.032 A 
HETATM   14  N3  UNL     1      15.752  -8.888  25.519  1.00  0.00     0.100 N 
HETATM   15  C15 UNL     1      14.918  -6.984  24.537  1.00  0.00     0.027 A 
HETATM   16  C18 UNL     1      15.238  -6.696  25.954  1.00  0.00     0.033 A 
HETATM   17  C16 UNL     1      15.705  -8.233  24.198  1.00  0.00     0.279 C 
HETATM   18  C17 UNL     1      16.229  -7.746  26.311  1.00  0.00     0.243 C 
BRANCH  10  19
HETATM   19  N2  UNL     1      14.904  -9.183  29.536  1.00  0.00    -0.098 NA
BRANCH  19  20
HETATM   20  O4  UNL     1      14.108  -8.625  30.468  1.00  0.00    -0.296 OA
ATOM     21  H4  UNL     1      14.570  -8.381  31.261  1.00  0.00     0.238 HD
ENDBRANCH  19  20
ENDBRANCH  10  19
ENDBRANCH   8   9
ENDBRANCH   5   8
BRANCH   4  22
HETATM   22  O3  UNL     1      17.802  -7.839  30.641  1.00  0.00    -0.390 OA
ATOM     23  H3  UNL     1      17.431  -6.999  30.398  1.00  0.00     0.210 HD
ENDBRANCH   4  22
BRANCH   3  24
HETATM   24  O2  UNL     1      20.276  -7.119  31.527  1.00  0.00    -0.390 OA
ATOM     25  H2  UNL     1      19.706  -6.407  31.264  1.00  0.00     0.210 HD
ENDBRANCH   3  24
BRANCH   1  26
HETATM   26  C2  UNL     1      22.278  -9.361  27.833  1.00  0.00     0.011 C 
HETATM   27  C1  UNL     1      23.416  -8.502  27.393  1.00  0.00     0.012 C 
BRANCH  26  28
HETATM   28  C3  UNL     1      22.865 -10.514  28.639  1.00  0.00     0.050 C 
BRANCH  28  29
HETATM   29  C4  UNL     1      24.239 -10.848  28.168  1.00  0.00     0.053 C 
HETATM   30  N1  UNL     1      24.656 -12.044  28.050  1.00  0.00    -0.411 N 
ATOM     31  H12 UNL     1      24.010 -12.794  28.291  1.00  0.00     0.155 HD
ATOM     32  H11 UNL     1      25.597 -12.272  27.728  1.00  0.00     0.155 HD
ENDBRANCH  28  29
ENDBRANCH  26  28
ENDBRANCH   1  26
BRANCH   2  33
HETATM   33  O1  UNL     1      22.340  -7.889  30.456  1.00  0.00    -0.391 OA
ATOM     34  H1  UNL     1      22.094  -7.496  31.286  1.00  0.00     0.210 HD
ENDBRANCH   2  33
TORSDOF 11
ENDMDL
MODEL 4
REMARK VINA RESULT: -6.933344686      2.043      3.260
REMARK  11 active torsions:
REMARK  status: ('A' for Active; 'I' for Inactive)
REMARK    1  A    between atoms: C2_2  and  C3_3 
REMARK    2  A    between atoms: C2_2  and  C5_8 
REMARK    3  A    between atoms: C3_3  and  C4_4 
REMARK    4  A    between atoms: C6_9  and  O1_10 
REMARK    5  A    between atoms: C7_12  and  O2_13 
REMARK    6  A    between atoms: C8_15  and  O3_16 
REMARK    7  A    between atoms: C9_18  and  S1_19 
REMARK    8  A    between atoms: S1_19  and  C10_20 
REMARK    9  A    between atoms: C11_21  and  N2_22 
REMARK   10  A    between atoms: N2_22  and  O4_23 
REMARK   11  A    between atoms: C17_31  and  C18_32 
ROOT
HETATM    1  C5  UNL     1      16.154  -9.426  27.829  1.00  0.00     0.115 C 
HETATM    2  C6  UNL     1      15.651  -8.204  28.532  1.00  0.00     0.172 C 
HETATM    3  C7  UNL     1      16.483  -7.782  29.702  1.00  0.00     0.180 C 
HETATM    4  C8  UNL     1      17.778  -8.602  29.812  1.00  0.00     0.182 C 
HETATM    5  C9  UNL     1      18.362  -8.595  28.430  1.00  0.00     0.173 C 
HETATM    6  N4  UNL     1      17.556  -9.505  27.639  1.00  0.00    -0.394 N 
HETATM    7  C19 UNL     1      18.096 -10.819  27.547  1.00  0.00     0.145 C 
ENDROOT
BRANCH   5   8
HETATM    8  S1  UNL     1      20.023  -9.097  28.258  1.00  0.00    -0.133 SA
BRANCH   8   9
HETATM    9  C10 UNL     1      21.308  -7.919  27.991  1.00  0.00     0.104 C 
HETATM   10  C11 UNL     1      22.586  -8.566  27.603  1.00  0.00     0.124 C 
HETATM   11  C12 UNL     1      23.404  -9.075  28.755  1.00  0.00     0.061 C 
HETATM   12  C13 UNL     1      23.244  -8.241  30.002  1.00  0.00     0.230 C 
HETATM   13  C14 UNL     1      23.724  -6.825  29.802  1.00  0.00     0.032 A 
HETATM   14  N3  UNL     1      21.860  -8.029  30.381  1.00  0.00     0.100 N 
HETATM   15  C15 UNL     1      22.912  -6.011  30.707  1.00  0.00     0.027 A 
HETATM   16  C18 UNL     1      22.528  -6.132  29.281  1.00  0.00     0.033 A 
HETATM   17  C16 UNL     1      22.046  -7.016  31.437  1.00  0.00     0.279 C 
HETATM   18  C17 UNL     1      21.432  -7.136  29.296  1.00  0.00     0.243 C 
BRANCH  10  19
HETATM   19  N2  UNL     1      22.424  -9.599  26.617  1.00  0.00    -0.098 NA
BRANCH  19  20
HETATM   20  O4  UNL     1      23.550  -9.858  25.926  1.00  0.00    -0.296 OA
ATOM     21  H4  UNL     1      24.171 -10.394  26.406  1.00  0.00     0.238 HD
ENDBRANCH  19  20
ENDBRANCH  10  19
ENDBRANCH   8   9
ENDBRANCH   5   8
BRANCH   4  22
HETATM   22  O3  UNL     1      18.544  -7.964  30.759  1.00  0.00    -0.390 OA
ATOM     23  H3  UNL     1      18.514  -8.518  31.530  1.00  0.00     0.210 HD
ENDBRANCH   4  22
BRANCH   3  24
HETATM   24  O2  UNL     1      15.825  -7.918  30.925  1.00  0.00    -0.390 OA
ATOM     25  H2  UNL     1      15.076  -7.341  31.015  1.00  0.00     0.210 HD
ENDBRANCH   3  24
BRANCH   1  26
HETATM   26  C2  UNL     1      15.501  -9.681  26.513  1.00  0.00     0.011 C 
HETATM   27  C1  UNL     1      16.341  -9.399  25.312  1.00  0.00     0.012 C 
BRANCH  26  28
HETATM   28  C3  UNL     1      14.993 -11.112  26.385  1.00  0.00     0.050 C 
BRANCH  28  29
HETATM   29  C4  UNL     1      13.575 -11.216  26.828  1.00  0.00     0.053 C 
HETATM   30  N1  UNL     1      12.811 -12.173  26.481  1.00  0.00    -0.411 N 
ATOM     31  H12 UNL     1      13.203 -12.891  25.873  1.00  0.00     0.155 HD
ATOM     32  H11 UNL     1      11.839 -12.243  26.784  1.00  0.00     0.155 HD
ENDBRANCH  28  29
ENDBRANCH  26  28
ENDBRANCH   1  26
BRANCH   2  33
HETATM   33  O1  UNL     1      14.375  -8.491  29.036  1.00  0.00    -0.391 OA
ATOM     34  H1  UNL     1      14.427  -8.486  29.985  1.00  0.00     0.210 HD
ENDBRANCH   2  33
TORSDOF 11
ENDMDL
MODEL 5
REMARK VINA RESULT: -6.907135946      3.382      5.540
REMARK  11 active torsions:
REMARK  status: ('A' for Active; 'I' for Inactive)
REMARK    1  A    between atoms: C2_2  and  C3_3 
REMARK    2  A    between atoms: C2_2  and  C5_8 
REMARK    3  A    between atoms: C3_3  and  C4_4 
REMARK    4  A    between atoms: C6_9  and  O1_10 
REMARK    5  A    between atoms: C7_12  and  O2_13 
REMARK    6  A    between atoms: C8_15  and  O3_16 
REMARK    7  A    between atoms: C9_18  and  S1_19 
REMARK    8  A    between atoms: S1_19  and  C10_20 
REMARK    9  A    between atoms: C11_21  and  N2_22 
REMARK   10  A    between atoms: N2_22  and  O4_23 
REMARK   11  A    between atoms: C17_31  and  C18_32 
ROOT
HETATM    1  C5  UNL     1      13.083  -7.553  23.911  1.00  0.00     0.115 C 
HETATM    2  C6  UNL     1      14.095  -7.687  22.817  1.00  0.00     0.172 C 
HETATM    3  C7  UNL     1      15.421  -7.064  23.125  1.00  0.00     0.180 C 
HETATM    4  C8  UNL     1      15.502  -6.577  24.580  1.00  0.00     0.182 C 
HETATM    5  C9  UNL     1      14.999  -7.726  25.403  1.00  0.00     0.173 C 
HETATM    6  N4  UNL     1      13.560  -7.756  25.230  1.00  0.00    -0.394 N 
HETATM    7  C19 UNL     1      12.842  -7.081  26.258  1.00  0.00     0.145 C 
ENDROOT
BRANCH   5   8
HETATM    8  S1  UNL     1      15.310  -7.680  27.119  1.00  0.00    -0.133 SA
BRANCH   8   9
HETATM    9  C10 UNL     1      16.073  -9.039  27.943  1.00  0.00     0.104 C 
HETATM   10  C11 UNL     1      16.325  -8.751  29.377  1.00  0.00     0.124 C 
HETATM   11  C12 UNL     1      17.586  -7.984  29.649  1.00  0.00     0.061 C 
HETATM   12  C13 UNL     1      18.685  -8.291  28.662  1.00  0.00     0.230 C 
HETATM   13  C14 UNL     1      19.111  -9.738  28.721  1.00  0.00     0.032 A 
HETATM   14  N3  UNL     1      18.269  -8.165  27.278  1.00  0.00     0.100 N 
HETATM   15  C15 UNL     1      19.569 -10.060  27.370  1.00  0.00     0.027 A 
HETATM   16  C18 UNL     1      18.186 -10.401  27.778  1.00  0.00     0.033 A 
HETATM   17  C16 UNL     1      19.448  -8.753  26.613  1.00  0.00     0.279 C 
HETATM   18  C17 UNL     1      17.364  -9.318  27.177  1.00  0.00     0.243 C 
BRANCH  10  19
HETATM   19  N2  UNL     1      15.212  -8.123  30.034  1.00  0.00    -0.098 NA
BRANCH  19  20
HETATM   20  O4  UNL     1      14.271  -8.995  30.441  1.00  0.00    -0.296 OA
ATOM     21  H4  UNL     1      13.384  -8.694  30.281  1.00  0.00     0.238 HD
ENDBRANCH  19  20
ENDBRANCH  10  19
ENDBRANCH   8   9
ENDBRANCH   5   8
BRANCH   4  22
HETATM   22  O3  UNL     1      16.822  -6.256  24.792  1.00  0.00    -0.390 OA
ATOM     23  H3  UNL     1      16.887  -6.028  25.712  1.00  0.00     0.210 HD
ENDBRANCH   4  22
BRANCH   3  24
HETATM   24  O2  UNL     1      15.712  -5.960  22.322  1.00  0.00    -0.390 OA
ATOM     25  H2  UNL     1      16.366  -5.383  22.699  1.00  0.00     0.210 HD
ENDBRANCH   3  24
BRANCH   1  26
HETATM   26  C2  UNL     1      11.874  -8.405  23.727  1.00  0.00     0.011 C 
HETATM   27  C1  UNL     1      11.532  -9.294  24.876  1.00  0.00     0.012 C 
BRANCH  26  28
HETATM   28  C3  UNL     1      10.631  -7.585  23.402  1.00  0.00     0.050 C 
BRANCH  28  29
HETATM   29  C4  UNL     1      10.206  -7.798  21.990  1.00  0.00     0.053 C 
HETATM   30  N1  UNL     1      10.639  -7.091  21.025  1.00  0.00    -0.411 N 
ATOM     31  H12 UNL     1      11.306  -6.351  21.245  1.00  0.00     0.155 HD
ATOM     32  H11 UNL     1      10.348  -7.236  20.058  1.00  0.00     0.155 HD
ENDBRANCH  28  29
ENDBRANCH  26  28
ENDBRANCH   1  26
BRANCH   2  33
HETATM   33  O1  UNL     1      13.599  -7.023  21.686  1.00  0.00    -0.391 OA
ATOM     34  H1  UNL     1      13.600  -7.637  20.961  1.00  0.00     0.210 HD
ENDBRANCH   2  33
TORSDOF 11
ENDMDL
