MODEL 1
REMARK VINA RESULT: -7.815220600      0.000      0.000
REMARK  8 active torsions:
REMARK  status: ('A' for Active; 'I' for Inactive)
REMARK    1  A    between atoms: N1_1  and  S1_4 
REMARK    2  A    between atoms: S1_4  and  C1_7 
REMARK    3  A    between atoms: C3_9  and  O3_10 
REMARK    4  A    between atoms: N2_12  and  C4_13 
REMARK    5  A    between atoms: C4_13  and  C5_14 
REMARK    6  A    between atoms: C5_14  and  N3_15 
REMARK    7  A    between atoms: C5_14  and  C11_25 
REMARK       I    between atoms: N3_15  and  C6_17 
REMARK       I    between atoms: C6_17  and  N4_19 
REMARK    8  A    between atoms: C12_28  and  O7_29 
ROOT
HETATM    1  C1  UNL     1      15.683  -7.672  27.595  1.00  0.00     0.134 A 
HETATM    2  C2  UNL     1      16.263  -6.794  26.711  1.00  0.00     0.085 A 
HETATM    3  C3  UNL     1      15.360  -6.517  25.704  1.00  0.00     0.145 A 
HETATM    4  N2  UNL     1      14.259  -7.213  25.977  1.00  0.00    -0.305 N 
HETATM    5  C12 UNL     1      14.422  -7.919  27.108  1.00  0.00     0.168 A 
ENDROOT
BRANCH   4   6
HETATM    6  C4  UNL     1      13.035  -7.247  25.194  1.00  0.00     0.169 C 
BRANCH   6   7
HETATM    7  C5  UNL     1      13.015  -8.329  24.152  1.00  0.00     0.205 C 
BRANCH   7   8
HETATM    8  N3  UNL     1      12.960  -7.675  22.838  1.00  0.00    -0.327 N 
HETATM    9  C6  UNL     1      14.128  -7.506  22.053  1.00  0.00     0.319 C 
HETATM   10  O4  UNL     1      15.252  -7.915  22.467  1.00  0.00    -0.247 OA
HETATM   11  N4  UNL     1      14.058  -6.878  20.791  1.00  0.00    -0.333 N 
HETATM   12  C7  UNL     1      12.783  -6.416  20.301  1.00  0.00     0.137 C 
HETATM   13  C10 UNL     1      15.243  -6.674  19.964  1.00  0.00     0.137 C 
HETATM   14  C8  UNL     1      12.857  -6.207  18.823  1.00  0.00     0.093 C 
HETATM   15  S2  UNL     1      13.703  -7.609  17.998  1.00  0.00    -0.166 SA
HETATM   16  C9  UNL     1      15.283  -7.796  18.920  1.00  0.00     0.093 C 
ATOM     17  H3  UNL     1      12.065  -7.337  22.484  1.00  0.00     0.165 HD
ENDBRANCH   7   8
BRANCH   7  18
HETATM   18  C11 UNL     1      11.752  -9.087  24.320  1.00  0.00     0.198 C 
HETATM   19  O5  UNL     1      10.760  -8.983  23.575  1.00  0.00    -0.646 OA
HETATM   20  O6  UNL     1      11.665  -9.979  25.386  1.00  0.00    -0.646 OA
ENDBRANCH   7  18
ENDBRANCH   6   7
ENDBRANCH   4   6
BRANCH   3  21
HETATM   21  O3  UNL     1      15.601  -5.653  24.615  1.00  0.00    -0.346 OA
ATOM     22  H3  UNL     1      16.413  -5.607  24.125  1.00  0.00     0.219 HD
ENDBRANCH   3  21
BRANCH   5  23
HETATM   23  O7  UNL     1      13.467  -8.773  27.708  1.00  0.00    -0.345 OA
ATOM     24  H7  UNL     1      13.314  -8.854  28.642  1.00  0.00     0.219 HD
ENDBRANCH   5  23
BRANCH   1  25
HETATM   25  S1  UNL     1      16.327  -8.378  29.051  1.00  0.00     0.261 S 
HETATM   26  O1  UNL     1      17.285  -7.361  29.644  1.00  0.00    -0.201 OA
HETATM   27  O2  UNL     1      17.047  -9.636  28.693  1.00  0.00    -0.201 OA
BRANCH  25  28
HETATM   28  N1  UNL     1      15.127  -8.694  30.218  1.00  0.00    -0.324 N 
ATOM     29  H12 UNL     1      14.343  -8.081  30.442  1.00  0.00     0.169 HD
ATOM     30  H11 UNL     1      15.339  -9.597  30.641  1.00  0.00     0.169 HD
ENDBRANCH  25  28
ENDBRANCH   1  25
TORSDOF 8
ENDMDL
MODEL 2
REMARK VINA RESULT: -7.360893753      3.584      6.822
REMARK  8 active torsions:
REMARK  status: ('A' for Active; 'I' for Inactive)
REMARK    1  A    between atoms: N1_1  and  S1_4 
REMARK    2  A    between atoms: S1_4  and  C1_7 
REMARK    3  A    between atoms: C3_9  and  O3_10 
REMARK    4  A    between atoms: N2_12  and  C4_13 
REMARK    5  A    between atoms: C4_13  and  C5_14 
REMARK    6  A    between atoms: C5_14  and  N3_15 
REMARK    7  A    between atoms: C5_14  and  C11_25 
REMARK       I    between atoms: N3_15  and  C6_17 
REMARK       I    between atoms: C6_17  and  N4_19 
REMARK    8  A    between atoms: C12_28  and  O7_29 
ROOT
HETATM    1  C1  UNL     1      13.615  -8.006  24.885  1.00  0.00     0.134 A 
HETATM    2  C2  UNL     1      14.793  -8.213  24.209  1.00  0.00     0.085 A 
HETATM    3  C3  UNL     1      15.846  -7.968  25.069  1.00  0.00     0.145 A 
HETATM    4  N2  UNL     1      15.311  -7.622  26.238  1.00  0.00    -0.305 N 
HETATM    5  C12 UNL     1      13.971  -7.634  26.159  1.00  0.00     0.168 A 
ENDROOT
BRANCH   4   6
HETATM    6  C4  UNL     1      16.028  -7.264  27.450  1.00  0.00     0.169 C 
BRANCH   6   7
HETATM    7  C5  UNL     1      16.303  -8.433  28.355  1.00  0.00     0.205 C 
BRANCH   7   8
HETATM    8  N3  UNL     1      16.618  -9.586  27.502  1.00  0.00    -0.327 N 
HETATM    9  C6  UNL     1      17.905 -10.179  27.516  1.00  0.00     0.319 C 
HETATM   10  O4  UNL     1      18.819  -9.727  28.267  1.00  0.00    -0.247 OA
HETATM   11  N4  UNL     1      18.191 -11.289  26.693  1.00  0.00    -0.333 N 
HETATM   12  C7  UNL     1      17.157 -11.822  25.841  1.00  0.00     0.137 C 
HETATM   13  C10 UNL     1      19.509 -11.915  26.672  1.00  0.00     0.137 C 
HETATM   14  C8  UNL     1      17.518 -13.209  25.418  1.00  0.00     0.093 C 
HETATM   15  S2  UNL     1      18.135 -14.194  26.837  1.00  0.00    -0.166 SA
HETATM   16  C9  UNL     1      19.455 -13.150  27.578  1.00  0.00     0.093 C 
ATOM     17  H3  UNL     1      15.898  -9.967  26.889  1.00  0.00     0.165 HD
ENDBRANCH   7   8
BRANCH   7  18
HETATM   18  C11 UNL     1      15.045  -8.746  29.073  1.00  0.00     0.198 C 
HETATM   19  O5  UNL     1      14.357  -9.766  28.884  1.00  0.00    -0.646 OA
HETATM   20  O6  UNL     1      14.596  -7.837  30.028  1.00  0.00    -0.646 OA
ENDBRANCH   7  18
ENDBRANCH   6   7
ENDBRANCH   4   6
BRANCH   3  21
HETATM   21  O3  UNL     1      17.211  -8.079  24.731  1.00  0.00    -0.346 OA
ATOM     22  H3  UNL     1      17.615  -8.842  24.336  1.00  0.00     0.219 HD
ENDBRANCH   3  21
BRANCH   5  23
HETATM   23  O7  UNL     1      13.067  -7.322  27.201  1.00  0.00    -0.345 OA
ATOM     24  H7  UNL     1      12.130  -7.482  27.182  1.00  0.00     0.219 HD
ENDBRANCH   5  23
BRANCH   1  25
HETATM   25  S1  UNL     1      11.970  -8.156  24.330  1.00  0.00     0.261 S 
HETATM   26  O1  UNL     1      11.110  -7.355  25.291  1.00  0.00    -0.201 OA
HETATM   27  O2  UNL     1      11.588  -9.599  24.355  1.00  0.00    -0.201 OA
BRANCH  25  28
HETATM   28  N1  UNL     1      11.738  -7.509  22.772  1.00  0.00    -0.324 N 
ATOM     29  H12 UNL     1      10.912  -6.996  22.461  1.00  0.00     0.169 HD
ATOM     30  H11 UNL     1      12.568  -7.728  22.221  1.00  0.00     0.169 HD
ENDBRANCH  25  28
ENDBRANCH   1  25
TORSDOF 8
ENDMDL
MODEL 3
REMARK VINA RESULT: -7.221420578      3.757      7.938
REMARK  8 active torsions:
REMARK  status: ('A' for Active; 'I' for Inactive)
REMARK    1  A    between atoms: N1_1  and  S1_4 
REMARK    2  A    between atoms: S1_4  and  C1_7 
REMARK    3  A    between atoms: C3_9  and  O3_10 
REMARK    4  A    between atoms: N2_12  and  C4_13 
REMARK    5  A    between atoms: C4_13  and  C5_14 
REMARK    6  A    between atoms: C5_14  and  N3_15 
REMARK    7  A    between atoms: C5_14  and  C11_25 
REMARK       I    between atoms: N3_15  and  C6_17 
REMARK       I    between atoms: C6_17  and  N4_19 
REMARK    8  A    between atoms: C12_28  and  O7_29 
ROOT
HETATM    1  C1  UNL     1      13.632  -8.300  25.180  1.00  0.00     0.134 A 
HETATM    2  C2  UNL     1      14.702  -7.590  24.692  1.00  0.00     0.085 A 
HETATM    3  C3  UNL     1      15.816  -7.891  25.450  1.00  0.00     0.145 A 
HETATM    4  N2  UNL     1      15.424  -8.765  26.375  1.00  0.00    -0.305 N 
HETATM    5  C12 UNL     1      14.115  -9.030  26.239  1.00  0.00     0.168 A 
ENDROOT
BRANCH   4   6
HETATM    6  C4  UNL     1      16.249  -9.367  27.408  1.00  0.00     0.169 C 
BRANCH   6   7
HETATM    7  C5  UNL     1      16.792  -8.377  28.400  1.00  0.00     0.205 C 
BRANCH   7   8
HETATM    8  N3  UNL     1      18.162  -8.792  28.732  1.00  0.00    -0.327 N 
HETATM    9  C6  UNL     1      19.281  -8.205  28.092  1.00  0.00     0.319 C 
HETATM   10  O4  UNL     1      19.129  -7.305  27.214  1.00  0.00    -0.247 OA
HETATM   11  N4  UNL     1      20.591  -8.612  28.425  1.00  0.00    -0.333 N 
HETATM   12  C7  UNL     1      20.782  -9.627  29.430  1.00  0.00     0.137 C 
HETATM   13  C10 UNL     1      21.766  -8.039  27.775  1.00  0.00     0.137 C 
HETATM   14  C8  UNL     1      22.189  -9.582  29.932  1.00  0.00     0.093 C 
HETATM   15  S2  UNL     1      22.720  -7.857  30.258  1.00  0.00    -0.166 SA
HETATM   16  C9  UNL     1      22.332  -6.958  28.702  1.00  0.00     0.093 C 
ATOM     17  H3  UNL     1      18.309  -9.515  29.436  1.00  0.00     0.165 HD
ENDBRANCH   7   8
BRANCH   7  18
HETATM   18  C11 UNL     1      15.984  -8.497  29.637  1.00  0.00     0.198 C 
HETATM   19  O5  UNL     1      16.209  -7.876  30.692  1.00  0.00    -0.646 OA
HETATM   20  O6  UNL     1      14.894  -9.364  29.621  1.00  0.00    -0.646 OA
ENDBRANCH   7  18
ENDBRANCH   6   7
ENDBRANCH   4   6
BRANCH   3  21
HETATM   21  O3  UNL     1      17.105  -7.353  25.247  1.00  0.00    -0.346 OA
ATOM     22  H3  UNL     1      17.919  -7.791  25.463  1.00  0.00     0.219 HD
ENDBRANCH   3  21
BRANCH   5  23
HETATM   23  O7  UNL     1      13.351  -9.910  27.040  1.00  0.00    -0.345 OA
ATOM     24  H7  UNL     1      13.622 -10.262  27.880  1.00  0.00     0.219 HD
ENDBRANCH   5  23
BRANCH   1  25
HETATM   25  S1  UNL     1      11.976  -8.334  24.639  1.00  0.00     0.261 S 
HETATM   26  O1  UNL     1      11.173  -7.524  25.641  1.00  0.00    -0.201 OA
HETATM   27  O2  UNL     1      11.512  -9.752  24.611  1.00  0.00    -0.201 OA
BRANCH  25  28
HETATM   28  N1  UNL     1      11.767  -7.612  23.110  1.00  0.00    -0.324 N 
ATOM     29  H12 UNL     1      10.910  -7.170  22.776  1.00  0.00     0.169 HD
ATOM     30  H11 UNL     1      12.648  -7.704  22.603  1.00  0.00     0.169 HD
ENDBRANCH  25  28
ENDBRANCH   1  25
TORSDOF 8
ENDMDL
MODEL 4
REMARK VINA RESULT: -7.206901263      3.711      8.192
REMARK  8 active torsions:
REMARK  status: ('A' for Active; 'I' for Inactive)
REMARK    1  A    between atoms: N1_1  and  S1_4 
REMARK    2  A    between atoms: S1_4  and  C1_7 
REMARK    3  A    between atoms: C3_9  and  O3_10 
REMARK    4  A    between atoms: N2_12  and  C4_13 
REMARK    5  A    between atoms: C4_13  and  C5_14 
REMARK    6  A    between atoms: C5_14  and  N3_15 
REMARK    7  A    between atoms: C5_14  and  C11_25 
REMARK       I    between atoms: N3_15  and  C6_17 
REMARK       I    between atoms: C6_17  and  N4_19 
REMARK    8  A    between atoms: C12_28  and  O7_29 
ROOT
HETATM    1  C1  UNL     1      13.045  -8.500  25.594  1.00  0.00     0.134 A 
HETATM    2  C2  UNL     1      13.205  -9.568  26.443  1.00  0.00     0.085 A 
HETATM    3  C3  UNL     1      14.242  -9.292  27.312  1.00  0.00     0.145 A 
HETATM    4  N2  UNL     1      14.697  -8.083  26.991  1.00  0.00    -0.305 N 
HETATM    5  C12 UNL     1      13.997  -7.581  25.960  1.00  0.00     0.168 A 
ENDROOT
BRANCH   4   6
HETATM    6  C4  UNL     1      15.792  -7.369  27.626  1.00  0.00     0.169 C 
BRANCH   6   7
HETATM    7  C5  UNL     1      17.143  -7.718  27.068  1.00  0.00     0.205 C 
BRANCH   7   8
HETATM    8  N3  UNL     1      18.069  -7.841  28.201  1.00  0.00    -0.327 N 
HETATM    9  C6  UNL     1      19.213  -8.673  28.127  1.00  0.00     0.319 C 
HETATM   10  O4  UNL     1      19.465  -9.337  27.078  1.00  0.00    -0.247 OA
HETATM   11  N4  UNL     1      20.095  -8.778  29.224  1.00  0.00    -0.333 N 
HETATM   12  C7  UNL     1      19.827  -8.021  30.421  1.00  0.00     0.137 C 
HETATM   13  C10 UNL     1      21.274  -9.638  29.187  1.00  0.00     0.137 C 
HETATM   14  C8  UNL     1      21.070  -7.926  31.246  1.00  0.00     0.093 C 
HETATM   15  S2  UNL     1      22.524  -7.516  30.207  1.00  0.00    -0.166 SA
HETATM   16  C9  UNL     1      22.484  -8.758  28.853  1.00  0.00     0.093 C 
ATOM     17  H3  UNL     1      17.886  -7.316  29.057  1.00  0.00     0.165 HD
ENDBRANCH   7   8
BRANCH   7  18
HETATM   18  C11 UNL     1      17.598  -6.569  26.249  1.00  0.00     0.198 C 
HETATM   19  O5  UNL     1      18.397  -5.696  26.636  1.00  0.00    -0.646 OA
HETATM   20  O6  UNL     1      17.097  -6.453  24.955  1.00  0.00    -0.646 OA
ENDBRANCH   7  18
ENDBRANCH   6   7
ENDBRANCH   4   6
BRANCH   3  21
HETATM   21  O3  UNL     1      14.698 -10.155  28.330  1.00  0.00    -0.346 OA
ATOM     22  H3  UNL     1      14.776  -9.923  29.248  1.00  0.00     0.219 HD
ENDBRANCH   3  21
BRANCH   5  23
HETATM   23  O7  UNL     1      14.196  -6.321  25.348  1.00  0.00    -0.345 OA
ATOM     24  H7  UNL     1      14.698  -6.169  24.556  1.00  0.00     0.219 HD
ENDBRANCH   5  23
BRANCH   1  25
HETATM   25  S1  UNL     1      11.907  -8.269  24.295  1.00  0.00     0.261 S 
HETATM   26  O1  UNL     1      10.938  -7.193  24.750  1.00  0.00    -0.201 OA
HETATM   27  O2  UNL     1      11.192  -9.556  24.052  1.00  0.00    -0.201 OA
BRANCH  25  28
HETATM   28  N1  UNL     1      12.646  -7.722  22.861  1.00  0.00    -0.324 N 
ATOM     29  H12 UNL     1      12.277  -6.997  22.245  1.00  0.00     0.169 HD
ATOM     30  H11 UNL     1      13.511  -8.249  22.740  1.00  0.00     0.169 HD
ENDBRANCH  25  28
ENDBRANCH   1  25
TORSDOF 8
ENDMDL
MODEL 5
REMARK VINA RESULT: -7.076577470      1.885      2.600
REMARK  8 active torsions:
REMARK  status: ('A' for Active; 'I' for Inactive)
REMARK    1  A    between atoms: N1_1  and  S1_4 
REMARK    2  A    between atoms: S1_4  and  C1_7 
REMARK    3  A    between atoms: C3_9  and  O3_10 
REMARK    4  A    between atoms: N2_12  and  C4_13 
REMARK    5  A    between atoms: C4_13  and  C5_14 
REMARK    6  A    between atoms: C5_14  and  N3_15 
REMARK    7  A    between atoms: C5_14  and  C11_25 
REMARK       I    between atoms: N3_15  and  C6_17 
REMARK       I    between atoms: C6_17  and  N4_19 
REMARK    8  A    between atoms: C12_28  and  O7_29 
ROOT
HETATM    1  C1  UNL     1      15.697  -7.747  27.157  1.00  0.00     0.134 A 
HETATM    2  C2  UNL     1      15.139  -8.988  27.350  1.00  0.00     0.085 A 
HETATM    3  C3  UNL     1      13.975  -9.071  26.612  1.00  0.00     0.145 A 
HETATM    4  N2  UNL     1      13.836  -7.904  25.987  1.00  0.00    -0.305 N 
HETATM    5  C12 UNL     1      14.856  -7.086  26.295  1.00  0.00     0.168 A 
ENDROOT
BRANCH   4   6
HETATM    6  C4  UNL     1      12.754  -7.517  25.097  1.00  0.00     0.169 C 
BRANCH   6   7
HETATM    7  C5  UNL     1      12.744  -8.270  23.796  1.00  0.00     0.205 C 
BRANCH   7   8
HETATM    8  N3  UNL     1      13.618  -7.548  22.862  1.00  0.00    -0.327 N 
HETATM    9  C6  UNL     1      14.981  -7.902  22.710  1.00  0.00     0.319 C 
HETATM   10  O4  UNL     1      15.482  -8.854  23.379  1.00  0.00    -0.247 OA
HETATM   11  N4  UNL     1      15.807  -7.200  21.806  1.00  0.00    -0.333 N 
HETATM   12  C7  UNL     1      15.248  -6.122  21.030  1.00  0.00     0.137 C 
HETATM   13  C10 UNL     1      17.219  -7.529  21.635  1.00  0.00     0.137 C 
HETATM   14  C8  UNL     1      16.133  -5.831  19.861  1.00  0.00     0.093 C 
HETATM   15  S2  UNL     1      16.664  -7.379  19.032  1.00  0.00    -0.166 SA
HETATM   16  C9  UNL     1      17.345  -8.414  20.390  1.00  0.00     0.093 C 
ATOM     17  H3  UNL     1      13.236  -6.777  22.313  1.00  0.00     0.165 HD
ENDBRANCH   7   8
BRANCH   7  18
HETATM   18  C11 UNL     1      11.366  -8.201  23.253  1.00  0.00     0.198 C 
HETATM   19  O5  UNL     1      10.831  -7.169  22.808  1.00  0.00    -0.646 OA
HETATM   20  O6  UNL     1      10.614  -9.373  23.237  1.00  0.00    -0.646 OA
ENDBRANCH   7  18
ENDBRANCH   6   7
ENDBRANCH   4   6
BRANCH   3  21
HETATM   21  O3  UNL     1      13.128 -10.197  26.559  1.00  0.00    -0.346 OA
ATOM     22  H3  UNL     1      12.391 -10.299  25.967  1.00  0.00     0.219 HD
ENDBRANCH   3  21
BRANCH   5  23
HETATM   23  O7  UNL     1      15.045  -5.768  25.820  1.00  0.00    -0.345 OA
ATOM     24  H7  UNL     1      15.152  -4.997  26.366  1.00  0.00     0.219 HD
ENDBRANCH   5  23
BRANCH   1  25
HETATM   25  S1  UNL     1      17.156  -7.065  27.819  1.00  0.00     0.261 S 
HETATM   26  O1  UNL     1      17.033  -7.153  29.329  1.00  0.00    -0.201 OA
HETATM   27  O2  UNL     1      17.261  -5.643  27.379  1.00  0.00    -0.201 OA
BRANCH  25  28
HETATM   28  N1  UNL     1      18.553  -7.930  27.367  1.00  0.00    -0.324 N 
ATOM     29  H12 UNL     1      19.509  -7.576  27.415  1.00  0.00     0.169 HD
ATOM     30  H11 UNL     1      18.254  -8.851  27.046  1.00  0.00     0.169 HD
ENDBRANCH  25  28
ENDBRANCH   1  25
TORSDOF 8
ENDMDL
