MODEL 1
REMARK VINA RESULT: -6.967427113      0.000      0.000
REMARK  13 active torsions:
REMARK  status: ('A' for Active; 'I' for Inactive)
REMARK    1  A    between atoms: C2_2  and  C3_3 
REMARK    2  A    between atoms: C4_4  and  O1_5 
REMARK    3  A    between atoms: C5_7  and  O2_8 
REMARK    4  A    between atoms: C6_10  and  O3_11 
REMARK    5  A    between atoms: C7_13  and  O4_14 
REMARK    6  A    between atoms: O4_14  and  C8_15 
REMARK    7  A    between atoms: C10_17  and  N1_18 
REMARK    8  A    between atoms: C11_22  and  O5_24 
REMARK    9  A    between atoms: O5_24  and  C13_25 
REMARK   10  A    between atoms: C13_25  and  C14_26 
REMARK   11  A    between atoms: C17_29  and  C18_30 
REMARK   12  A    between atoms: C18_30  and  O6_31 
REMARK   13  A    between atoms: C20_34  and  O7_35 
ROOT
HETATM    1  C14 UNL     1      14.177  -8.734  17.276  1.00  0.00    -0.081 C 
HETATM    2  C15 UNL     1      13.990  -9.504  16.341  1.00  0.00    -0.109 C 
HETATM    3  C16 UNL     1      13.752 -10.422  15.255  1.00  0.00     0.112 C 
ENDROOT
BRANCH   1   4
HETATM    4  C13 UNL     1      14.361  -7.825  18.399  1.00  0.00     0.262 C 
BRANCH   4   5
HETATM    5  O5  UNL     1      15.485  -7.825  19.070  1.00  0.00    -0.366 OA
BRANCH   5   6
HETATM    6  C11 UNL     1      16.021  -6.987  19.912  1.00  0.00     0.092 C 
HETATM    7  C10 UNL     1      15.130  -6.447  20.979  1.00  0.00     0.220 C 
HETATM    8  C9  UNL     1      14.704  -7.394  22.040  1.00  0.00     0.067 C 
HETATM    9  C8  UNL     1      15.685  -8.441  22.466  1.00  0.00     0.124 C 
HETATM   10  C19 UNL     1      16.405  -8.969  21.219  1.00  0.00     0.041 C 
HETATM   11  C17 UNL     1      17.143  -7.745  20.673  1.00  0.00     0.048 C 
HETATM   12  C12 UNL     1      16.722  -5.778  19.298  1.00  0.00     0.048 C 
BRANCH   7  13
HETATM   13  N1  UNL     1      15.810  -5.319  21.675  1.00  0.00    -0.072 N 
ATOM     14  H13 UNL     1      15.612  -4.409  21.261  1.00  0.00     0.274 HD
ATOM     15  H12 UNL     1      15.426  -5.122  22.600  1.00  0.00     0.274 HD
ATOM     16  H11 UNL     1      16.803  -5.551  21.690  1.00  0.00     0.274 HD
ENDBRANCH   7  13
BRANCH   9  17
HETATM   17  O4  UNL     1      16.647  -7.952  23.293  1.00  0.00    -0.375 OA
BRANCH  17  18
HETATM   18  C7  UNL     1      16.294  -7.810  24.636  1.00  0.00     0.182 C 
HETATM   19  C6  UNL     1      16.645  -6.479  25.197  1.00  0.00     0.180 C 
HETATM   20  C5  UNL     1      16.301  -6.352  26.636  1.00  0.00     0.178 C 
HETATM   21  C4  UNL     1      16.117  -7.654  27.333  1.00  0.00     0.159 C 
HETATM   22  C3  UNL     1      17.105  -8.678  26.856  1.00  0.00     0.070 C 
HETATM   23  C20 UNL     1      16.893  -8.974  25.398  1.00  0.00     0.160 C 
BRANCH  19  24
HETATM   24  O3  UNL     1      15.908  -5.495  24.513  1.00  0.00    -0.390 OA
ATOM     25  H3  UNL     1      16.524  -5.011  23.977  1.00  0.00     0.210 HD
ENDBRANCH  19  24
BRANCH  20  26
HETATM   26  O2  UNL     1      17.272  -5.616  27.344  1.00  0.00    -0.390 OA
ATOM     27  H2  UNL     1      17.601  -4.938  26.766  1.00  0.00     0.210 HD
ENDBRANCH  20  26
BRANCH  21  28
HETATM   28  O1  UNL     1      16.314  -7.494  28.704  1.00  0.00    -0.392 OA
ATOM     29  H1  UNL     1      17.169  -7.098  28.824  1.00  0.00     0.210 HD
ENDBRANCH  21  28
BRANCH  22  30
HETATM   30  C2  UNL     1      18.477  -8.248  27.193  1.00  0.00    -0.027 C 
HETATM   31  C1  UNL     1      19.536  -8.514  26.405  1.00  0.00     0.007 C 
ENDBRANCH  22  30
BRANCH  23  32
HETATM   32  O7  UNL     1      15.933 -10.014  25.363  1.00  0.00    -0.392 OA
ATOM     33  H7  UNL     1      16.433 -10.819  25.431  1.00  0.00     0.210 HD
ENDBRANCH  23  32
ENDBRANCH  17  18
ENDBRANCH   9  17
BRANCH  11  34
HETATM   34  C18 UNL     1      18.264  -8.106  19.758  1.00  0.00     0.172 C 
BRANCH  34  35
HETATM   35  O6  UNL     1      17.889  -9.209  19.007  1.00  0.00    -0.400 OA
ATOM     36  H6  UNL     1      18.672  -9.666  18.722  1.00  0.00     0.209 HD
ENDBRANCH  34  35
ENDBRANCH  11  34
ENDBRANCH   5   6
ENDBRANCH   4   5
ENDBRANCH   1   4
TORSDOF 13
ENDMDL
MODEL 2
REMARK VINA RESULT: -6.883688349      5.972      9.552
REMARK  13 active torsions:
REMARK  status: ('A' for Active; 'I' for Inactive)
REMARK    1  A    between atoms: C2_2  and  C3_3 
REMARK    2  A    between atoms: C4_4  and  O1_5 
REMARK    3  A    between atoms: C5_7  and  O2_8 
REMARK    4  A    between atoms: C6_10  and  O3_11 
REMARK    5  A    between atoms: C7_13  and  O4_14 
REMARK    6  A    between atoms: O4_14  and  C8_15 
REMARK    7  A    between atoms: C10_17  and  N1_18 
REMARK    8  A    between atoms: C11_22  and  O5_24 
REMARK    9  A    between atoms: O5_24  and  C13_25 
REMARK   10  A    between atoms: C13_25  and  C14_26 
REMARK   11  A    between atoms: C17_29  and  C18_30 
REMARK   12  A    between atoms: C18_30  and  O6_31 
REMARK   13  A    between atoms: C20_34  and  O7_35 
ROOT
HETATM    1  C14 UNL     1      22.766 -12.042  30.438  1.00  0.00    -0.081 C 
HETATM    2  C15 UNL     1      22.407 -12.900  31.235  1.00  0.00    -0.109 C 
HETATM    3  C16 UNL     1      22.002 -13.902  32.190  1.00  0.00     0.112 C 
ENDROOT
BRANCH   1   4
HETATM    4  C13 UNL     1      23.207 -11.001  29.521  1.00  0.00     0.262 C 
BRANCH   4   5
HETATM    5  O5  UNL     1      22.737  -9.784  29.629  1.00  0.00    -0.366 OA
BRANCH   5   6
HETATM    6  C11 UNL     1      22.377  -8.887  28.756  1.00  0.00     0.092 C 
HETATM    7  C10 UNL     1      21.544  -9.360  27.613  1.00  0.00     0.220 C 
HETATM    8  C9  UNL     1      20.149  -9.764  27.920  1.00  0.00     0.067 C 
HETATM    9  C8  UNL     1      19.430  -9.004  28.990  1.00  0.00     0.124 C 
HETATM   10  C19 UNL     1      20.413  -8.729  30.136  1.00  0.00     0.041 C 
HETATM   11  C17 UNL     1      21.488  -7.848  29.494  1.00  0.00     0.048 C 
HETATM   12  C12 UNL     1      23.503  -8.060  28.141  1.00  0.00     0.048 C 
BRANCH   7  13
HETATM   13  N1  UNL     1      21.450  -8.286  26.584  1.00  0.00    -0.072 N 
ATOM     14  H13 UNL     1      21.414  -7.347  26.980  1.00  0.00     0.274 HD
ATOM     15  H12 UNL     1      22.308  -8.163  26.046  1.00  0.00     0.274 HD
ATOM     16  H11 UNL     1      20.639  -8.514  26.007  1.00  0.00     0.274 HD
ENDBRANCH   7  13
BRANCH   9  17
HETATM   17  O4  UNL     1      18.981  -7.794  28.563  1.00  0.00    -0.375 OA
BRANCH  17  18
HETATM   18  C7  UNL     1      17.600  -7.667  28.405  1.00  0.00     0.182 C 
HETATM   19  C6  UNL     1      16.824  -8.293  29.507  1.00  0.00     0.180 C 
HETATM   20  C5  UNL     1      15.356  -8.187  29.309  1.00  0.00     0.178 C 
HETATM   21  C4  UNL     1      14.951  -7.913  27.904  1.00  0.00     0.159 C 
HETATM   22  C3  UNL     1      15.817  -8.654  26.927  1.00  0.00     0.070 C 
HETATM   23  C20 UNL     1      17.242  -8.189  27.029  1.00  0.00     0.160 C 
BRANCH  19  24
HETATM   24  O3  UNL     1      17.124  -7.621  30.706  1.00  0.00    -0.390 OA
ATOM     25  H3  UNL     1      17.770  -8.147  31.162  1.00  0.00     0.210 HD
ENDBRANCH  19  24
BRANCH  20  26
HETATM   26  O2  UNL     1      14.684  -9.351  29.733  1.00  0.00    -0.390 OA
ATOM     27  H2  UNL     1      15.340  -9.990  29.985  1.00  0.00     0.210 HD
ENDBRANCH  20  26
BRANCH  21  28
HETATM   28  O1  UNL     1      13.637  -8.330  27.695  1.00  0.00    -0.392 OA
ATOM     29  H1  UNL     1      13.468  -9.047  28.294  1.00  0.00     0.210 HD
ENDBRANCH  21  28
BRANCH  22  30
HETATM   30  C2  UNL     1      15.641 -10.110  27.104  1.00  0.00    -0.027 C 
HETATM   31  C1  UNL     1      16.574 -11.005  26.729  1.00  0.00     0.007 C 
ENDBRANCH  22  30
BRANCH  23  32
HETATM   32  O7  UNL     1      17.340  -7.088  26.144  1.00  0.00    -0.392 OA
ATOM     33  H7  UNL     1      18.190  -6.702  26.318  1.00  0.00     0.210 HD
ENDBRANCH  23  32
ENDBRANCH  17  18
ENDBRANCH   9  17
BRANCH  11  34
HETATM   34  C18 UNL     1      22.280  -7.080  30.498  1.00  0.00     0.172 C 
BRANCH  34  35
HETATM   35  O6  UNL     1      21.502  -6.891  31.630  1.00  0.00    -0.400 OA
ATOM     36  H6  UNL     1      21.751  -7.534  32.283  1.00  0.00     0.209 HD
ENDBRANCH  34  35
ENDBRANCH  11  34
ENDBRANCH   5   6
ENDBRANCH   4   5
ENDBRANCH   1   4
TORSDOF 13
ENDMDL
MODEL 3
REMARK VINA RESULT: -6.630323888      1.422      2.702
REMARK  13 active torsions:
REMARK  status: ('A' for Active; 'I' for Inactive)
REMARK    1  A    between atoms: C2_2  and  C3_3 
REMARK    2  A    between atoms: C4_4  and  O1_5 
REMARK    3  A    between atoms: C5_7  and  O2_8 
REMARK    4  A    between atoms: C6_10  and  O3_11 
REMARK    5  A    between atoms: C7_13  and  O4_14 
REMARK    6  A    between atoms: O4_14  and  C8_15 
REMARK    7  A    between atoms: C10_17  and  N1_18 
REMARK    8  A    between atoms: C11_22  and  O5_24 
REMARK    9  A    between atoms: O5_24  and  C13_25 
REMARK   10  A    between atoms: C13_25  and  C14_26 
REMARK   11  A    between atoms: C17_29  and  C18_30 
REMARK   12  A    between atoms: C18_30  and  O6_31 
REMARK   13  A    between atoms: C20_34  and  O7_35 
ROOT
HETATM    1  C14 UNL     1      14.601  -9.068  17.413  1.00  0.00    -0.081 C 
HETATM    2  C15 UNL     1      14.531  -9.809  16.439  1.00  0.00    -0.109 C 
HETATM    3  C16 UNL     1      14.423 -10.681  15.296  1.00  0.00     0.112 C 
ENDROOT
BRANCH   1   4
HETATM    4  C13 UNL     1      14.647  -8.175  18.562  1.00  0.00     0.262 C 
BRANCH   4   5
HETATM    5  O5  UNL     1      15.742  -8.066  19.270  1.00  0.00    -0.366 OA
BRANCH   5   6
HETATM    6  C11 UNL     1      16.191  -7.151  20.082  1.00  0.00     0.092 C 
HETATM    7  C10 UNL     1      15.197  -6.521  20.997  1.00  0.00     0.220 C 
HETATM    8  C9  UNL     1      14.660  -7.368  22.091  1.00  0.00     0.067 C 
HETATM    9  C8  UNL     1      15.588  -8.367  22.711  1.00  0.00     0.124 C 
HETATM   10  C19 UNL     1      16.430  -9.003  21.598  1.00  0.00     0.041 C 
HETATM   11  C17 UNL     1      17.226  -7.830  21.021  1.00  0.00     0.048 C 
HETATM   12  C12 UNL     1      16.957  -5.999  19.436  1.00  0.00     0.048 C 
BRANCH   7  13
HETATM   13  N1  UNL     1      15.806  -5.330  21.654  1.00  0.00    -0.072 N 
ATOM     14  H13 UNL     1      15.404  -5.121  22.568  1.00  0.00     0.274 HD
ATOM     15  H12 UNL     1      16.763  -5.487  21.971  1.00  0.00     0.274 HD
ATOM     16  H11 UNL     1      15.720  -4.562  20.988  1.00  0.00     0.274 HD
ENDBRANCH   7  13
BRANCH   9  17
HETATM   17  O4  UNL     1      16.461  -7.799  23.585  1.00  0.00    -0.375 OA
BRANCH  17  18
HETATM   18  C7  UNL     1      16.106  -7.848  24.934  1.00  0.00     0.182 C 
HETATM   19  C6  UNL     1      15.946  -9.234  25.448  1.00  0.00     0.180 C 
HETATM   20  C5  UNL     1      15.530  -9.273  26.873  1.00  0.00     0.178 C 
HETATM   21  C4  UNL     1      14.925  -8.006  27.364  1.00  0.00     0.159 C 
HETATM   22  C3  UNL     1      14.059  -7.367  26.318  1.00  0.00     0.070 C 
HETATM   23  C20 UNL     1      14.880  -6.978  25.121  1.00  0.00     0.160 C 
BRANCH  19  24
HETATM   24  O3  UNL     1      17.188  -9.888  25.367  1.00  0.00    -0.390 OA
ATOM     25  H3  UNL     1      17.739  -9.366  24.797  1.00  0.00     0.210 HD
ENDBRANCH  19  24
BRANCH  20  26
HETATM   26  O2  UNL     1      14.614 -10.314  27.123  1.00  0.00    -0.390 OA
ATOM     27  H2  UNL     1      14.687 -10.553  28.039  1.00  0.00     0.210 HD
ENDBRANCH  20  26
BRANCH  21  28
HETATM   28  O1  UNL     1      14.119  -8.259  28.474  1.00  0.00    -0.392 OA
ATOM     29  H1  UNL     1      14.658  -8.699  29.122  1.00  0.00     0.210 HD
ENDBRANCH  21  28
BRANCH  22  30
HETATM   30  C2  UNL     1      12.914  -8.248  26.008  1.00  0.00    -0.027 C 
HETATM   31  C1  UNL     1      12.300  -8.245  24.809  1.00  0.00     0.007 C 
ENDBRANCH  22  30
BRANCH  23  32
HETATM   32  O7  UNL     1      15.352  -5.674  25.399  1.00  0.00    -0.392 OA
ATOM     33  H7  UNL     1      15.106  -5.505  26.302  1.00  0.00     0.210 HD
ENDBRANCH  23  32
ENDBRANCH  17  18
ENDBRANCH   9  17
BRANCH  11  34
HETATM   34  C18 UNL     1      18.434  -8.268  20.264  1.00  0.00     0.172 C 
BRANCH  34  35
HETATM   35  O6  UNL     1      18.163  -9.483  19.655  1.00  0.00    -0.400 OA
ATOM     36  H6  UNL     1      17.889  -9.322  18.760  1.00  0.00     0.209 HD
ENDBRANCH  34  35
ENDBRANCH  11  34
ENDBRANCH   5   6
ENDBRANCH   4   5
ENDBRANCH   1   4
TORSDOF 13
ENDMDL
MODEL 4
REMARK VINA RESULT: -6.570294884      1.556      2.056
REMARK  13 active torsions:
REMARK  status: ('A' for Active; 'I' for Inactive)
REMARK    1  A    between atoms: C2_2  and  C3_3 
REMARK    2  A    between atoms: C4_4  and  O1_5 
REMARK    3  A    between atoms: C5_7  and  O2_8 
REMARK    4  A    between atoms: C6_10  and  O3_11 
REMARK    5  A    between atoms: C7_13  and  O4_14 
REMARK    6  A    between atoms: O4_14  and  C8_15 
REMARK    7  A    between atoms: C10_17  and  N1_18 
REMARK    8  A    between atoms: C11_22  and  O5_24 
REMARK    9  A    between atoms: O5_24  and  C13_25 
REMARK   10  A    between atoms: C13_25  and  C14_26 
REMARK   11  A    between atoms: C17_29  and  C18_30 
REMARK   12  A    between atoms: C18_30  and  O6_31 
REMARK   13  A    between atoms: C20_34  and  O7_35 
ROOT
HETATM    1  C14 UNL     1      14.886  -9.265  17.929  1.00  0.00    -0.081 C 
HETATM    2  C15 UNL     1      14.157  -9.182  16.948  1.00  0.00    -0.109 C 
HETATM    3  C16 UNL     1      13.293  -9.110  15.796  1.00  0.00     0.112 C 
ENDROOT
BRANCH   1   4
HETATM    4  C13 UNL     1      15.732  -9.396  19.107  1.00  0.00     0.262 C 
BRANCH   4   5
HETATM    5  O5  UNL     1      16.410  -8.367  19.550  1.00  0.00    -0.366 OA
BRANCH   5   6
HETATM    6  C11 UNL     1      16.067  -7.164  19.914  1.00  0.00     0.092 C 
HETATM    7  C10 UNL     1      14.756  -7.022  20.610  1.00  0.00     0.220 C 
HETATM    8  C9  UNL     1      14.664  -7.570  21.986  1.00  0.00     0.067 C 
HETATM    9  C8  UNL     1      15.884  -7.478  22.849  1.00  0.00     0.124 C 
HETATM   10  C19 UNL     1      17.114  -7.788  21.987  1.00  0.00     0.041 C 
HETATM   11  C17 UNL     1      17.122  -6.670  20.942  1.00  0.00     0.048 C 
HETATM   12  C12 UNL     1      16.076  -6.104  18.815  1.00  0.00     0.048 C 
BRANCH   7  13
HETATM   13  N1  UNL     1      14.398  -5.579  20.712  1.00  0.00    -0.072 N 
ATOM     14  H13 UNL     1      13.725  -5.380  21.451  1.00  0.00     0.274 HD
ATOM     15  H12 UNL     1      15.155  -4.997  21.071  1.00  0.00     0.274 HD
ATOM     16  H11 UNL     1      14.077  -5.299  19.785  1.00  0.00     0.274 HD
ENDBRANCH   7  13
BRANCH   9  17
HETATM   17  O4  UNL     1      16.070  -6.234  23.362  1.00  0.00    -0.375 OA
BRANCH  17  18
HETATM   18  C7  UNL     1      16.361  -6.163  24.726  1.00  0.00     0.182 C 
HETATM   19  C6  UNL     1      17.735  -6.623  25.057  1.00  0.00     0.180 C 
HETATM   20  C5  UNL     1      18.020  -6.581  26.514  1.00  0.00     0.178 C 
HETATM   21  C4  UNL     1      16.803  -6.542  27.369  1.00  0.00     0.159 C 
HETATM   22  C3  UNL     1      15.711  -7.410  26.814  1.00  0.00     0.070 C 
HETATM   23  C20 UNL     1      15.269  -6.904  25.470  1.00  0.00     0.160 C 
BRANCH  19  24
HETATM   24  O3  UNL     1      18.659  -5.764  24.436  1.00  0.00    -0.390 OA
ATOM     25  H3  UNL     1      18.635  -5.959  23.506  1.00  0.00     0.210 HD
ENDBRANCH  19  24
BRANCH  20  26
HETATM   26  O2  UNL     1      18.803  -7.678  26.926  1.00  0.00    -0.390 OA
ATOM     27  H2  UNL     1      18.213  -8.381  27.171  1.00  0.00     0.210 HD
ENDBRANCH  20  26
BRANCH  21  28
HETATM   28  O1  UNL     1      17.102  -7.015  28.647  1.00  0.00    -0.392 OA
ATOM     29  H1  UNL     1      17.833  -6.505  28.975  1.00  0.00     0.210 HD
ENDBRANCH  21  28
BRANCH  22  30
HETATM   30  C2  UNL     1      16.142  -8.823  26.818  1.00  0.00    -0.027 C 
HETATM   31  C1  UNL     1      15.757  -9.701  25.872  1.00  0.00     0.007 C 
ENDBRANCH  22  30
BRANCH  23  32
HETATM   32  O7  UNL     1      14.255  -5.955  25.743  1.00  0.00    -0.392 OA
ATOM     33  H7  UNL     1      14.247  -5.374  24.992  1.00  0.00     0.210 HD
ENDBRANCH  23  32
ENDBRANCH  17  18
ENDBRANCH   9  17
BRANCH  11  34
HETATM   34  C18 UNL     1      18.456  -6.489  20.299  1.00  0.00     0.172 C 
BRANCH  34  35
HETATM   35  O6  UNL     1      19.370  -6.105  21.269  1.00  0.00    -0.400 OA
ATOM     36  H6  UNL     1      20.240  -6.116  20.889  1.00  0.00     0.209 HD
ENDBRANCH  34  35
ENDBRANCH  11  34
ENDBRANCH   5   6
ENDBRANCH   4   5
ENDBRANCH   1   4
TORSDOF 13
ENDMDL
MODEL 5
REMARK VINA RESULT: -6.516585770      1.645      2.869
REMARK  13 active torsions:
REMARK  status: ('A' for Active; 'I' for Inactive)
REMARK    1  A    between atoms: C2_2  and  C3_3 
REMARK    2  A    between atoms: C4_4  and  O1_5 
REMARK    3  A    between atoms: C5_7  and  O2_8 
REMARK    4  A    between atoms: C6_10  and  O3_11 
REMARK    5  A    between atoms: C7_13  and  O4_14 
REMARK    6  A    between atoms: O4_14  and  C8_15 
REMARK    7  A    between atoms: C10_17  and  N1_18 
REMARK    8  A    between atoms: C11_22  and  O5_24 
REMARK    9  A    between atoms: O5_24  and  C13_25 
REMARK   10  A    between atoms: C13_25  and  C14_26 
REMARK   11  A    between atoms: C17_29  and  C18_30 
REMARK   12  A    between atoms: C18_30  and  O6_31 
REMARK   13  A    between atoms: C20_34  and  O7_35 
ROOT
HETATM    1  C14 UNL     1      14.075  -7.885  18.008  1.00  0.00    -0.081 C 
HETATM    2  C15 UNL     1      13.375  -7.213  17.260  1.00  0.00    -0.109 C 
HETATM    3  C16 UNL     1      12.538  -6.415  16.399  1.00  0.00     0.112 C 
ENDROOT
BRANCH   1   4
HETATM    4  C13 UNL     1      14.897  -8.658  18.929  1.00  0.00     0.262 C 
BRANCH   4   5
HETATM    5  O5  UNL     1      16.038  -8.180  19.355  1.00  0.00    -0.366 OA
BRANCH   5   6
HETATM    6  C11 UNL     1      16.350  -7.201  20.156  1.00  0.00     0.092 C 
HETATM    7  C10 UNL     1      15.258  -6.665  21.018  1.00  0.00     0.220 C 
HETATM    8  C9  UNL     1      14.778  -7.542  22.116  1.00  0.00     0.067 C 
HETATM    9  C8  UNL     1      15.788  -8.413  22.795  1.00  0.00     0.124 C 
HETATM   10  C19 UNL     1      16.738  -8.977  21.731  1.00  0.00     0.041 C 
HETATM   11  C17 UNL     1      17.418  -7.735  21.150  1.00  0.00     0.048 C 
HETATM   12  C12 UNL     1      17.005  -5.986  19.505  1.00  0.00     0.048 C 
BRANCH   7  13
HETATM   13  N1  UNL     1      15.704  -5.397  21.661  1.00  0.00    -0.072 N 
ATOM     14  H13 UNL     1      15.244  -5.211  22.552  1.00  0.00     0.274 HD
ATOM     15  H12 UNL     1      16.658  -5.438  22.019  1.00  0.00     0.274 HD
ATOM     16  H11 UNL     1      15.561  -4.661  20.970  1.00  0.00     0.274 HD
ENDBRANCH   7  13
BRANCH   9  17
HETATM   17  O4  UNL     1      16.558  -7.729  23.683  1.00  0.00    -0.375 OA
BRANCH  17  18
HETATM   18  C7  UNL     1      16.164  -7.791  25.020  1.00  0.00     0.182 C 
HETATM   19  C6  UNL     1      16.047  -9.181  25.534  1.00  0.00     0.180 C 
HETATM   20  C5  UNL     1      15.589  -9.235  26.945  1.00  0.00     0.178 C 
HETATM   21  C4  UNL     1      14.916  -7.994  27.414  1.00  0.00     0.159 C 
HETATM   22  C3  UNL     1      14.057  -7.393  26.339  1.00  0.00     0.070 C 
HETATM   23  C20 UNL     1      14.897  -6.973  25.168  1.00  0.00     0.160 C 
BRANCH  19  24
HETATM   24  O3  UNL     1      17.316  -9.783  25.493  1.00  0.00    -0.390 OA
ATOM     25  H3  UNL     1      17.232 -10.569  24.966  1.00  0.00     0.210 HD
ENDBRANCH  19  24
BRANCH  20  26
HETATM   26  O2  UNL     1      14.709 -10.314  27.169  1.00  0.00    -0.390 OA
ATOM     27  H2  UNL     1      14.517 -10.344  28.099  1.00  0.00     0.210 HD
ENDBRANCH  20  26
BRANCH  21  28
HETATM   28  O1  UNL     1      14.088  -8.279  28.499  1.00  0.00    -0.392 OA
ATOM     29  H1  UNL     1      14.151  -9.212  28.667  1.00  0.00     0.210 HD
ENDBRANCH  21  28
BRANCH  22  30
HETATM   30  C2  UNL     1      12.960  -8.322  25.996  1.00  0.00    -0.027 C 
HETATM   31  C1  UNL     1      12.371  -8.333  24.786  1.00  0.00     0.007 C 
ENDBRANCH  22  30
BRANCH  23  32
HETATM   32  O7  UNL     1      15.306  -5.649  25.457  1.00  0.00    -0.392 OA
ATOM     33  H7  UNL     1      15.000  -5.127  24.724  1.00  0.00     0.210 HD
ENDBRANCH  23  32
ENDBRANCH  17  18
ENDBRANCH   9  17
BRANCH  11  34
HETATM   34  C18 UNL     1      18.696  -8.051  20.448  1.00  0.00     0.172 C 
BRANCH  34  35
HETATM   35  O6  UNL     1      18.607  -9.326  19.912  1.00  0.00    -0.400 OA
ATOM     36  H6  UNL     1      18.329  -9.259  19.006  1.00  0.00     0.209 HD
ENDBRANCH  34  35
ENDBRANCH  11  34
ENDBRANCH   5   6
ENDBRANCH   4   5
ENDBRANCH   1   4
TORSDOF 13
ENDMDL
