MODEL 1
REMARK VINA RESULT: -6.397458802      0.000      0.000
REMARK  5 active torsions:
REMARK  status: ('A' for Active; 'I' for Inactive)
REMARK    1  A    between atoms: C1_2  and  C2_4 
REMARK    2  A    between atoms: C2_4  and  N2_5 
REMARK    3  A    between atoms: C2_4  and  C3_9 
REMARK    4  A    between atoms: C3_9  and  N3_10 
REMARK       I    between atoms: N3_10  and  C4_12 
REMARK       I    between atoms: C4_12  and  N4_14 
REMARK    5  A    between atoms: N4_14  and  C5_16 
ROOT
HETATM    1  N3  UNL     1      33.513  32.231  -2.223  1.00  0.00    -0.340 N 
ATOM      2  H3  UNL     1      32.977  33.022  -1.866  1.00  0.00     0.164 HD
HETATM    3  C4  UNL     1      34.285  31.470  -1.329  1.00  0.00     0.334 C 
HETATM    4  O2  UNL     1      34.939  30.505  -1.769  1.00  0.00    -0.247 OA
HETATM    5  N4  UNL     1      34.303  31.812   0.028  1.00  0.00    -0.140 N 
ATOM      6  H4  UNL     1      33.416  32.086   0.451  1.00  0.00     0.189 HD
ENDROOT
BRANCH   1   7
HETATM    7  C3  UNL     1      33.456  31.919  -3.660  1.00  0.00     0.166 C 
BRANCH   7   8
HETATM    8  C2  UNL     1      33.906  33.160  -4.422  1.00  0.00     0.289 C 
BRANCH   8   9
HETATM    9  C1  UNL     1      34.624  34.103  -3.532  1.00  0.00     0.263 C 
HETATM   10  N1  UNL     1      36.012  33.932  -3.379  1.00  0.00    -0.060 NA
HETATM   11  O1  UNL     1      34.039  35.037  -2.918  1.00  0.00    -0.275 OA
ENDBRANCH   8   9
BRANCH   8  12
HETATM   12  N2  UNL     1      32.796  33.755  -5.024  1.00  0.00    -0.065 N 
ATOM     13  H23 UNL     1      32.161  34.144  -4.328  1.00  0.00     0.275 HD
ATOM     14  H22 UNL     1      33.053  34.616  -5.507  1.00  0.00     0.275 HD
ATOM     15  H21 UNL     1      32.311  33.110  -5.649  1.00  0.00     0.275 HD
ENDBRANCH   8  12
ENDBRANCH   7   8
ENDBRANCH   1   7
BRANCH   5  16
HETATM   16  C5  UNL     1      35.336  31.811   0.786  1.00  0.00     0.701 A 
HETATM   17  N5  UNL     1      36.130  30.749   1.017  1.00  0.00    -0.185 N 
HETATM   18  C6  UNL     1      37.109  31.108   1.853  1.00  0.00     0.215 A 
ATOM     19  H5  UNL     1      36.004  29.819   0.618  1.00  0.00     0.185 HD
HETATM   20  N6  UNL     1      36.935  32.414   2.156  1.00  0.00    -0.281 N 
HETATM   21  N7  UNL     1      35.847  32.819   1.493  1.00  0.00    -0.131 N 
ATOM     22  H6  UNL     1      37.519  32.979   2.771  1.00  0.00     0.188 HD
ATOM     23  H7  UNL     1      35.464  33.763   1.524  1.00  0.00     0.205 HD
ENDBRANCH   5  16
TORSDOF 5
ENDMDL
MODEL 2
REMARK VINA RESULT: -6.341875935      3.770      4.881
REMARK  5 active torsions:
REMARK  status: ('A' for Active; 'I' for Inactive)
REMARK    1  A    between atoms: C1_2  and  C2_4 
REMARK    2  A    between atoms: C2_4  and  N2_5 
REMARK    3  A    between atoms: C2_4  and  C3_9 
REMARK    4  A    between atoms: C3_9  and  N3_10 
REMARK       I    between atoms: N3_10  and  C4_12 
REMARK       I    between atoms: C4_12  and  N4_14 
REMARK    5  A    between atoms: N4_14  and  C5_16 
ROOT
HETATM    1  N3  UNL     1      36.158  30.183  -3.872  1.00  0.00    -0.340 N 
ATOM      2  H3  UNL     1      35.643  29.303  -3.861  1.00  0.00     0.164 HD
HETATM    3  C4  UNL     1      36.143  30.997  -2.726  1.00  0.00     0.334 C 
HETATM    4  O2  UNL     1      36.774  32.071  -2.743  1.00  0.00    -0.247 OA
HETATM    5  N4  UNL     1      35.424  30.584  -1.598  1.00  0.00    -0.140 N 
ATOM      6  H4  UNL     1      35.478  29.597  -1.346  1.00  0.00     0.189 HD
ENDROOT
BRANCH   1   7
HETATM    7  C3  UNL     1      36.896  30.565  -5.087  1.00  0.00     0.166 C 
BRANCH   7   8
HETATM    8  C2  UNL     1      37.814  29.405  -5.455  1.00  0.00     0.289 C 
BRANCH   8   9
HETATM    9  C1  UNL     1      37.042  28.155  -5.651  1.00  0.00     0.263 C 
HETATM   10  N1  UNL     1      35.766  28.257  -6.236  1.00  0.00    -0.060 NA
HETATM   11  O1  UNL     1      37.487  27.023  -5.317  1.00  0.00    -0.275 OA
ENDBRANCH   8   9
BRANCH   8  12
HETATM   12  N2  UNL     1      38.793  29.265  -4.471  1.00  0.00    -0.065 N 
ATOM     13  H23 UNL     1      38.488  29.670  -3.586  1.00  0.00     0.275 HD
ATOM     14  H22 UNL     1      38.888  28.292  -4.179  1.00  0.00     0.275 HD
ATOM     15  H21 UNL     1      39.689  29.653  -4.767  1.00  0.00     0.275 HD
ENDBRANCH   8  12
ENDBRANCH   7   8
ENDBRANCH   1   7
BRANCH   5  16
HETATM   16  C5  UNL     1      34.703  31.338  -0.855  1.00  0.00     0.701 A 
HETATM   17  N5  UNL     1      33.900  32.325  -1.295  1.00  0.00    -0.185 N 
HETATM   18  C6  UNL     1      33.301  32.901  -0.248  1.00  0.00     0.215 A 
ATOM     19  H5  UNL     1      33.769  32.590  -2.271  1.00  0.00     0.185 HD
HETATM   20  N6  UNL     1      33.729  32.274   0.869  1.00  0.00    -0.281 N 
HETATM   21  N7  UNL     1      34.583  31.325   0.472  1.00  0.00    -0.131 N 
ATOM     22  H6  UNL     1      33.454  32.483   1.829  1.00  0.00     0.188 HD
ATOM     23  H7  UNL     1      35.073  30.683   1.096  1.00  0.00     0.205 HD
ENDBRANCH   5  16
TORSDOF 5
ENDMDL
MODEL 3
REMARK VINA RESULT: -6.279546633      1.720      2.010
REMARK  5 active torsions:
REMARK  status: ('A' for Active; 'I' for Inactive)
REMARK    1  A    between atoms: C1_2  and  C2_4 
REMARK    2  A    between atoms: C2_4  and  N2_5 
REMARK    3  A    between atoms: C2_4  and  C3_9 
REMARK    4  A    between atoms: C3_9  and  N3_10 
REMARK       I    between atoms: N3_10  and  C4_12 
REMARK       I    between atoms: C4_12  and  N4_14 
REMARK    5  A    between atoms: N4_14  and  C5_16 
ROOT
HETATM    1  N3  UNL     1      34.811  34.135  -2.076  1.00  0.00    -0.340 N 
ATOM      2  H3  UNL     1      35.461  34.907  -1.922  1.00  0.00     0.164 HD
HETATM    3  C4  UNL     1      34.628  33.183  -1.059  1.00  0.00     0.334 C 
HETATM    4  O2  UNL     1      33.832  32.243  -1.252  1.00  0.00    -0.247 OA
HETATM    5  N4  UNL     1      35.338  33.312   0.140  1.00  0.00    -0.140 N 
ATOM      6  H4  UNL     1      35.430  34.250   0.529  1.00  0.00     0.189 HD
ENDROOT
BRANCH   1   7
HETATM    7  C3  UNL     1      34.092  34.052  -3.358  1.00  0.00     0.166 C 
BRANCH   7   8
HETATM    8  C2  UNL     1      35.032  34.549  -4.450  1.00  0.00     0.289 C 
BRANCH   8   9
HETATM    9  C1  UNL     1      36.423  34.658  -3.950  1.00  0.00     0.263 C 
HETATM   10  N1  UNL     1      37.163  33.469  -3.809  1.00  0.00    -0.060 NA
HETATM   11  O1  UNL     1      36.954  35.763  -3.652  1.00  0.00    -0.275 OA
ENDBRANCH   8   9
BRANCH   8  12
HETATM   12  N2  UNL     1      34.558  35.767  -4.942  1.00  0.00    -0.065 N 
ATOM     13  H23 UNL     1      33.648  35.997  -4.545  1.00  0.00     0.275 HD
ATOM     14  H22 UNL     1      35.098  36.550  -4.573  1.00  0.00     0.275 HD
ATOM     15  H21 UNL     1      34.533  35.782  -5.961  1.00  0.00     0.275 HD
ENDBRANCH   8  12
ENDBRANCH   7   8
ENDBRANCH   1   7
BRANCH   5  16
HETATM   16  C5  UNL     1      35.883  32.353   0.792  1.00  0.00     0.701 A 
HETATM   17  N5  UNL     1      36.528  32.478   1.965  1.00  0.00    -0.185 N 
HETATM   18  C6  UNL     1      36.968  31.277   2.355  1.00  0.00     0.215 A 
ATOM     19  H5  UNL     1      36.661  33.351   2.477  1.00  0.00     0.185 HD
HETATM   20  N6  UNL     1      36.596  30.379   1.416  1.00  0.00    -0.281 N 
HETATM   21  N7  UNL     1      35.937  31.059   0.474  1.00  0.00    -0.131 N 
ATOM     22  H6  UNL     1      36.783  29.376   1.426  1.00  0.00     0.188 HD
ATOM     23  H7  UNL     1      35.532  30.648  -0.367  1.00  0.00     0.205 HD
ENDBRANCH   5  16
TORSDOF 5
ENDMDL
MODEL 4
REMARK VINA RESULT: -6.156009163      1.470      1.677
REMARK  5 active torsions:
REMARK  status: ('A' for Active; 'I' for Inactive)
REMARK    1  A    between atoms: C1_2  and  C2_4 
REMARK    2  A    between atoms: C2_4  and  N2_5 
REMARK    3  A    between atoms: C2_4  and  C3_9 
REMARK    4  A    between atoms: C3_9  and  N3_10 
REMARK       I    between atoms: N3_10  and  C4_12 
REMARK       I    between atoms: C4_12  and  N4_14 
REMARK    5  A    between atoms: N4_14  and  C5_16 
ROOT
HETATM    1  N3  UNL     1      34.698  31.603  -3.392  1.00  0.00    -0.340 N 
ATOM      2  H3  UNL     1      33.725  31.399  -3.163  1.00  0.00     0.164 HD
HETATM    3  C4  UNL     1      35.709  31.201  -2.502  1.00  0.00     0.334 C 
HETATM    4  O2  UNL     1      36.896  31.453  -2.787  1.00  0.00    -0.247 OA
HETATM    5  N4  UNL     1      35.361  30.531  -1.324  1.00  0.00    -0.140 N 
ATOM      6  H4  UNL     1      34.627  29.826  -1.388  1.00  0.00     0.189 HD
ENDROOT
BRANCH   1   7
HETATM    7  C3  UNL     1      35.003  32.311  -4.646  1.00  0.00     0.166 C 
BRANCH   7   8
HETATM    8  C2  UNL     1      34.260  33.641  -4.620  1.00  0.00     0.289 C 
BRANCH   8   9
HETATM    9  C1  UNL     1      34.751  34.506  -3.521  1.00  0.00     0.263 C 
HETATM   10  N1  UNL     1      35.987  35.155  -3.698  1.00  0.00    -0.060 NA
HETATM   11  O1  UNL     1      34.105  34.675  -2.450  1.00  0.00    -0.275 OA
ENDBRANCH   8   9
BRANCH   8  12
HETATM   12  N2  UNL     1      32.890  33.398  -4.521  1.00  0.00    -0.065 N 
ATOM     13  H23 UNL     1      32.703  32.523  -4.033  1.00  0.00     0.275 HD
ATOM     14  H22 UNL     1      32.445  34.044  -3.868  1.00  0.00     0.275 HD
ATOM     15  H21 UNL     1      32.432  33.420  -5.432  1.00  0.00     0.275 HD
ENDBRANCH   8  12
ENDBRANCH   7   8
ENDBRANCH   1   7
BRANCH   5  16
HETATM   16  C5  UNL     1      35.884  30.728  -0.171  1.00  0.00     0.701 A 
HETATM   17  N5  UNL     1      36.108  31.931   0.387  1.00  0.00    -0.185 N 
HETATM   18  C6  UNL     1      36.664  31.760   1.591  1.00  0.00     0.215 A 
ATOM     19  H5  UNL     1      35.887  32.831  -0.039  1.00  0.00     0.185 HD
HETATM   20  N6  UNL     1      36.796  30.432   1.798  1.00  0.00    -0.281 N 
HETATM   21  N7  UNL     1      36.314  29.824   0.710  1.00  0.00    -0.131 N 
ATOM     22  H6  UNL     1      37.187  29.981   2.625  1.00  0.00     0.188 HD
ATOM     23  H7  UNL     1      36.279  28.814   0.574  1.00  0.00     0.205 HD
ENDBRANCH   5  16
TORSDOF 5
ENDMDL
MODEL 5
REMARK VINA RESULT: -6.138783308      3.565      4.522
REMARK  5 active torsions:
REMARK  status: ('A' for Active; 'I' for Inactive)
REMARK    1  A    between atoms: C1_2  and  C2_4 
REMARK    2  A    between atoms: C2_4  and  N2_5 
REMARK    3  A    between atoms: C2_4  and  C3_9 
REMARK    4  A    between atoms: C3_9  and  N3_10 
REMARK       I    between atoms: N3_10  and  C4_12 
REMARK       I    between atoms: C4_12  and  N4_14 
REMARK    5  A    between atoms: N4_14  and  C5_16 
ROOT
HETATM    1  N3  UNL     1      36.594  30.649  -3.327  1.00  0.00    -0.340 N 
ATOM      2  H3  UNL     1      36.344  29.708  -3.024  1.00  0.00     0.164 HD
HETATM    3  C4  UNL     1      36.638  31.684  -2.377  1.00  0.00     0.334 C 
HETATM    4  O2  UNL     1      36.944  32.832  -2.753  1.00  0.00    -0.247 OA
HETATM    5  N4  UNL     1      36.339  31.403  -1.039  1.00  0.00    -0.140 N 
ATOM      6  H4  UNL     1      36.707  30.534  -0.652  1.00  0.00     0.189 HD
ENDROOT
BRANCH   1   7
HETATM    7  C3  UNL     1      36.898  30.885  -4.748  1.00  0.00     0.166 C 
BRANCH   7   8
HETATM    8  C2  UNL     1      37.653  29.668  -5.268  1.00  0.00     0.289 C 
BRANCH   8   9
HETATM    9  C1  UNL     1      36.742  28.514  -5.455  1.00  0.00     0.263 C 
HETATM   10  N1  UNL     1      35.366  28.778  -5.581  1.00  0.00    -0.060 NA
HETATM   11  O1  UNL     1      37.156  27.323  -5.504  1.00  0.00    -0.275 OA
ENDBRANCH   8   9
BRANCH   8  12
HETATM   12  N2  UNL     1      38.700  29.370  -4.395  1.00  0.00    -0.065 N 
ATOM     13  H23 UNL     1      39.437  30.073  -4.447  1.00  0.00     0.275 HD
ATOM     14  H22 UNL     1      38.420  29.503  -3.422  1.00  0.00     0.275 HD
ATOM     15  H21 UNL     1      39.070  28.432  -4.549  1.00  0.00     0.275 HD
ENDBRANCH   8  12
ENDBRANCH   7   8
ENDBRANCH   1   7
BRANCH   5  16
HETATM   16  C5  UNL     1      35.642  32.142  -0.259  1.00  0.00     0.701 A 
HETATM   17  N5  UNL     1      34.436  31.822   0.244  1.00  0.00    -0.185 N 
HETATM   18  C6  UNL     1      34.003  32.824   1.017  1.00  0.00     0.215 A 
ATOM     19  H5  UNL     1      33.932  30.954   0.065  1.00  0.00     0.185 HD
HETATM   20  N6  UNL     1      34.947  33.791   1.004  1.00  0.00    -0.281 N 
HETATM   21  N7  UNL     1      35.935  33.352   0.219  1.00  0.00    -0.131 N 
ATOM     22  H6  UNL     1      34.911  34.683   1.497  1.00  0.00     0.188 HD
ATOM     23  H7  UNL     1      36.791  33.868   0.015  1.00  0.00     0.205 HD
ENDBRANCH   5  16
TORSDOF 5
ENDMDL
