MODEL 1
REMARK VINA RESULT: -6.824669484      0.000      0.000
REMARK  4 active torsions:
REMARK  status: ('A' for Active; 'I' for Inactive)
REMARK    1  A    between atoms: C3_3  and  N1_4 
REMARK       I    between atoms: N1_4  and  C4_6 
REMARK       I    between atoms: C4_6  and  N2_8 
REMARK    2  A    between atoms: N2_8  and  N3_10 
REMARK       I    between atoms: N3_10  and  C5_12 
REMARK    3  A    between atoms: N5_14  and  N6_16 
REMARK    4  A    between atoms: C6_18  and  C7_19 
ROOT
HETATM    1  C1  UNL     1      37.855  37.190  -4.221  1.00  0.00     0.014 C 
HETATM    2  C2  UNL     1      37.514  36.041  -4.027  1.00  0.00    -0.098 C 
HETATM    3  C3  UNL     1      37.112  34.656  -3.775  1.00  0.00     0.218 C 
ENDROOT
BRANCH   3   4
HETATM    4  N1  UNL     1      35.756  34.643  -3.259  1.00  0.00    -0.331 N 
HETATM    5  C4  UNL     1      35.363  33.701  -2.265  1.00  0.00     0.335 C 
HETATM    6  O1  UNL     1      36.188  32.861  -1.813  1.00  0.00    -0.246 OA
HETATM    7  N2  UNL     1      34.046  33.673  -1.751  1.00  0.00    -0.249 N 
ATOM      8  H2  UNL     1      33.354  34.339  -2.095  1.00  0.00     0.192 HD
ATOM      9  H1  UNL     1      35.075  35.316  -3.613  1.00  0.00     0.165 HD
BRANCH   7  10
HETATM   10  N3  UNL     1      33.685  32.742  -0.778  1.00  0.00    -0.268 N 
HETATM   11  C5  UNL     1      34.107  32.860   0.571  1.00  0.00     0.222 C 
HETATM   12  N4  UNL     1      33.725  33.979   1.358  1.00  0.00    -0.061 NA
HETATM   13  N5  UNL     1      34.844  31.949   1.098  1.00  0.00    -0.273 N 
ATOM     14  H5  UNL     1      35.152  32.026   2.067  1.00  0.00     0.189 HD
ATOM     15  H3  UNL     1      33.099  31.951  -1.046  1.00  0.00     0.190 HD
BRANCH  13  16
HETATM   16  N6  UNL     1      35.212  30.858   0.324  1.00  0.00    -0.305 N 
HETATM   17  C6  UNL     1      36.319  30.229   0.378  1.00  0.00     0.177 C 
ATOM     18  H6  UNL     1      34.529  30.526  -0.357  1.00  0.00     0.186 HD
BRANCH  17  19
HETATM   19  C7  UNL     1      37.341  30.640   1.321  1.00  0.00     0.271 C 
HETATM   20  N7  UNL     1      37.031  31.214   2.565  1.00  0.00    -0.057 NA
HETATM   21  O2  UNL     1      38.558  30.464   0.980  1.00  0.00    -0.270 OA
ENDBRANCH  17  19
ENDBRANCH  13  16
ENDBRANCH   7  10
ENDBRANCH   3   4
TORSDOF 4
ENDMDL
MODEL 2
REMARK VINA RESULT: -6.798975167      3.917      4.430
REMARK  4 active torsions:
REMARK  status: ('A' for Active; 'I' for Inactive)
REMARK    1  A    between atoms: C3_3  and  N1_4 
REMARK       I    between atoms: N1_4  and  C4_6 
REMARK       I    between atoms: C4_6  and  N2_8 
REMARK    2  A    between atoms: N2_8  and  N3_10 
REMARK       I    between atoms: N3_10  and  C5_12 
REMARK    3  A    between atoms: N5_14  and  N6_16 
REMARK    4  A    between atoms: C6_18  and  C7_19 
ROOT
HETATM    1  C1  UNL     1      40.143  28.944  -6.972  1.00  0.00     0.014 C 
HETATM    2  C2  UNL     1      38.972  29.262  -6.939  1.00  0.00    -0.098 C 
HETATM    3  C3  UNL     1      37.555  29.627  -6.890  1.00  0.00     0.218 C 
ENDROOT
BRANCH   3   4
HETATM    4  N1  UNL     1      37.309  30.414  -5.695  1.00  0.00    -0.331 N 
HETATM    5  C4  UNL     1      36.479  29.912  -4.651  1.00  0.00     0.335 C 
HETATM    6  O1  UNL     1      35.943  28.774  -4.746  1.00  0.00    -0.246 OA
HETATM    7  N2  UNL     1      36.228  30.664  -3.480  1.00  0.00    -0.249 N 
ATOM      8  H2  UNL     1      36.647  31.587  -3.372  1.00  0.00     0.192 HD
ATOM      9  H1  UNL     1      37.735  31.336  -5.602  1.00  0.00     0.165 HD
BRANCH   7  10
HETATM   10  N3  UNL     1      35.412  30.153  -2.471  1.00  0.00    -0.268 N 
HETATM   11  C5  UNL     1      34.705  30.995  -1.574  1.00  0.00     0.222 C 
HETATM   12  N4  UNL     1      33.720  31.901  -2.050  1.00  0.00    -0.061 NA
HETATM   13  N5  UNL     1      34.952  30.946  -0.315  1.00  0.00    -0.273 N 
ATOM     14  H5  UNL     1      34.449  31.549   0.337  1.00  0.00     0.189 HD
ATOM     15  H3  UNL     1      35.320  29.141  -2.376  1.00  0.00     0.190 HD
BRANCH  13  16
HETATM   16  N6  UNL     1      35.914  30.058   0.143  1.00  0.00    -0.305 N 
HETATM   17  C6  UNL     1      36.732  30.253   1.100  1.00  0.00     0.177 C 
ATOM     18  H6  UNL     1      35.973  29.159  -0.335  1.00  0.00     0.186 HD
BRANCH  17  19
HETATM   19  C7  UNL     1      36.710  31.506   1.828  1.00  0.00     0.271 C 
HETATM   20  N7  UNL     1      35.573  32.332   1.874  1.00  0.00    -0.057 NA
HETATM   21  O2  UNL     1      37.776  31.849   2.440  1.00  0.00    -0.270 OA
ENDBRANCH  17  19
ENDBRANCH  13  16
ENDBRANCH   7  10
ENDBRANCH   3   4
TORSDOF 4
ENDMDL
MODEL 3
REMARK VINA RESULT: -6.611002116      0.890      1.365
REMARK  4 active torsions:
REMARK  status: ('A' for Active; 'I' for Inactive)
REMARK    1  A    between atoms: C3_3  and  N1_4 
REMARK       I    between atoms: N1_4  and  C4_6 
REMARK       I    between atoms: C4_6  and  N2_8 
REMARK    2  A    between atoms: N2_8  and  N3_10 
REMARK       I    between atoms: N3_10  and  C5_12 
REMARK    3  A    between atoms: N5_14  and  N6_16 
REMARK    4  A    between atoms: C6_18  and  C7_19 
ROOT
HETATM    1  C1  UNL     1      37.261  33.028  -6.118  1.00  0.00     0.014 C 
HETATM    2  C2  UNL     1      37.439  33.635  -5.082  1.00  0.00    -0.098 C 
HETATM    3  C3  UNL     1      37.653  34.384  -3.842  1.00  0.00     0.218 C 
ENDROOT
BRANCH   3   4
HETATM    4  N1  UNL     1      36.369  34.650  -3.221  1.00  0.00    -0.331 N 
HETATM    5  C4  UNL     1      35.776  33.700  -2.339  1.00  0.00     0.335 C 
HETATM    6  O1  UNL     1      36.357  32.611  -2.082  1.00  0.00    -0.246 OA
HETATM    7  N2  UNL     1      34.525  33.941  -1.725  1.00  0.00    -0.249 N 
ATOM      8  H2  UNL     1      34.029  34.813  -1.911  1.00  0.00     0.192 HD
ATOM      9  H1  UNL     1      35.885  35.526  -3.418  1.00  0.00     0.165 HD
BRANCH   7  10
HETATM   10  N3  UNL     1      33.964  32.997  -0.866  1.00  0.00    -0.268 N 
HETATM   11  C5  UNL     1      34.227  32.997   0.528  1.00  0.00     0.222 C 
HETATM   12  N4  UNL     1      33.855  34.103   1.339  1.00  0.00    -0.061 NA
HETATM   13  N5  UNL     1      34.808  31.990   1.075  1.00  0.00    -0.273 N 
ATOM     14  H5  UNL     1      35.001  31.983   2.077  1.00  0.00     0.189 HD
ATOM     15  H3  UNL     1      33.346  32.284  -1.252  1.00  0.00     0.190 HD
BRANCH  13  16
HETATM   16  N6  UNL     1      35.167  30.914   0.277  1.00  0.00    -0.305 N 
HETATM   17  C6  UNL     1      36.262  30.265   0.328  1.00  0.00     0.177 C 
ATOM     18  H6  UNL     1      34.487  30.611  -0.420  1.00  0.00     0.186 HD
BRANCH  17  19
HETATM   19  C7  UNL     1      37.280  30.634   1.293  1.00  0.00     0.271 C 
HETATM   20  N7  UNL     1      36.965  31.187   2.546  1.00  0.00    -0.057 NA
HETATM   21  O2  UNL     1      38.498  30.441   0.965  1.00  0.00    -0.270 OA
ENDBRANCH  17  19
ENDBRANCH  13  16
ENDBRANCH   7  10
ENDBRANCH   3   4
TORSDOF 4
ENDMDL
MODEL 4
REMARK VINA RESULT: -6.415607703      4.942      6.584
REMARK  4 active torsions:
REMARK  status: ('A' for Active; 'I' for Inactive)
REMARK    1  A    between atoms: C3_3  and  N1_4 
REMARK       I    between atoms: N1_4  and  C4_6 
REMARK       I    between atoms: C4_6  and  N2_8 
REMARK    2  A    between atoms: N2_8  and  N3_10 
REMARK       I    between atoms: N3_10  and  C5_12 
REMARK    3  A    between atoms: N5_14  and  N6_16 
REMARK    4  A    between atoms: C6_18  and  C7_19 
ROOT
HETATM    1  C1  UNL     1      33.736  33.976   0.993  1.00  0.00     0.014 C 
HETATM    2  C2  UNL     1      34.560  33.084   0.943  1.00  0.00    -0.098 C 
HETATM    3  C3  UNL     1      35.542  32.000   0.897  1.00  0.00     0.218 C 
ENDROOT
BRANCH   3   4
HETATM    4  N1  UNL     1      35.168  31.065  -0.148  1.00  0.00    -0.331 N 
HETATM    5  C4  UNL     1      35.762  31.141  -1.441  1.00  0.00     0.335 C 
HETATM    6  O1  UNL     1      36.626  32.023  -1.701  1.00  0.00    -0.246 OA
HETATM    7  N2  UNL     1      35.410  30.239  -2.472  1.00  0.00    -0.249 N 
ATOM      8  H2  UNL     1      34.715  29.514  -2.294  1.00  0.00     0.192 HD
ATOM      9  H1  UNL     1      34.471  30.346   0.045  1.00  0.00     0.165 HD
BRANCH   7  10
HETATM   10  N3  UNL     1      36.004  30.334  -3.729  1.00  0.00    -0.268 N 
HETATM   11  C5  UNL     1      35.848  29.324  -4.714  1.00  0.00     0.222 C 
HETATM   12  N4  UNL     1      34.564  29.008  -5.234  1.00  0.00    -0.061 NA
HETATM   13  N5  UNL     1      36.872  28.682  -5.148  1.00  0.00    -0.273 N 
ATOM     14  H5  UNL     1      36.768  27.955  -5.856  1.00  0.00     0.189 HD
ATOM     15  H3  UNL     1      36.570  31.154  -3.948  1.00  0.00     0.190 HD
BRANCH  13  16
HETATM   16  N6  UNL     1      38.122  28.997  -4.636  1.00  0.00    -0.305 N 
HETATM   17  C6  UNL     1      39.239  28.884  -5.240  1.00  0.00     0.177 C 
ATOM     18  H6  UNL     1      38.151  29.356  -3.682  1.00  0.00     0.186 HD
BRANCH  17  19
HETATM   19  C7  UNL     1      39.280  28.382  -6.599  1.00  0.00     0.271 C 
HETATM   20  N7  UNL     1      38.564  28.985  -7.647  1.00  0.00    -0.057 NA
HETATM   21  O2  UNL     1      40.001  27.352  -6.823  1.00  0.00    -0.270 OA
ENDBRANCH  17  19
ENDBRANCH  13  16
ENDBRANCH   7  10
ENDBRANCH   3   4
TORSDOF 4
ENDMDL
MODEL 5
REMARK VINA RESULT: -6.386523632      4.970      6.707
REMARK  4 active torsions:
REMARK  status: ('A' for Active; 'I' for Inactive)
REMARK    1  A    between atoms: C3_3  and  N1_4 
REMARK       I    between atoms: N1_4  and  C4_6 
REMARK       I    between atoms: C4_6  and  N2_8 
REMARK    2  A    between atoms: N2_8  and  N3_10 
REMARK       I    between atoms: N3_10  and  C5_12 
REMARK    3  A    between atoms: N5_14  and  N6_16 
REMARK    4  A    between atoms: C6_18  and  C7_19 
ROOT
HETATM    1  C1  UNL     1      37.088  31.659   2.256  1.00  0.00     0.014 C 
HETATM    2  C2  UNL     1      36.130  31.896   1.550  1.00  0.00    -0.098 C 
HETATM    3  C3  UNL     1      34.986  32.194   0.685  1.00  0.00     0.218 C 
ENDROOT
BRANCH   3   4
HETATM    4  N1  UNL     1      34.835  31.126  -0.285  1.00  0.00    -0.331 N 
HETATM    5  C4  UNL     1      35.464  31.206  -1.562  1.00  0.00     0.335 C 
HETATM    6  O1  UNL     1      36.165  32.208  -1.871  1.00  0.00    -0.246 OA
HETATM    7  N2  UNL     1      35.328  30.176  -2.520  1.00  0.00    -0.249 N 
ATOM      8  H2  UNL     1      34.768  29.352  -2.301  1.00  0.00     0.192 HD
ATOM      9  H1  UNL     1      34.272  30.308  -0.051  1.00  0.00     0.165 HD
BRANCH   7  10
HETATM   10  N3  UNL     1      35.952  30.277  -3.763  1.00  0.00    -0.268 N 
HETATM   11  C5  UNL     1      35.812  29.278  -4.760  1.00  0.00     0.222 C 
HETATM   12  N4  UNL     1      34.539  28.974  -5.313  1.00  0.00    -0.061 NA
HETATM   13  N5  UNL     1      36.842  28.633  -5.176  1.00  0.00    -0.273 N 
ATOM     14  H5  UNL     1      36.750  27.912  -5.892  1.00  0.00     0.189 HD
ATOM     15  H3  UNL     1      36.528  31.095  -3.961  1.00  0.00     0.190 HD
BRANCH  13  16
HETATM   16  N6  UNL     1      38.082  28.935  -4.632  1.00  0.00    -0.305 N 
HETATM   17  C6  UNL     1      39.209  28.845  -5.219  1.00  0.00     0.177 C 
ATOM     18  H6  UNL     1      38.093  29.262  -3.667  1.00  0.00     0.186 HD
BRANCH  17  19
HETATM   19  C7  UNL     1      39.276  28.387  -6.593  1.00  0.00     0.271 C 
HETATM   20  N7  UNL     1      38.538  28.991  -7.626  1.00  0.00    -0.057 NA
HETATM   21  O2  UNL     1      40.040  27.397  -6.846  1.00  0.00    -0.270 OA
ENDBRANCH  17  19
ENDBRANCH  13  16
ENDBRANCH   7  10
ENDBRANCH   3   4
TORSDOF 4
ENDMDL
