MODEL 1
REMARK VINA RESULT: -6.859541817      0.000      0.000
REMARK  5 active torsions:
REMARK  status: ('A' for Active; 'I' for Inactive)
REMARK    1  A    between atoms: C1_4  and  C2_6 
REMARK    2  A    between atoms: C2_6  and  N3_7 
REMARK    3  A    between atoms: C2_6  and  C3_11 
REMARK    4  A    between atoms: C3_11  and  N4_12 
REMARK    5  A    between atoms: C3_11  and  C5_17 
ROOT
HETATM    1  C3  UNL     1      35.341  31.622  -1.766  1.00  0.00     0.147 C 
ENDROOT
BRANCH   1   2
HETATM    2  C2  UNL     1      34.445  32.795  -2.047  1.00  0.00     0.271 C 
BRANCH   2   3
HETATM    3  C1  UNL     1      35.159  33.881  -2.786  1.00  0.00     0.119 C 
HETATM    4  N1  UNL     1      36.405  33.832  -3.000  1.00  0.00    -0.389 N 
ATOM      5  H12 UNL     1      36.892  34.573  -3.504  1.00  0.00     0.157 HD
ATOM      6  H11 UNL     1      36.954  33.039  -2.668  1.00  0.00     0.157 HD
HETATM    7  N2  UNL     1      34.401  34.976  -3.243  1.00  0.00    -0.086 NA
ENDBRANCH   2   3
BRANCH   2   8
HETATM    8  N3  UNL     1      33.281  32.389  -2.832  1.00  0.00    -0.067 N 
ATOM      9  H33 UNL     1      32.429  32.871  -2.547  1.00  0.00     0.275 HD
ATOM     10  H32 UNL     1      33.319  32.728  -3.792  1.00  0.00     0.275 HD
ATOM     11  H31 UNL     1      33.194  31.374  -2.777  1.00  0.00     0.275 HD
ENDBRANCH   2   8
ENDBRANCH   1   2
BRANCH   1  12
HETATM   12  N4  UNL     1      35.106  30.580  -2.704  1.00  0.00    -0.358 N 
HETATM   13  C4  UNL     1      35.777  30.255  -3.732  1.00  0.00     0.197 C 
HETATM   14  N5  UNL     1      36.957  30.866  -4.213  1.00  0.00    -0.067 NA
HETATM   15  N6  UNL     1      35.290  29.141  -4.500  1.00  0.00    -0.067 NA
ATOM     16  H4  UNL     1      34.279  30.011  -2.525  1.00  0.00     0.162 HD
ENDBRANCH   1  12
BRANCH   1  17
HETATM   17  C5  UNL     1      35.239  31.246  -0.313  1.00  0.00     0.133 A 
HETATM   18  C6  UNL     1      35.525  32.398   0.560  1.00  0.00     0.006 A 
HETATM   19  C7  UNL     1      36.431  32.053   1.437  1.00  0.00     0.072 A 
HETATM   20  C8  UNL     1      36.829  30.673   1.255  1.00  0.00     0.241 A 
HETATM   21  O1  UNL     1      37.688  30.001   1.921  1.00  0.00    -0.269 OA
HETATM   22  N7  UNL     1      36.046  30.201   0.156  1.00  0.00    -0.348 N 
ATOM     23  H7  UNL     1      36.072  29.256  -0.226  1.00  0.00     0.163 HD
ENDBRANCH   1  17
TORSDOF 5
ENDMDL
MODEL 2
REMARK VINA RESULT: -6.727215664      2.727      4.859
REMARK  5 active torsions:
REMARK  status: ('A' for Active; 'I' for Inactive)
REMARK    1  A    between atoms: C1_4  and  C2_6 
REMARK    2  A    between atoms: C2_6  and  N3_7 
REMARK    3  A    between atoms: C2_6  and  C3_11 
REMARK    4  A    between atoms: C3_11  and  N4_12 
REMARK    5  A    between atoms: C3_11  and  C5_17 
ROOT
HETATM    1  C3  UNL     1      35.704  32.146  -1.329  1.00  0.00     0.147 C 
ENDROOT
BRANCH   1   2
HETATM    2  C2  UNL     1      35.576  32.232   0.166  1.00  0.00     0.271 C 
BRANCH   2   3
HETATM    3  C1  UNL     1      36.429  31.219   0.860  1.00  0.00     0.119 C 
HETATM    4  N1  UNL     1      36.422  29.999   0.523  1.00  0.00    -0.389 N 
ATOM      5  H12 UNL     1      37.003  29.308   0.997  1.00  0.00     0.157 HD
ATOM      6  H11 UNL     1      35.826  29.680  -0.241  1.00  0.00     0.157 HD
HETATM    7  N2  UNL     1      37.250  31.660   1.915  1.00  0.00    -0.086 NA
ENDBRANCH   2   3
BRANCH   2   8
HETATM    8  N3  UNL     1      35.950  33.560   0.647  1.00  0.00    -0.067 N 
ATOM      9  H33 UNL     1      36.456  33.528   1.531  1.00  0.00     0.275 HD
ATOM     10  H32 UNL     1      36.683  33.988   0.083  1.00  0.00     0.275 HD
ATOM     11  H31 UNL     1      35.108  34.134   0.698  1.00  0.00     0.275 HD
ENDBRANCH   2   8
ENDBRANCH   1   2
BRANCH   1  12
HETATM   12  N4  UNL     1      36.010  33.420  -1.877  1.00  0.00    -0.358 N 
HETATM   13  C4  UNL     1      36.636  33.710  -2.943  1.00  0.00     0.197 C 
HETATM   14  N5  UNL     1      37.202  32.810  -3.875  1.00  0.00    -0.067 NA
HETATM   15  N6  UNL     1      36.794  35.107  -3.246  1.00  0.00    -0.067 NA
ATOM     16  H4  UNL     1      35.678  34.219  -1.336  1.00  0.00     0.162 HD
ENDBRANCH   1  12
BRANCH   1  17
HETATM   17  C5  UNL     1      34.501  31.447  -1.899  1.00  0.00     0.133 A 
HETATM   18  C6  UNL     1      34.891  30.439  -2.903  1.00  0.00     0.006 A 
HETATM   19  C7  UNL     1      34.204  30.640  -3.996  1.00  0.00     0.072 A 
HETATM   20  C8  UNL     1      33.301  31.761  -3.843  1.00  0.00     0.241 A 
HETATM   21  O1  UNL     1      32.486  32.245  -4.699  1.00  0.00    -0.269 OA
HETATM   22  N7  UNL     1      33.510  32.228  -2.509  1.00  0.00    -0.348 N 
ATOM     23  H7  UNL     1      33.018  33.006  -2.070  1.00  0.00     0.163 HD
ENDBRANCH   1  17
TORSDOF 5
ENDMDL
MODEL 3
REMARK VINA RESULT: -6.647719211      2.629      4.561
REMARK  5 active torsions:
REMARK  status: ('A' for Active; 'I' for Inactive)
REMARK    1  A    between atoms: C1_4  and  C2_6 
REMARK    2  A    between atoms: C2_6  and  N3_7 
REMARK    3  A    between atoms: C2_6  and  C3_11 
REMARK    4  A    between atoms: C3_11  and  N4_12 
REMARK    5  A    between atoms: C3_11  and  C5_17 
ROOT
HETATM    1  C3  UNL     1      36.112  31.619  -0.511  1.00  0.00     0.147 C 
ENDROOT
BRANCH   1   2
HETATM    2  C2  UNL     1      35.876  32.889   0.255  1.00  0.00     0.271 C 
BRANCH   2   3
HETATM    3  C1  UNL     1      34.425  33.242   0.320  1.00  0.00     0.119 C 
HETATM    4  N1  UNL     1      33.963  34.267  -0.260  1.00  0.00    -0.389 N 
ATOM      5  H12 UNL     1      32.972  34.508  -0.216  1.00  0.00     0.157 HD
ATOM      6  H11 UNL     1      34.580  34.881  -0.791  1.00  0.00     0.157 HD
HETATM    7  N2  UNL     1      33.572  32.395   1.054  1.00  0.00    -0.086 NA
ENDBRANCH   2   3
BRANCH   2   8
HETATM    8  N3  UNL     1      36.387  32.780   1.619  1.00  0.00    -0.067 N 
ATOM      9  H33 UNL     1      35.968  32.006   2.134  1.00  0.00     0.275 HD
ATOM     10  H32 UNL     1      37.355  32.459   1.650  1.00  0.00     0.275 HD
ATOM     11  H31 UNL     1      36.257  33.677   2.086  1.00  0.00     0.275 HD
ENDBRANCH   2   8
ENDBRANCH   1   2
BRANCH   1  12
HETATM   12  N4  UNL     1      37.476  31.230  -0.423  1.00  0.00    -0.358 N 
HETATM   13  C4  UNL     1      38.054  30.509   0.449  1.00  0.00     0.197 C 
HETATM   14  N5  UNL     1      37.468  29.898   1.580  1.00  0.00    -0.067 NA
HETATM   15  N6  UNL     1      39.464  30.284   0.275  1.00  0.00    -0.067 NA
ATOM     16  H4  UNL     1      38.079  31.580  -1.168  1.00  0.00     0.162 HD
ENDBRANCH   1  12
BRANCH   1  17
HETATM   17  C5  UNL     1      35.547  31.753  -1.898  1.00  0.00     0.133 A 
HETATM   18  C6  UNL     1      34.721  30.585  -2.256  1.00  0.00     0.006 A 
HETATM   19  C7  UNL     1      35.121  30.119  -3.409  1.00  0.00     0.072 A 
HETATM   20  C8  UNL     1      36.216  30.906  -3.935  1.00  0.00     0.241 A 
HETATM   21  O1  UNL     1      36.857  30.741  -5.028  1.00  0.00    -0.269 OA
HETATM   22  N7  UNL     1      36.442  31.928  -2.962  1.00  0.00    -0.348 N 
ATOM     23  H7  UNL     1      37.142  32.666  -3.031  1.00  0.00     0.163 HD
ENDBRANCH   1  17
TORSDOF 5
ENDMDL
MODEL 4
REMARK VINA RESULT: -6.542543260      0.992      3.166
REMARK  5 active torsions:
REMARK  status: ('A' for Active; 'I' for Inactive)
REMARK    1  A    between atoms: C1_4  and  C2_6 
REMARK    2  A    between atoms: C2_6  and  N3_7 
REMARK    3  A    between atoms: C2_6  and  C3_11 
REMARK    4  A    between atoms: C3_11  and  N4_12 
REMARK    5  A    between atoms: C3_11  and  C5_17 
ROOT
HETATM    1  C3  UNL     1      34.785  31.716  -1.857  1.00  0.00     0.147 C 
ENDROOT
BRANCH   1   2
HETATM    2  C2  UNL     1      35.925  31.131  -2.641  1.00  0.00     0.271 C 
BRANCH   2   3
HETATM    3  C1  UNL     1      35.463  30.498  -3.914  1.00  0.00     0.119 C 
HETATM    4  N1  UNL     1      35.566  31.090  -5.028  1.00  0.00    -0.389 N 
ATOM      5  H12 UNL     1      35.251  30.658  -5.896  1.00  0.00     0.157 HD
ATOM      6  H11 UNL     1      35.973  32.024  -5.079  1.00  0.00     0.157 HD
HETATM    7  N2  UNL     1      34.900  29.209  -3.843  1.00  0.00    -0.086 NA
ENDBRANCH   2   3
BRANCH   2   8
HETATM    8  N3  UNL     1      36.916  32.155  -2.966  1.00  0.00    -0.067 N 
ATOM      9  H33 UNL     1      36.559  33.101  -2.834  1.00  0.00     0.275 HD
ATOM     10  H32 UNL     1      37.674  32.196  -2.286  1.00  0.00     0.275 HD
ATOM     11  H31 UNL     1      37.250  31.992  -3.916  1.00  0.00     0.275 HD
ENDBRANCH   2   8
ENDBRANCH   1   2
BRANCH   1  12
HETATM   12  N4  UNL     1      34.680  33.113  -2.096  1.00  0.00    -0.358 N 
HETATM   13  C4  UNL     1      34.036  33.729  -3.001  1.00  0.00     0.197 C 
HETATM   14  N5  UNL     1      33.242  33.162  -4.024  1.00  0.00    -0.067 NA
HETATM   15  N6  UNL     1      34.118  35.165  -2.994  1.00  0.00    -0.067 NA
ATOM     16  H4  UNL     1      35.196  33.707  -1.448  1.00  0.00     0.162 HD
ENDBRANCH   1  12
BRANCH   1  17
HETATM   17  C5  UNL     1      34.894  31.294  -0.417  1.00  0.00     0.133 A 
HETATM   18  C6  UNL     1      35.231  32.437   0.452  1.00  0.00     0.006 A 
HETATM   19  C7  UNL     1      36.260  32.119   1.192  1.00  0.00     0.072 A 
HETATM   20  C8  UNL     1      36.702  30.768   0.913  1.00  0.00     0.241 A 
HETATM   21  O1  UNL     1      37.675  30.128   1.438  1.00  0.00    -0.269 OA
HETATM   22  N7  UNL     1      35.809  30.284  -0.092  1.00  0.00    -0.348 N 
ATOM     23  H7  UNL     1      35.833  29.353  -0.506  1.00  0.00     0.163 HD
ENDBRANCH   1  17
TORSDOF 5
ENDMDL
MODEL 5
REMARK VINA RESULT: -6.522674865      0.959      1.465
REMARK  5 active torsions:
REMARK  status: ('A' for Active; 'I' for Inactive)
REMARK    1  A    between atoms: C1_4  and  C2_6 
REMARK    2  A    between atoms: C2_6  and  N3_7 
REMARK    3  A    between atoms: C2_6  and  C3_11 
REMARK    4  A    between atoms: C3_11  and  N4_12 
REMARK    5  A    between atoms: C3_11  and  C5_17 
ROOT
HETATM    1  C3  UNL     1      35.732  32.868  -1.501  1.00  0.00     0.147 C 
ENDROOT
BRANCH   1   2
HETATM    2  C2  UNL     1      34.392  33.430  -1.884  1.00  0.00     0.271 C 
BRANCH   2   3
HETATM    3  C1  UNL     1      34.428  34.104  -3.218  1.00  0.00     0.119 C 
HETATM    4  N1  UNL     1      33.535  33.900  -4.091  1.00  0.00    -0.389 N 
ATOM      5  H12 UNL     1      33.559  34.360  -5.000  1.00  0.00     0.157 HD
ATOM      6  H11 UNL     1      32.763  33.262  -3.898  1.00  0.00     0.157 HD
HETATM    7  N2  UNL     1      35.494  34.984  -3.483  1.00  0.00    -0.086 NA
ENDBRANCH   2   3
BRANCH   2   8
HETATM    8  N3  UNL     1      33.378  32.379  -1.923  1.00  0.00    -0.067 N 
ATOM      9  H33 UNL     1      33.094  32.074  -0.992  1.00  0.00     0.275 HD
ATOM     10  H32 UNL     1      32.471  32.723  -2.238  1.00  0.00     0.275 HD
ATOM     11  H31 UNL     1      33.728  31.613  -2.497  1.00  0.00     0.275 HD
ENDBRANCH   2   8
ENDBRANCH   1   2
BRANCH   1  12
HETATM   12  N4  UNL     1      36.405  32.360  -2.645  1.00  0.00    -0.358 N 
HETATM   13  C4  UNL     1      36.192  31.290  -3.295  1.00  0.00     0.197 C 
HETATM   14  N5  UNL     1      35.206  30.311  -3.035  1.00  0.00    -0.067 NA
HETATM   15  N6  UNL     1      37.045  31.035  -4.425  1.00  0.00    -0.067 NA
ATOM     16  H4  UNL     1      37.169  32.937  -2.995  1.00  0.00     0.162 HD
ENDBRANCH   1  12
BRANCH   1  17
HETATM   17  C5  UNL     1      35.571  31.918  -0.347  1.00  0.00     0.133 A 
HETATM   18  C6  UNL     1      35.535  32.637   0.940  1.00  0.00     0.006 A 
HETATM   19  C7  UNL     1      36.404  32.098   1.753  1.00  0.00     0.072 A 
HETATM   20  C8  UNL     1      37.086  30.988   1.121  1.00  0.00     0.241 A 
HETATM   21  O1  UNL     1      37.995  30.235   1.609  1.00  0.00    -0.269 OA
HETATM   22  N7  UNL     1      36.522  30.902  -0.189  1.00  0.00    -0.348 N 
ATOM     23  H7  UNL     1      36.773  30.211  -0.897  1.00  0.00     0.163 HD
ENDBRANCH   1  17
TORSDOF 5
ENDMDL
