MODEL 1
REMARK VINA RESULT: -6.829373902      0.000      0.000
REMARK  8 active torsions:
REMARK  status: ('A' for Active; 'I' for Inactive)
REMARK       I    between atoms: C1_4  and  N2_5 
REMARK       I    between atoms: C1_4  and  N5_18 
REMARK    1  A    between atoms: N2_5  and  N3_7 
REMARK       I    between atoms: N3_7  and  C2_8 
REMARK    2  A    between atoms: C2_8  and  C3_10 
REMARK    3  A    between atoms: C3_10  and  C4_11 
REMARK    4  A    between atoms: C4_11  and  C5_12 
REMARK    5  A    between atoms: C5_12  and  C6_13 
REMARK    6  A    between atoms: C6_13  and  C7_14 
REMARK    7  A    between atoms: C7_14  and  O2_16 
REMARK    8  A    between atoms: N5_18  and  N6_20 
ROOT
HETATM    1  N1  UNL     1      34.123  31.941   1.225  1.00  0.00    -0.231 N 
ATOM      2  H11 UNL     1      34.003  31.073   1.748  1.00  0.00     0.174 HD
ATOM      3  H12 UNL     1      33.470  32.724   1.270  1.00  0.00     0.174 HD
HETATM    4  C1  UNL     1      35.204  31.981   0.500  1.00  0.00     0.720 C 
HETATM    5  N2  UNL     1      35.377  33.225  -0.249  1.00  0.00    -0.060 N 
ATOM      6  H2  UNL     1      35.965  33.940   0.178  1.00  0.00     0.221 HD
HETATM    7  N5  UNL     1      36.080  30.929   0.440  1.00  0.00    -0.070 N 
ATOM      8  H5  UNL     1      35.896  30.193  -0.243  1.00  0.00     0.212 HD
ENDROOT
BRANCH   5   9
HETATM    9  N3  UNL     1      34.880  33.496  -1.350  1.00  0.00    -0.267 NA
HETATM   10  C2  UNL     1      34.276  33.824  -2.683  1.00  0.00     0.343 C 
HETATM   11  O1  UNL     1      34.186  34.951  -2.958  1.00  0.00    -0.249 OA
BRANCH  10  12
HETATM   12  C3  UNL     1      33.907  32.582  -3.321  1.00  0.00     0.147 C 
BRANCH  12  13
HETATM   13  C4  UNL     1      34.344  31.387  -3.295  1.00  0.00    -0.121 C 
BRANCH  13  14
HETATM   14  C5  UNL     1      34.883  30.129  -3.282  1.00  0.00     0.059 C 
BRANCH  14  15
HETATM   15  C6  UNL     1      35.248  29.505  -4.453  1.00  0.00     0.060 C 
BRANCH  15  16
HETATM   16  C7  UNL     1      36.590  29.149  -4.789  1.00  0.00     0.150 C 
HETATM   17  N4  UNL     1      37.133  28.069  -5.462  1.00  0.00    -0.075 NA
BRANCH  16  18
HETATM   18  O2  UNL     1      37.519  30.011  -4.394  1.00  0.00    -0.348 OA
ATOM     19  H2  UNL     1      38.198  29.648  -3.838  1.00  0.00     0.219 HD
ENDBRANCH  16  18
ENDBRANCH  15  16
ENDBRANCH  14  15
ENDBRANCH  13  14
ENDBRANCH  12  13
ENDBRANCH  10  12
ENDBRANCH   5   9
BRANCH   7  20
HETATM   20  N6  UNL     1      37.192  30.800   1.238  1.00  0.00    -0.024 N 
HETATM   21  O3  UNL     1      38.248  30.297   0.872  1.00  0.00    -0.516 OA
HETATM   22  O4  UNL     1      37.106  31.311   2.538  1.00  0.00    -0.516 OA
ENDBRANCH   7  20
TORSDOF 8
ENDMDL
MODEL 2
REMARK VINA RESULT: -6.821998731      0.756      1.082
REMARK  8 active torsions:
REMARK  status: ('A' for Active; 'I' for Inactive)
REMARK       I    between atoms: C1_4  and  N2_5 
REMARK       I    between atoms: C1_4  and  N5_18 
REMARK    1  A    between atoms: N2_5  and  N3_7 
REMARK       I    between atoms: N3_7  and  C2_8 
REMARK    2  A    between atoms: C2_8  and  C3_10 
REMARK    3  A    between atoms: C3_10  and  C4_11 
REMARK    4  A    between atoms: C4_11  and  C5_12 
REMARK    5  A    between atoms: C5_12  and  C6_13 
REMARK    6  A    between atoms: C6_13  and  C7_14 
REMARK    7  A    between atoms: C7_14  and  O2_16 
REMARK    8  A    between atoms: N5_18  and  N6_20 
ROOT
HETATM    1  N1  UNL     1      34.034  31.943   1.196  1.00  0.00    -0.231 N 
ATOM      2  H11 UNL     1      33.929  31.064   1.704  1.00  0.00     0.174 HD
ATOM      3  H12 UNL     1      33.341  32.692   1.213  1.00  0.00     0.174 HD
HETATM    4  C1  UNL     1      35.148  32.045   0.531  1.00  0.00     0.720 C 
HETATM    5  N2  UNL     1      35.299  33.304  -0.197  1.00  0.00    -0.060 N 
ATOM      6  H2  UNL     1      35.827  34.042   0.267  1.00  0.00     0.221 HD
HETATM    7  N5  UNL     1      36.078  31.037   0.508  1.00  0.00    -0.070 N 
ATOM      8  H5  UNL     1      35.967  30.301  -0.190  1.00  0.00     0.212 HD
ENDROOT
BRANCH   5   9
HETATM    9  N3  UNL     1      34.848  33.563  -1.320  1.00  0.00    -0.267 NA
HETATM   10  C2  UNL     1      34.300  33.876  -2.681  1.00  0.00     0.343 C 
HETATM   11  O1  UNL     1      34.245  35.000  -2.980  1.00  0.00    -0.249 OA
BRANCH  10  12
HETATM   12  C3  UNL     1      33.928  32.630  -3.308  1.00  0.00     0.147 C 
BRANCH  12  13
HETATM   13  C4  UNL     1      34.352  31.431  -3.259  1.00  0.00    -0.121 C 
BRANCH  13  14
HETATM   14  C5  UNL     1      34.800  30.137  -3.282  1.00  0.00     0.059 C 
BRANCH  14  15
HETATM   15  C6  UNL     1      35.270  29.574  -4.447  1.00  0.00     0.060 C 
BRANCH  15  16
HETATM   16  C7  UNL     1      36.653  29.365  -4.736  1.00  0.00     0.150 C 
HETATM   17  N4  UNL     1      37.720  30.233  -4.884  1.00  0.00    -0.075 NA
BRANCH  16  18
HETATM   18  O2  UNL     1      37.013  28.098  -4.890  1.00  0.00    -0.348 OA
ATOM     19  H2  UNL     1      37.779  27.832  -4.395  1.00  0.00     0.219 HD
ENDBRANCH  16  18
ENDBRANCH  15  16
ENDBRANCH  14  15
ENDBRANCH  13  14
ENDBRANCH  12  13
ENDBRANCH  10  12
ENDBRANCH   5   9
BRANCH   7  20
HETATM   20  N6  UNL     1      37.151  30.954   1.364  1.00  0.00    -0.024 N 
HETATM   21  O3  UNL     1      37.132  31.331   2.529  1.00  0.00    -0.516 OA
HETATM   22  O4  UNL     1      38.320  30.370   0.866  1.00  0.00    -0.516 OA
ENDBRANCH   7  20
TORSDOF 8
ENDMDL
MODEL 3
REMARK VINA RESULT: -6.820242886      1.662      3.733
REMARK  8 active torsions:
REMARK  status: ('A' for Active; 'I' for Inactive)
REMARK       I    between atoms: C1_4  and  N2_5 
REMARK       I    between atoms: C1_4  and  N5_18 
REMARK    1  A    between atoms: N2_5  and  N3_7 
REMARK       I    between atoms: N3_7  and  C2_8 
REMARK    2  A    between atoms: C2_8  and  C3_10 
REMARK    3  A    between atoms: C3_10  and  C4_11 
REMARK    4  A    between atoms: C4_11  and  C5_12 
REMARK    5  A    between atoms: C5_12  and  C6_13 
REMARK    6  A    between atoms: C6_13  and  C7_14 
REMARK    7  A    between atoms: C7_14  and  O2_16 
REMARK    8  A    between atoms: N5_18  and  N6_20 
ROOT
HETATM    1  N1  UNL     1      34.443  31.424   0.159  1.00  0.00    -0.231 N 
ATOM      2  H11 UNL     1      34.208  31.190   1.124  1.00  0.00     0.174 HD
ATOM      3  H12 UNL     1      33.892  32.058  -0.420  1.00  0.00     0.174 HD
HETATM    4  C1  UNL     1      35.532  30.859  -0.277  1.00  0.00     0.720 C 
HETATM    5  N2  UNL     1      35.870  31.195  -1.659  1.00  0.00    -0.060 N 
ATOM      6  H2  UNL     1      36.536  31.955  -1.798  1.00  0.00     0.221 HD
HETATM    7  N5  UNL     1      36.272  30.007   0.502  1.00  0.00    -0.070 N 
ATOM      8  H5  UNL     1      36.009  29.021   0.514  1.00  0.00     0.212 HD
ENDROOT
BRANCH   5   9
HETATM    9  N3  UNL     1      35.428  30.648  -2.678  1.00  0.00    -0.267 NA
HETATM   10  C2  UNL     1      34.892  29.985  -3.912  1.00  0.00     0.343 C 
HETATM   11  O1  UNL     1      35.377  28.973  -4.219  1.00  0.00    -0.249 OA
BRANCH  10  12
HETATM   12  C3  UNL     1      33.863  30.836  -4.462  1.00  0.00     0.147 C 
BRANCH  12  13
HETATM   13  C4  UNL     1      33.743  32.084  -4.682  1.00  0.00    -0.121 C 
BRANCH  13  14
HETATM   14  C5  UNL     1      33.603  33.436  -4.843  1.00  0.00     0.059 C 
BRANCH  14  15
HETATM   15  C6  UNL     1      34.382  34.316  -4.127  1.00  0.00     0.060 C 
BRANCH  15  16
HETATM   16  C7  UNL     1      34.746  34.134  -2.757  1.00  0.00     0.150 C 
HETATM   17  N4  UNL     1      34.004  33.892  -1.615  1.00  0.00    -0.075 NA
BRANCH  16  18
HETATM   18  O2  UNL     1      36.047  34.198  -2.505  1.00  0.00    -0.348 OA
ATOM     19  H2  UNL     1      36.557  34.690  -3.136  1.00  0.00     0.219 HD
ENDBRANCH  16  18
ENDBRANCH  15  16
ENDBRANCH  14  15
ENDBRANCH  13  14
ENDBRANCH  12  13
ENDBRANCH  10  12
ENDBRANCH   5   9
BRANCH   7  20
HETATM   20  N6  UNL     1      37.347  30.394   1.268  1.00  0.00    -0.024 N 
HETATM   21  O3  UNL     1      38.514  30.324   0.901  1.00  0.00    -0.516 OA
HETATM   22  O4  UNL     1      37.070  30.931   2.530  1.00  0.00    -0.516 OA
ENDBRANCH   7  20
TORSDOF 8
ENDMDL
MODEL 4
REMARK VINA RESULT: -6.802212554      2.086      5.712
REMARK  8 active torsions:
REMARK  status: ('A' for Active; 'I' for Inactive)
REMARK       I    between atoms: C1_4  and  N2_5 
REMARK       I    between atoms: C1_4  and  N5_18 
REMARK    1  A    between atoms: N2_5  and  N3_7 
REMARK       I    between atoms: N3_7  and  C2_8 
REMARK    2  A    between atoms: C2_8  and  C3_10 
REMARK    3  A    between atoms: C3_10  and  C4_11 
REMARK    4  A    between atoms: C4_11  and  C5_12 
REMARK    5  A    between atoms: C5_12  and  C6_13 
REMARK    6  A    between atoms: C6_13  and  C7_14 
REMARK    7  A    between atoms: C7_14  and  O2_16 
REMARK    8  A    between atoms: N5_18  and  N6_20 
ROOT
HETATM    1  N1  UNL     1      36.269  32.612  -3.034  1.00  0.00    -0.231 N 
ATOM      2  H11 UNL     1      36.636  32.929  -3.932  1.00  0.00     0.174 HD
ATOM      3  H12 UNL     1      35.797  33.223  -2.368  1.00  0.00     0.174 HD
HETATM    4  C1  UNL     1      36.433  31.339  -2.811  1.00  0.00     0.720 C 
HETATM    5  N2  UNL     1      35.906  30.884  -1.525  1.00  0.00    -0.060 N 
ATOM      6  H2  UNL     1      34.969  30.484  -1.528  1.00  0.00     0.221 HD
HETATM    7  N5  UNL     1      37.068  30.518  -3.707  1.00  0.00    -0.070 N 
ATOM      8  H5  UNL     1      38.084  30.450  -3.654  1.00  0.00     0.212 HD
ENDROOT
BRANCH   5   9
HETATM    9  N3  UNL     1      36.487  30.938  -0.432  1.00  0.00    -0.267 NA
HETATM   10  C2  UNL     1      37.189  31.002   0.891  1.00  0.00     0.343 C 
HETATM   11  O1  UNL     1      38.103  30.296   1.037  1.00  0.00    -0.249 OA
BRANCH  10  12
HETATM   12  C3  UNL     1      36.496  31.962   1.716  1.00  0.00     0.147 C 
BRANCH  12  13
HETATM   13  C4  UNL     1      35.586  32.832   1.523  1.00  0.00    -0.121 C 
BRANCH  13  14
HETATM   14  C5  UNL     1      34.560  33.711   1.306  1.00  0.00     0.059 C 
BRANCH  14  15
HETATM   15  C6  UNL     1      33.532  33.396   0.446  1.00  0.00     0.060 C 
BRANCH  15  16
HETATM   16  C7  UNL     1      33.653  33.382  -0.978  1.00  0.00     0.150 C 
HETATM   17  N4  UNL     1      33.290  32.456  -1.939  1.00  0.00    -0.075 NA
BRANCH  16  18
HETATM   18  O2  UNL     1      34.215  34.461  -1.508  1.00  0.00    -0.348 OA
ATOM     19  H2  UNL     1      35.046  34.312  -1.943  1.00  0.00     0.219 HD
ENDBRANCH  16  18
ENDBRANCH  15  16
ENDBRANCH  14  15
ENDBRANCH  13  14
ENDBRANCH  12  13
ENDBRANCH  10  12
ENDBRANCH   5   9
BRANCH   7  20
HETATM   20  N6  UNL     1      36.423  29.780  -4.672  1.00  0.00    -0.024 N 
HETATM   21  O3  UNL     1      36.793  29.698  -5.836  1.00  0.00    -0.516 OA
HETATM   22  O4  UNL     1      35.294  29.057  -4.273  1.00  0.00    -0.516 OA
ENDBRANCH   7  20
TORSDOF 8
ENDMDL
MODEL 5
REMARK VINA RESULT: -6.799792016      1.608      2.075
REMARK  8 active torsions:
REMARK  status: ('A' for Active; 'I' for Inactive)
REMARK       I    between atoms: C1_4  and  N2_5 
REMARK       I    between atoms: C1_4  and  N5_18 
REMARK    1  A    between atoms: N2_5  and  N3_7 
REMARK       I    between atoms: N3_7  and  C2_8 
REMARK    2  A    between atoms: C2_8  and  C3_10 
REMARK    3  A    between atoms: C3_10  and  C4_11 
REMARK    4  A    between atoms: C4_11  and  C5_12 
REMARK    5  A    between atoms: C5_12  and  C6_13 
REMARK    6  A    between atoms: C6_13  and  C7_14 
REMARK    7  A    between atoms: C7_14  and  O2_16 
REMARK    8  A    between atoms: N5_18  and  N6_20 
ROOT
HETATM    1  N1  UNL     1      34.218  31.895   0.917  1.00  0.00    -0.231 N 
ATOM      2  H11 UNL     1      34.146  31.461   1.838  1.00  0.00     0.174 HD
ATOM      3  H12 UNL     1      33.588  32.625   0.585  1.00  0.00     0.174 HD
HETATM    4  C1  UNL     1      35.208  31.454   0.195  1.00  0.00     0.720 C 
HETATM    5  N2  UNL     1      35.312  32.077  -1.124  1.00  0.00    -0.060 N 
ATOM      6  H2  UNL     1      35.957  32.862  -1.212  1.00  0.00     0.221 HD
HETATM    7  N5  UNL     1      36.056  30.473   0.643  1.00  0.00    -0.070 N 
ATOM      8  H5  UNL     1      35.782  29.502   0.493  1.00  0.00     0.212 HD
ENDROOT
BRANCH   5   9
HETATM    9  N3  UNL     1      34.695  31.745  -2.144  1.00  0.00    -0.267 NA
HETATM   10  C2  UNL     1      33.945  31.343  -3.380  1.00  0.00     0.343 C 
HETATM   11  O1  UNL     1      33.003  31.969  -3.651  1.00  0.00    -0.249 OA
BRANCH  10  12
HETATM   12  C3  UNL     1      34.605  30.189  -3.943  1.00  0.00     0.147 C 
BRANCH  12  13
HETATM   13  C4  UNL     1      35.759  29.953  -4.426  1.00  0.00    -0.121 C 
BRANCH  13  14
HETATM   14  C5  UNL     1      36.966  29.677  -5.010  1.00  0.00     0.059 C 
BRANCH  14  15
HETATM   15  C6  UNL     1      37.161  28.506  -5.707  1.00  0.00     0.060 C 
BRANCH  15  16
HETATM   16  C7  UNL     1      38.260  27.618  -5.493  1.00  0.00     0.150 C 
HETATM   17  N4  UNL     1      39.518  27.530  -6.060  1.00  0.00    -0.075 NA
BRANCH  16  18
HETATM   18  O2  UNL     1      38.062  26.688  -4.566  1.00  0.00    -0.348 OA
ATOM     19  H2  UNL     1      38.590  26.781  -3.782  1.00  0.00     0.219 HD
ENDBRANCH  16  18
ENDBRANCH  15  16
ENDBRANCH  14  15
ENDBRANCH  13  14
ENDBRANCH  12  13
ENDBRANCH  10  12
ENDBRANCH   5   9
BRANCH   7  20
HETATM   20  N6  UNL     1      37.251  30.714   1.279  1.00  0.00    -0.024 N 
HETATM   21  O3  UNL     1      38.332  30.279   0.900  1.00  0.00    -0.516 OA
HETATM   22  O4  UNL     1      37.216  31.536   2.411  1.00  0.00    -0.516 OA
ENDBRANCH   7  20
TORSDOF 8
ENDMDL
