MODEL 1
REMARK VINA RESULT: -4.349492277      0.000      0.000
REMARK  2 active torsions:
REMARK  status: ('A' for Active; 'I' for Inactive)
REMARK    1  A    between atoms: N2_4  and  N3_6 
REMARK    2  A    between atoms: N3_6  and  C1_8 
ROOT
HETATM    1  N3  UNL     1      31.204  32.410  27.579  1.00  0.00    -0.290 N 
ATOM      2  H3  UNL     1      30.700  31.703  27.043  1.00  0.00     0.184 HD
ENDROOT
BRANCH   1   3
HETATM    3  N2  UNL     1      31.104  33.753  27.237  1.00  0.00    -0.252 N 
HETATM    4  N1  UNL     1      30.024  34.215  26.760  1.00  0.00    -0.331 N 
ATOM      5  H12 UNL     1      29.233  33.584  26.633  1.00  0.00     0.178 HD
ATOM      6  H11 UNL     1      29.951  35.201  26.509  1.00  0.00     0.178 HD
ATOM      7  H2  UNL     1      31.906  34.371  27.370  1.00  0.00     0.207 HD
ENDBRANCH   1   3
BRANCH   1   8
HETATM    8  C1  UNL     1      32.038  32.019  28.716  1.00  0.00     0.325 A 
HETATM    9  C2  UNL     1      31.347  32.007  30.022  1.00  0.00     0.290 A 
HETATM   10  N4  UNL     1      32.370  32.983  29.715  1.00  0.00    -0.048 N 
ATOM     11  H42 UNL     1      33.241  33.262  30.167  1.00  0.00     0.279 HD
ATOM     12  H41 UNL     1      32.404  34.003  29.733  1.00  0.00     0.279 HD
ENDBRANCH   1   8
TORSDOF 2
ENDMDL
MODEL 2
REMARK VINA RESULT: -3.986751820      1.274      1.591
REMARK  2 active torsions:
REMARK  status: ('A' for Active; 'I' for Inactive)
REMARK    1  A    between atoms: N2_4  and  N3_6 
REMARK    2  A    between atoms: N3_6  and  C1_8 
ROOT
HETATM    1  N3  UNL     1      31.713  33.554  27.763  1.00  0.00    -0.290 N 
ATOM      2  H3  UNL     1      32.316  34.375  27.711  1.00  0.00     0.184 HD
ENDROOT
BRANCH   1   3
HETATM    3  N2  UNL     1      30.517  33.516  27.056  1.00  0.00    -0.252 N 
HETATM    4  N1  UNL     1      30.006  34.584  26.601  1.00  0.00    -0.331 N 
ATOM      5  H12 UNL     1      30.488  35.467  26.764  1.00  0.00     0.178 HD
ATOM      6  H11 UNL     1      29.128  34.555  26.082  1.00  0.00     0.178 HD
ATOM      7  H2  UNL     1      30.047  32.623  26.902  1.00  0.00     0.207 HD
ENDBRANCH   1   3
BRANCH   1   8
HETATM    8  C1  UNL     1      32.098  32.406  28.583  1.00  0.00     0.325 A 
HETATM    9  C2  UNL     1      32.651  31.260  27.832  1.00  0.00     0.290 A 
HETATM   10  N4  UNL     1      31.362  31.186  28.485  1.00  0.00    -0.048 N 
ATOM     11  H42 UNL     1      30.951  30.552  29.169  1.00  0.00     0.279 HD
ATOM     12  H41 UNL     1      30.422  30.950  28.169  1.00  0.00     0.279 HD
ENDBRANCH   1   8
TORSDOF 2
ENDMDL
MODEL 3
REMARK VINA RESULT: -3.879417573      8.682      9.370
REMARK  2 active torsions:
REMARK  status: ('A' for Active; 'I' for Inactive)
REMARK    1  A    between atoms: N2_4  and  N3_6 
REMARK    2  A    between atoms: N3_6  and  C1_8 
ROOT
HETATM    1  N3  UNL     1      36.903  26.256  31.101  1.00  0.00    -0.290 N 
ATOM      2  H3  UNL     1      37.358  26.936  30.493  1.00  0.00     0.184 HD
ENDROOT
BRANCH   1   3
HETATM    3  N2  UNL     1      35.910  25.421  30.602  1.00  0.00    -0.252 N 
HETATM    4  N1  UNL     1      34.715  25.835  30.502  1.00  0.00    -0.331 N 
ATOM      5  H12 UNL     1      34.499  26.788  30.794  1.00  0.00     0.178 HD
ATOM      6  H11 UNL     1      33.986  25.223  30.136  1.00  0.00     0.178 HD
ATOM      7  H2  UNL     1      36.143  24.470  30.315  1.00  0.00     0.207 HD
ENDBRANCH   1   3
BRANCH   1   8
HETATM    8  C1  UNL     1      37.290  26.148  32.507  1.00  0.00     0.325 A 
HETATM    9  C2  UNL     1      37.424  27.436  33.219  1.00  0.00     0.290 A 
HETATM   10  N4  UNL     1      38.575  26.610  32.927  1.00  0.00    -0.048 N 
ATOM     11  H42 UNL     1      39.320  26.208  33.495  1.00  0.00     0.279 HD
ATOM     12  H41 UNL     1      39.460  26.773  32.447  1.00  0.00     0.279 HD
ENDBRANCH   1   8
TORSDOF 2
ENDMDL
MODEL 4
REMARK VINA RESULT: -3.869710436      9.032      9.708
REMARK  2 active torsions:
REMARK  status: ('A' for Active; 'I' for Inactive)
REMARK    1  A    between atoms: N2_4  and  N3_6 
REMARK    2  A    between atoms: N3_6  and  C1_8 
ROOT
HETATM    1  N3  UNL     1      37.585  26.021  32.776  1.00  0.00    -0.290 N 
ATOM      2  H3  UNL     1      37.571  25.188  33.364  1.00  0.00     0.184 HD
ENDROOT
BRANCH   1   3
HETATM    3  N2  UNL     1      37.324  25.921  31.414  1.00  0.00    -0.252 N 
HETATM    4  N1  UNL     1      36.478  26.691  30.865  1.00  0.00    -0.331 N 
ATOM      5  H12 UNL     1      35.995  27.381  31.440  1.00  0.00     0.178 HD
ATOM      6  H11 UNL     1      36.287  26.618  29.866  1.00  0.00     0.178 HD
ATOM      7  H2  UNL     1      37.816  25.225  30.853  1.00  0.00     0.207 HD
ENDBRANCH   1   3
BRANCH   1   8
HETATM    8  C1  UNL     1      37.879  27.330  33.356  1.00  0.00     0.325 A 
HETATM    9  C2  UNL     1      37.743  27.408  34.825  1.00  0.00     0.290 A 
HETATM   10  N4  UNL     1      36.828  28.099  33.942  1.00  0.00    -0.048 N 
ATOM     11  H42 UNL     1      36.527  29.069  33.853  1.00  0.00     0.279 HD
ATOM     12  H41 UNL     1      35.813  28.106  33.839  1.00  0.00     0.279 HD
ENDBRANCH   1   8
TORSDOF 2
ENDMDL
MODEL 5
REMARK VINA RESULT: -3.751844798      8.918      9.758
REMARK  2 active torsions:
REMARK  status: ('A' for Active; 'I' for Inactive)
REMARK    1  A    between atoms: N2_4  and  N3_6 
REMARK    2  A    between atoms: N3_6  and  C1_8 
ROOT
HETATM    1  N3  UNL     1      37.444  26.210  31.848  1.00  0.00    -0.290 N 
ATOM      2  H3  UNL     1      37.997  25.378  31.646  1.00  0.00     0.184 HD
ENDROOT
BRANCH   1   3
HETATM    3  N2  UNL     1      36.525  26.685  30.920  1.00  0.00    -0.252 N 
HETATM    4  N1  UNL     1      35.413  26.097  30.761  1.00  0.00    -0.331 N 
ATOM      5  H12 UNL     1      35.207  25.272  31.324  1.00  0.00     0.178 HD
ATOM      6  H11 UNL     1      34.738  26.445  30.080  1.00  0.00     0.178 HD
ATOM      7  H2  UNL     1      36.746  27.511  30.364  1.00  0.00     0.207 HD
ENDBRANCH   1   3
BRANCH   1   8
HETATM    8  C1  UNL     1      37.611  26.917  33.118  1.00  0.00     0.325 A 
HETATM    9  C2  UNL     1      38.999  26.975  33.623  1.00  0.00     0.290 A 
HETATM   10  N4  UNL     1      37.982  26.191  34.290  1.00  0.00    -0.048 N 
ATOM     11  H42 UNL     1      37.626  26.160  35.245  1.00  0.00     0.279 HD
ATOM     12  H41 UNL     1      37.912  25.212  34.569  1.00  0.00     0.279 HD
ENDBRANCH   1   8
TORSDOF 2
ENDMDL
