MODEL 1
REMARK VINA RESULT: -3.472489408      0.000      0.000
REMARK  2 active torsions:
REMARK  status: ('A' for Active; 'I' for Inactive)
REMARK    1  A    between atoms: N1_2  and  N2_4 
REMARK    2  A    between atoms: N1_2  and  C3_7 
ROOT
HETATM    1  C1  UNL     1      31.493  32.536  29.600  1.00  0.00     0.305 C 
HETATM    2  N1  UNL     1      31.637  32.791  28.175  1.00  0.00     0.033 N 
HETATM    3  C2  UNL     1      30.367  33.250  27.594  1.00  0.00     0.305 C 
ENDROOT
BRANCH   2   4
HETATM    4  N2  UNL     1      32.559  33.808  27.980  1.00  0.00    -0.259 N 
ATOM      5  H22 UNL     1      32.332  34.803  27.983  1.00  0.00     0.183 HD
ATOM      6  H21 UNL     1      33.485  33.404  27.836  1.00  0.00     0.183 HD
ENDBRANCH   2   4
BRANCH   2   7
HETATM    7  C3  UNL     1      32.012  31.554  27.507  1.00  0.00     0.431 A 
HETATM    8  N3  UNL     1      32.475  30.435  28.194  1.00  0.00    -0.091 NA
HETATM    9  N4  UNL     1      33.434  31.231  27.605  1.00  0.00    -0.091 NA
ENDBRANCH   2   7
TORSDOF 2
ENDMDL
MODEL 2
REMARK VINA RESULT: -3.230985137      1.458      2.402
REMARK  2 active torsions:
REMARK  status: ('A' for Active; 'I' for Inactive)
REMARK    1  A    between atoms: N1_2  and  N2_4 
REMARK    2  A    between atoms: N1_2  and  C3_7 
ROOT
HETATM    1  C1  UNL     1      30.653  32.369  27.886  1.00  0.00     0.305 C 
HETATM    2  N1  UNL     1      32.073  32.469  28.184  1.00  0.00     0.033 N 
HETATM    3  C2  UNL     1      32.853  31.560  27.333  1.00  0.00     0.305 C 
ENDROOT
BRANCH   2   4
HETATM    4  N2  UNL     1      32.512  33.756  27.906  1.00  0.00    -0.259 N 
ATOM      5  H22 UNL     1      33.334  33.976  27.344  1.00  0.00     0.183 HD
ATOM      6  H21 UNL     1      31.887  34.430  28.349  1.00  0.00     0.183 HD
ENDBRANCH   2   4
BRANCH   2   7
HETATM    7  C3  UNL     1      32.296  32.085  29.570  1.00  0.00     0.431 A 
HETATM    8  N3  UNL     1      31.268  31.670  30.413  1.00  0.00    -0.091 NA
HETATM    9  N4  UNL     1      31.676  32.980  30.544  1.00  0.00    -0.091 NA
ENDBRANCH   2   7
TORSDOF 2
ENDMDL
MODEL 3
REMARK VINA RESULT: -3.152129671      0.703      1.002
REMARK  2 active torsions:
REMARK  status: ('A' for Active; 'I' for Inactive)
REMARK    1  A    between atoms: N1_2  and  N2_4 
REMARK    2  A    between atoms: N1_2  and  C3_7 
ROOT
HETATM    1  C1  UNL     1      31.694  32.733  29.988  1.00  0.00     0.305 C 
HETATM    2  N1  UNL     1      31.969  32.705  28.560  1.00  0.00     0.033 N 
HETATM    3  C2  UNL     1      30.741  32.441  27.795  1.00  0.00     0.305 C 
ENDROOT
BRANCH   2   4
HETATM    4  N2  UNL     1      32.434  33.948  28.155  1.00  0.00    -0.259 N 
ATOM      5  H22 UNL     1      31.879  34.633  27.641  1.00  0.00     0.183 HD
ATOM      6  H21 UNL     1      33.403  34.060  28.453  1.00  0.00     0.183 HD
ENDBRANCH   2   4
BRANCH   2   7
HETATM    7  C3  UNL     1      32.910  31.632  28.278  1.00  0.00     0.431 A 
HETATM    8  N3  UNL     1      32.986  31.001  27.038  1.00  0.00    -0.091 NA
HETATM    9  N4  UNL     1      32.279  30.339  28.019  1.00  0.00    -0.091 NA
ENDBRANCH   2   7
TORSDOF 2
ENDMDL
MODEL 4
REMARK VINA RESULT: -3.086741172      9.269     10.243
REMARK  2 active torsions:
REMARK  status: ('A' for Active; 'I' for Inactive)
REMARK    1  A    between atoms: N1_2  and  N2_4 
REMARK    2  A    between atoms: N1_2  and  C3_7 
ROOT
HETATM    1  C1  UNL     1      39.194  26.998  33.302  1.00  0.00     0.305 C 
HETATM    2  N1  UNL     1      37.775  26.876  33.597  1.00  0.00     0.033 N 
HETATM    3  C2  UNL     1      36.962  27.371  32.476  1.00  0.00     0.305 C 
ENDROOT
BRANCH   2   4
HETATM    4  N2  UNL     1      37.453  25.537  33.765  1.00  0.00    -0.259 N 
ATOM      5  H22 UNL     1      37.860  24.930  34.477  1.00  0.00     0.183 HD
ATOM      6  H21 UNL     1      36.754  25.267  33.073  1.00  0.00     0.183 HD
ENDBRANCH   2   4
BRANCH   2   7
HETATM    7  C3  UNL     1      37.461  27.683  34.767  1.00  0.00     0.431 A 
HETATM    8  N3  UNL     1      38.437  28.157  35.640  1.00  0.00    -0.091 NA
HETATM    9  N4  UNL     1      37.755  27.027  36.039  1.00  0.00    -0.091 NA
ENDBRANCH   2   7
TORSDOF 2
ENDMDL
MODEL 5
REMARK VINA RESULT: -3.084765042      9.196     10.124
REMARK  2 active torsions:
REMARK  status: ('A' for Active; 'I' for Inactive)
REMARK    1  A    between atoms: N1_2  and  N2_4 
REMARK    2  A    between atoms: N1_2  and  C3_7 
ROOT
HETATM    1  C1  UNL     1      36.928  27.768  32.811  1.00  0.00     0.305 C 
HETATM    2  N1  UNL     1      37.765  26.756  33.434  1.00  0.00     0.033 N 
HETATM    3  C2  UNL     1      37.222  25.409  33.200  1.00  0.00     0.305 C 
ENDROOT
BRANCH   2   4
HETATM    4  N2  UNL     1      39.028  26.785  32.861  1.00  0.00    -0.259 N 
ATOM      5  H22 UNL     1      39.846  26.307  33.240  1.00  0.00     0.183 HD
ATOM      6  H21 UNL     1      39.002  27.353  32.014  1.00  0.00     0.183 HD
ENDBRANCH   2   4
BRANCH   2   7
HETATM    7  C3  UNL     1      37.793  26.981  34.872  1.00  0.00     0.431 A 
HETATM    8  N3  UNL     1      37.800  28.254  35.436  1.00  0.00    -0.091 NA
HETATM    9  N4  UNL     1      39.019  27.616  35.352  1.00  0.00    -0.091 NA
ENDBRANCH   2   7
TORSDOF 2
ENDMDL
