MODEL 1
REMARK VINA RESULT: -4.047299502      0.000      0.000
REMARK  4 active torsions:
REMARK  status: ('A' for Active; 'I' for Inactive)
REMARK    1  A    between atoms: O1_2  and  N1_3 
REMARK    2  A    between atoms: N1_3  and  O2_4 
REMARK    3  A    between atoms: N1_3  and  N2_6 
REMARK    4  A    between atoms: N2_6  and  C2_8 
ROOT
HETATM    1  N2  UNL     1      37.945  27.010  32.862  1.00  0.00    -0.268 N 
ATOM      2  H2  UNL     1      38.959  27.076  32.770  1.00  0.00     0.186 HD
ENDROOT
BRANCH   1   3
HETATM    3  N1  UNL     1      37.182  27.699  33.811  1.00  0.00     0.035 NA
BRANCH   3   4
HETATM    4  O1  UNL     1      37.949  28.261  34.771  1.00  0.00    -0.266 OA
HETATM    5  C1  UNL     1      38.093  27.497  35.895  1.00  0.00     0.234 C 
ENDBRANCH   3   4
BRANCH   3   6
HETATM    6  O2  UNL     1      36.604  28.745  33.140  1.00  0.00    -0.271 OA
ATOM      7  H2  UNL     1      35.936  29.085  33.724  1.00  0.00     0.241 HD
ENDBRANCH   3   6
ENDBRANCH   1   3
BRANCH   1   8
HETATM    8  C2  UNL     1      37.106  26.208  32.046  1.00  0.00     0.190 C 
HETATM    9  N3  UNL     1      36.591  26.650  30.957  1.00  0.00    -0.394 N 
ATOM     10  H32 UNL     1      36.802  27.611  30.684  1.00  0.00     0.156 HD
ATOM     11  H31 UNL     1      35.988  26.074  30.370  1.00  0.00     0.156 HD
ENDBRANCH   1   8
TORSDOF 4
ENDMDL
MODEL 2
REMARK VINA RESULT: -4.023469708      2.073      2.404
REMARK  4 active torsions:
REMARK  status: ('A' for Active; 'I' for Inactive)
REMARK    1  A    between atoms: O1_2  and  N1_3 
REMARK    2  A    between atoms: N1_3  and  O2_4 
REMARK    3  A    between atoms: N1_3  and  N2_6 
REMARK    4  A    between atoms: N2_6  and  C2_8 
ROOT
HETATM    1  N2  UNL     1      36.668  26.663  30.987  1.00  0.00    -0.268 N 
ATOM      2  H2  UNL     1      36.631  27.560  30.502  1.00  0.00     0.186 HD
ENDROOT
BRANCH   1   3
HETATM    3  N1  UNL     1      37.521  26.366  32.055  1.00  0.00     0.035 NA
BRANCH   3   4
HETATM    4  O1  UNL     1      37.360  27.221  33.089  1.00  0.00    -0.266 OA
HETATM    5  C1  UNL     1      38.054  26.877  34.215  1.00  0.00     0.234 C 
ENDBRANCH   3   4
BRANCH   3   6
HETATM    6  O2  UNL     1      37.121  25.141  32.524  1.00  0.00    -0.271 OA
ATOM      7  H2  UNL     1      37.597  25.012  33.337  1.00  0.00     0.241 HD
ENDBRANCH   3   6
ENDBRANCH   1   3
BRANCH   1   8
HETATM    8  C2  UNL     1      35.860  25.539  30.677  1.00  0.00     0.190 C 
HETATM    9  N3  UNL     1      34.604  25.648  30.436  1.00  0.00    -0.394 N 
ATOM     10  H32 UNL     1      34.189  26.579  30.473  1.00  0.00     0.156 HD
ATOM     11  H31 UNL     1      34.023  24.839  30.213  1.00  0.00     0.156 HD
ENDBRANCH   1   8
TORSDOF 4
ENDMDL
MODEL 3
REMARK VINA RESULT: -3.988115960      1.441      1.621
REMARK  4 active torsions:
REMARK  status: ('A' for Active; 'I' for Inactive)
REMARK    1  A    between atoms: O1_2  and  N1_3 
REMARK    2  A    between atoms: N1_3  and  O2_4 
REMARK    3  A    between atoms: N1_3  and  N2_6 
REMARK    4  A    between atoms: N2_6  and  C2_8 
ROOT
HETATM    1  N2  UNL     1      36.597  27.396  32.373  1.00  0.00    -0.268 N 
ATOM      2  H2  UNL     1      36.002  28.113  32.789  1.00  0.00     0.186 HD
ENDROOT
BRANCH   1   3
HETATM    3  N1  UNL     1      37.853  27.017  32.858  1.00  0.00     0.035 NA
BRANCH   3   4
HETATM    4  O1  UNL     1      38.290  27.840  33.838  1.00  0.00    -0.266 OA
HETATM    5  C1  UNL     1      37.959  27.434  35.100  1.00  0.00     0.234 C 
ENDBRANCH   3   4
BRANCH   3   6
HETATM    6  O2  UNL     1      37.671  25.797  33.456  1.00  0.00    -0.271 OA
ATOM      7  H2  UNL     1      38.152  25.176  32.921  1.00  0.00     0.241 HD
ENDBRANCH   3   6
ENDBRANCH   1   3
BRANCH   1   8
HETATM    8  C2  UNL     1      36.268  26.639  31.218  1.00  0.00     0.190 C 
HETATM    9  N3  UNL     1      37.077  25.780  30.714  1.00  0.00    -0.394 N 
ATOM     10  H32 UNL     1      37.980  25.648  31.171  1.00  0.00     0.156 HD
ATOM     11  H31 UNL     1      36.841  25.236  29.884  1.00  0.00     0.156 HD
ENDBRANCH   1   8
TORSDOF 4
ENDMDL
MODEL 4
REMARK VINA RESULT: -3.960220767      8.632      9.457
REMARK  4 active torsions:
REMARK  status: ('A' for Active; 'I' for Inactive)
REMARK    1  A    between atoms: O1_2  and  N1_3 
REMARK    2  A    between atoms: N1_3  and  O2_4 
REMARK    3  A    between atoms: N1_3  and  N2_6 
REMARK    4  A    between atoms: N2_6  and  C2_8 
ROOT
HETATM    1  N2  UNL     1      32.213  33.408  27.895  1.00  0.00    -0.268 N 
ATOM      2  H2  UNL     1      32.660  34.319  27.996  1.00  0.00     0.186 HD
ENDROOT
BRANCH   1   3
HETATM    3  N1  UNL     1      32.780  32.191  28.289  1.00  0.00     0.035 NA
BRANCH   3   4
HETATM    4  O1  UNL     1      31.895  31.405  28.942  1.00  0.00    -0.266 OA
HETATM    5  C1  UNL     1      31.415  31.944  30.102  1.00  0.00     0.234 C 
ENDBRANCH   3   4
BRANCH   3   6
HETATM    6  O2  UNL     1      33.079  31.524  27.129  1.00  0.00    -0.271 OA
ATOM      7  H2  UNL     1      33.512  32.161  26.572  1.00  0.00     0.241 HD
ENDBRANCH   3   6
ENDBRANCH   1   3
BRANCH   1   8
HETATM    8  C2  UNL     1      30.927  33.192  27.336  1.00  0.00     0.190 C 
HETATM    9  N3  UNL     1      30.240  34.144  26.818  1.00  0.00    -0.394 N 
ATOM     10  H32 UNL     1      30.647  35.080  26.816  1.00  0.00     0.156 HD
ATOM     11  H31 UNL     1      29.316  33.989  26.417  1.00  0.00     0.156 HD
ENDBRANCH   1   8
TORSDOF 4
ENDMDL
MODEL 5
REMARK VINA RESULT: -3.908774640      1.455      3.102
REMARK  4 active torsions:
REMARK  status: ('A' for Active; 'I' for Inactive)
REMARK    1  A    between atoms: O1_2  and  N1_3 
REMARK    2  A    between atoms: N1_3  and  O2_4 
REMARK    3  A    between atoms: N1_3  and  N2_6 
REMARK    4  A    between atoms: N2_6  and  C2_8 
ROOT
HETATM    1  N2  UNL     1      38.322  27.390  33.608  1.00  0.00    -0.268 N 
ATOM      2  H2  UNL     1      39.249  27.325  33.186  1.00  0.00     0.186 HD
ENDROOT
BRANCH   1   3
HETATM    3  N1  UNL     1      37.183  27.885  32.965  1.00  0.00     0.035 NA
BRANCH   3   4
HETATM    4  O1  UNL     1      36.385  26.894  32.508  1.00  0.00    -0.266 OA
HETATM    5  C1  UNL     1      36.309  26.817  31.146  1.00  0.00     0.234 C 
ENDBRANCH   3   4
BRANCH   3   6
HETATM    6  O2  UNL     1      36.455  28.528  33.932  1.00  0.00    -0.271 OA
ATOM      7  H2  UNL     1      35.765  28.988  33.469  1.00  0.00     0.241 HD
ENDBRANCH   3   6
ENDBRANCH   1   3
BRANCH   1   8
HETATM    8  C2  UNL     1      38.004  26.990  34.932  1.00  0.00     0.190 C 
HETATM    9  N3  UNL     1      37.569  25.814  35.202  1.00  0.00    -0.394 N 
ATOM     10  H32 UNL     1      37.455  25.157  34.430  1.00  0.00     0.156 HD
ATOM     11  H31 UNL     1      37.340  25.527  36.154  1.00  0.00     0.156 HD
ENDBRANCH   1   8
TORSDOF 4
ENDMDL
