MODEL 1
REMARK VINA RESULT: -5.012602864      0.000      0.000
REMARK  1 active torsions:
REMARK  status: ('A' for Active; 'I' for Inactive)
REMARK    1  A    between atoms: N1_1  and  C1_4 
ROOT
HETATM    1  C1  UNL     1      30.908  28.144   1.900  1.00  0.00     0.169 C 
HETATM    2  N2  UNL     1      31.022  27.376   0.812  1.00  0.00    -0.334 N 
ATOM      3  H2  UNL     1      31.952  27.346   0.394  1.00  0.00     0.168 HD
HETATM    4  C2  UNL     1      30.087  26.637   0.187  1.00  0.00     0.186 C 
HETATM    5  N3  UNL     1      28.813  26.418   0.574  1.00  0.00    -0.305 N 
ATOM      6  H3  UNL     1      28.351  25.646   0.094  1.00  0.00     0.171 HD
HETATM    7  C3  UNL     1      28.042  27.055   1.495  1.00  0.00     0.328 C 
HETATM    8  O1  UNL     1      26.875  26.622   1.675  1.00  0.00    -0.247 OA
HETATM    9  N4  UNL     1      28.459  28.117   2.219  1.00  0.00    -0.272 N 
ATOM     10  H4  UNL     1      27.715  28.658   2.660  1.00  0.00     0.174 HD
HETATM   11  C4  UNL     1      29.706  28.570   2.445  1.00  0.00     0.293 C 
HETATM   12  O2  UNL     1      29.860  29.523   3.267  1.00  0.00    -0.264 OA
ENDROOT
BRANCH   1  13
HETATM   13  N1  UNL     1      31.995  28.515   2.483  1.00  0.00    -0.381 N 
ATOM     14  H12 UNL     1      32.862  28.468   1.946  1.00  0.00     0.157 HD
ATOM     15  H11 UNL     1      31.926  28.834   3.450  1.00  0.00     0.157 HD
ENDBRANCH   1  13
TORSDOF 1
ENDMDL
MODEL 2
REMARK VINA RESULT: -4.799339419      1.533      3.442
REMARK  1 active torsions:
REMARK  status: ('A' for Active; 'I' for Inactive)
REMARK    1  A    between atoms: N1_1  and  C1_4 
ROOT
HETATM    1  C1  UNL     1      29.641  28.223   0.567  1.00  0.00     0.169 C 
HETATM    2  N2  UNL     1      30.867  28.581   0.172  1.00  0.00    -0.334 N 
ATOM      3  H2  UNL     1      31.059  28.456  -0.822  1.00  0.00     0.168 HD
HETATM    4  C2  UNL     1      31.884  29.082   0.896  1.00  0.00     0.186 C 
HETATM    5  N3  UNL     1      31.876  29.437   2.197  1.00  0.00    -0.305 N 
ATOM      6  H3  UNL     1      32.668  30.012   2.485  1.00  0.00     0.171 HD
HETATM    7  C3  UNL     1      30.989  29.157   3.189  1.00  0.00     0.328 C 
HETATM    8  O1  UNL     1      31.217  29.643   4.327  1.00  0.00    -0.247 OA
HETATM    9  N4  UNL     1      29.889  28.392   3.019  1.00  0.00    -0.272 N 
ATOM     10  H4  UNL     1      29.468  28.042   3.880  1.00  0.00     0.174 HD
HETATM   11  C4  UNL     1      29.263  28.023   1.886  1.00  0.00     0.293 C 
HETATM   12  O2  UNL     1      28.163  27.397   1.983  1.00  0.00    -0.264 OA
ENDROOT
BRANCH   1  13
HETATM   13  N1  UNL     1      28.748  28.053  -0.345  1.00  0.00    -0.381 N 
ATOM     14  H12 UNL     1      28.534  28.843  -0.954  1.00  0.00     0.157 HD
ATOM     15  H11 UNL     1      28.306  27.136  -0.406  1.00  0.00     0.157 HD
ENDBRANCH   1  13
TORSDOF 1
ENDMDL
MODEL 3
REMARK VINA RESULT: -4.674437287      1.323      1.440
REMARK  1 active torsions:
REMARK  status: ('A' for Active; 'I' for Inactive)
REMARK    1  A    between atoms: N1_1  and  C1_4 
ROOT
HETATM    1  C1  UNL     1      31.129  28.774   2.526  1.00  0.00     0.169 C 
HETATM    2  N2  UNL     1      31.909  28.013   1.752  1.00  0.00    -0.334 N 
ATOM      3  H2  UNL     1      32.899  28.012   1.997  1.00  0.00     0.168 HD
HETATM    4  C2  UNL     1      31.578  27.248   0.696  1.00  0.00     0.186 C 
HETATM    5  N3  UNL     1      30.343  26.989   0.218  1.00  0.00    -0.305 N 
ATOM      6  H3  UNL     1      30.295  26.204  -0.432  1.00  0.00     0.171 HD
HETATM    7  C3  UNL     1      29.152  27.600   0.457  1.00  0.00     0.328 C 
HETATM    8  O1  UNL     1      28.133  27.131  -0.114  1.00  0.00    -0.247 OA
HETATM    9  N4  UNL     1      29.006  28.672   1.266  1.00  0.00    -0.272 N 
ATOM     10  H4  UNL     1      28.135  29.189   1.146  1.00  0.00     0.174 HD
HETATM   11  C4  UNL     1      29.836  29.162   2.205  1.00  0.00     0.293 C 
HETATM   12  O2  UNL     1      29.426  30.117   2.932  1.00  0.00    -0.264 OA
ENDROOT
BRANCH   1  13
HETATM   13  N1  UNL     1      31.615  29.175   3.648  1.00  0.00    -0.381 N 
ATOM     14  H12 UNL     1      31.319  30.088   3.995  1.00  0.00     0.157 HD
ATOM     15  H11 UNL     1      32.269  28.556   4.128  1.00  0.00     0.157 HD
ENDBRANCH   1  13
TORSDOF 1
ENDMDL
MODEL 4
REMARK VINA RESULT: -4.633036704      0.973      3.249
REMARK  1 active torsions:
REMARK  status: ('A' for Active; 'I' for Inactive)
REMARK    1  A    between atoms: N1_1  and  C1_4 
ROOT
HETATM    1  C1  UNL     1      28.710  26.482   0.395  1.00  0.00     0.169 C 
HETATM    2  N2  UNL     1      30.032  26.537   0.207  1.00  0.00    -0.334 N 
ATOM      3  H2  UNL     1      30.405  25.870  -0.469  1.00  0.00     0.168 HD
HETATM    4  C2  UNL     1      30.942  27.346   0.779  1.00  0.00     0.186 C 
HETATM    5  N3  UNL     1      30.720  28.374   1.624  1.00  0.00    -0.305 N 
ATOM      6  H3  UNL     1      31.515  28.999   1.750  1.00  0.00     0.171 HD
HETATM    7  C3  UNL     1      29.612  28.714   2.336  1.00  0.00     0.328 C 
HETATM    8  O1  UNL     1      29.672  29.755   3.041  1.00  0.00    -0.247 OA
HETATM    9  N4  UNL     1      28.464  28.002   2.327  1.00  0.00    -0.272 N 
ATOM     10  H4  UNL     1      27.824  28.204   3.095  1.00  0.00     0.174 HD
HETATM   11  C4  UNL     1      28.038  27.066   1.459  1.00  0.00     0.293 C 
HETATM   12  O2  UNL     1      26.858  26.619   1.588  1.00  0.00    -0.264 OA
ENDROOT
BRANCH   1  13
HETATM   13  N1  UNL     1      28.011  25.839  -0.474  1.00  0.00    -0.381 N 
ATOM     14  H12 UNL     1      28.097  24.822  -0.495  1.00  0.00     0.157 HD
ATOM     15  H11 UNL     1      27.411  26.384  -1.093  1.00  0.00     0.157 HD
ENDBRANCH   1  13
TORSDOF 1
ENDMDL
MODEL 5
REMARK VINA RESULT: -4.495195587      1.913      3.883
REMARK  1 active torsions:
REMARK  status: ('A' for Active; 'I' for Inactive)
REMARK    1  A    between atoms: N1_1  and  C1_4 
ROOT
HETATM    1  C1  UNL     1      28.752  27.641   1.814  1.00  0.00     0.169 C 
HETATM    2  N2  UNL     1      29.230  28.535   2.685  1.00  0.00    -0.334 N 
ATOM      3  H2  UNL     1      28.528  29.011   3.252  1.00  0.00     0.168 HD
HETATM    4  C2  UNL     1      30.504  28.898   2.922  1.00  0.00     0.186 C 
HETATM    5  N3  UNL     1      31.626  28.368   2.394  1.00  0.00    -0.305 N 
ATOM      6  H3  UNL     1      32.486  28.622   2.881  1.00  0.00     0.171 HD
HETATM    7  C3  UNL     1      31.803  27.552   1.321  1.00  0.00     0.328 C 
HETATM    8  O1  UNL     1      32.978  27.183   1.059  1.00  0.00    -0.247 OA
HETATM    9  N4  UNL     1      30.797  27.122   0.529  1.00  0.00    -0.272 N 
ATOM     10  H4  UNL     1      31.086  26.753  -0.377  1.00  0.00     0.174 HD
HETATM   11  C4  UNL     1      29.470  27.108   0.754  1.00  0.00     0.293 C 
HETATM   12  O2  UNL     1      28.722  26.536  -0.096  1.00  0.00    -0.264 OA
ENDROOT
BRANCH   1  13
HETATM   13  N1  UNL     1      27.536  27.248   1.972  1.00  0.00    -0.381 N 
ATOM     14  H12 UNL     1      26.919  27.830   2.539  1.00  0.00     0.157 HD
ATOM     15  H11 UNL     1      27.259  26.376   1.520  1.00  0.00     0.157 HD
ENDBRANCH   1  13
TORSDOF 1
ENDMDL
