MODEL 1
REMARK VINA RESULT: -5.321537625      0.000      0.000
REMARK  1 active torsions:
REMARK  status: ('A' for Active; 'I' for Inactive)
REMARK    1  A    between atoms: N1_1  and  C1_4 
ROOT
HETATM    1  C1  UNL     1      31.354  28.597   2.625  1.00  0.00     0.146 A 
HETATM    2  N2  UNL     1      32.267  28.181   1.739  1.00  0.00    -0.282 N 
ATOM      3  H2  UNL     1      33.260  28.408   1.786  1.00  0.00     0.188 HD
HETATM    4  N3  UNL     1      31.710  27.435   0.792  1.00  0.00    -0.282 N 
ATOM      5  H3  UNL     1      32.210  27.009   0.011  1.00  0.00     0.188 HD
HETATM    6  C2  UNL     1      30.390  27.325   1.015  1.00  0.00     0.156 A 
HETATM    7  N4  UNL     1      29.329  26.729   0.439  1.00  0.00    -0.290 N 
ATOM      8  H4  UNL     1      29.471  26.185  -0.412  1.00  0.00     0.172 HD
HETATM    9  C3  UNL     1      28.086  26.829   0.951  1.00  0.00     0.340 A 
HETATM   10  O1  UNL     1      27.096  26.252   0.382  1.00  0.00    -0.245 OA
HETATM   11  N5  UNL     1      27.873  27.540   2.070  1.00  0.00    -0.251 N 
ATOM     12  H5  UNL     1      26.929  27.610   2.450  1.00  0.00     0.191 HD
HETATM   13  N6  UNL     1      28.865  28.150   2.687  1.00  0.00    -0.290 N 
ATOM     14  H6  UNL     1      28.671  28.682   3.535  1.00  0.00     0.187 HD
HETATM   15  C4  UNL     1      30.122  28.089   2.229  1.00  0.00     0.139 A 
ENDROOT
BRANCH   1  16
HETATM   16  N1  UNL     1      31.560  29.339   3.667  1.00  0.00    -0.382 N 
ATOM     17  H12 UNL     1      32.440  29.800   3.900  1.00  0.00     0.157 HD
ATOM     18  H11 UNL     1      30.887  29.571   4.398  1.00  0.00     0.157 HD
ENDBRANCH   1  16
TORSDOF 1
ENDMDL
MODEL 2
REMARK VINA RESULT: -5.127569424      2.485      4.132
REMARK  1 active torsions:
REMARK  status: ('A' for Active; 'I' for Inactive)
REMARK    1  A    between atoms: N1_1  and  C1_4 
ROOT
HETATM    1  C1  UNL     1      29.524  28.035  -0.242  1.00  0.00     0.146 A 
HETATM    2  N2  UNL     1      28.392  27.502   0.235  1.00  0.00    -0.282 N 
ATOM      3  H2  UNL     1      27.679  27.055  -0.341  1.00  0.00     0.188 HD
HETATM    4  N3  UNL     1      28.320  27.633   1.555  1.00  0.00    -0.282 N 
ATOM      5  H3  UNL     1      27.548  27.303   2.135  1.00  0.00     0.188 HD
HETATM    6  C2  UNL     1      29.414  28.264   2.011  1.00  0.00     0.156 A 
HETATM    7  N4  UNL     1      29.906  28.673   3.195  1.00  0.00    -0.290 N 
ATOM      8  H4  UNL     1      29.365  28.497   4.041  1.00  0.00     0.172 HD
HETATM    9  C3  UNL     1      31.091  29.307   3.299  1.00  0.00     0.340 A 
HETATM   10  O1  UNL     1      31.535  29.685   4.437  1.00  0.00    -0.245 OA
HETATM   11  N5  UNL     1      31.823  29.551   2.198  1.00  0.00    -0.251 N 
ATOM     12  H5  UNL     1      32.719  30.031   2.287  1.00  0.00     0.191 HD
HETATM   13  N6  UNL     1      31.403  29.178   1.006  1.00  0.00    -0.290 N 
ATOM     14  H6  UNL     1      31.982  29.378   0.191  1.00  0.00     0.187 HD
HETATM   15  C4  UNL     1      30.235  28.545   0.838  1.00  0.00     0.139 A 
ENDROOT
BRANCH   1  16
HETATM   16  N1  UNL     1      29.905  28.077  -1.480  1.00  0.00    -0.382 N 
ATOM     17  H12 UNL     1      29.494  27.541  -2.244  1.00  0.00     0.157 HD
ATOM     18  H11 UNL     1      30.659  28.642  -1.870  1.00  0.00     0.157 HD
ENDBRANCH   1  16
TORSDOF 1
ENDMDL
MODEL 3
REMARK VINA RESULT: -5.000195923      2.146      4.128
REMARK  1 active torsions:
REMARK  status: ('A' for Active; 'I' for Inactive)
REMARK    1  A    between atoms: N1_1  and  C1_4 
ROOT
HETATM    1  C1  UNL     1      28.988  26.269   0.027  1.00  0.00     0.146 A 
HETATM    2  N2  UNL     1      27.701  26.329   0.390  1.00  0.00    -0.282 N 
ATOM      3  H2  UNL     1      26.946  25.829  -0.079  1.00  0.00     0.188 HD
HETATM    4  N3  UNL     1      27.537  27.125   1.440  1.00  0.00    -0.282 N 
ATOM      5  H3  UNL     1      26.643  27.324   1.891  1.00  0.00     0.188 HD
HETATM    6  C2  UNL     1      28.721  27.630   1.820  1.00  0.00     0.156 A 
HETATM    7  N4  UNL     1      29.192  28.458   2.770  1.00  0.00    -0.290 N 
ATOM      8  H4  UNL     1      28.537  28.867   3.436  1.00  0.00     0.172 HD
HETATM    9  C3  UNL     1      30.501  28.765   2.870  1.00  0.00     0.340 A 
HETATM   10  O1  UNL     1      30.921  29.556   3.784  1.00  0.00    -0.245 OA
HETATM   11  N5  UNL     1      31.384  28.240   2.004  1.00  0.00    -0.251 N 
ATOM     12  H5  UNL     1      32.372  28.478   2.088  1.00  0.00     0.191 HD
HETATM   13  N6  UNL     1      30.994  27.421   1.049  1.00  0.00    -0.290 N 
ATOM     14  H6  UNL     1      31.688  27.039   0.408  1.00  0.00     0.187 HD
HETATM   15  C4  UNL     1      29.708  27.078   0.897  1.00  0.00     0.139 A 
ENDROOT
BRANCH   1  16
HETATM   16  N1  UNL     1      29.490  25.586  -0.954  1.00  0.00    -0.382 N 
ATOM     17  H12 UNL     1      28.957  25.157  -1.710  1.00  0.00     0.157 HD
ATOM     18  H11 UNL     1      30.476  25.380  -1.116  1.00  0.00     0.157 HD
ENDBRANCH   1  16
TORSDOF 1
ENDMDL
MODEL 4
REMARK VINA RESULT: -4.909700971      0.932      2.119
REMARK  1 active torsions:
REMARK  status: ('A' for Active; 'I' for Inactive)
REMARK    1  A    between atoms: N1_1  and  C1_4 
ROOT
HETATM    1  C1  UNL     1      31.795  27.926   1.429  1.00  0.00     0.146 A 
HETATM    2  N2  UNL     1      31.784  28.724   2.503  1.00  0.00    -0.282 N 
ATOM      3  H2  UNL     1      32.606  29.195   2.880  1.00  0.00     0.188 HD
HETATM    4  N3  UNL     1      30.562  28.820   3.015  1.00  0.00    -0.282 N 
ATOM      5  H3  UNL     1      30.312  29.372   3.836  1.00  0.00     0.188 HD
HETATM    6  C2  UNL     1      29.705  28.082   2.292  1.00  0.00     0.156 A 
HETATM    7  N4  UNL     1      28.392  27.784   2.302  1.00  0.00    -0.290 N 
ATOM      8  H4  UNL     1      27.801  28.187   3.029  1.00  0.00     0.172 HD
HETATM    9  C3  UNL     1      27.834  26.970   1.384  1.00  0.00     0.340 A 
HETATM   10  O1  UNL     1      26.583  26.704   1.418  1.00  0.00    -0.245 OA
HETATM   11  N5  UNL     1      28.592  26.427   0.417  1.00  0.00    -0.251 N 
ATOM     12  H5  UNL     1      28.160  25.812  -0.274  1.00  0.00     0.191 HD
HETATM   13  N6  UNL     1      29.884  26.674   0.345  1.00  0.00    -0.290 N 
ATOM     14  H6  UNL     1      30.431  26.246  -0.401  1.00  0.00     0.187 HD
HETATM   15  C4  UNL     1      30.497  27.473   1.227  1.00  0.00     0.139 A 
ENDROOT
BRANCH   1  16
HETATM   16  N1  UNL     1      32.820  27.619   0.697  1.00  0.00    -0.382 N 
ATOM     17  H12 UNL     1      32.963  27.908  -0.271  1.00  0.00     0.157 HD
ATOM     18  H11 UNL     1      33.623  27.053   0.972  1.00  0.00     0.157 HD
ENDBRANCH   1  16
TORSDOF 1
ENDMDL
MODEL 5
REMARK VINA RESULT: -4.796536747      2.408      3.664
REMARK  1 active torsions:
REMARK  status: ('A' for Active; 'I' for Inactive)
REMARK    1  A    between atoms: N1_1  and  C1_4 
ROOT
HETATM    1  C1  UNL     1      29.205  27.615  -0.484  1.00  0.00     0.146 A 
HETATM    2  N2  UNL     1      30.183  26.739  -0.746  1.00  0.00    -0.282 N 
ATOM      3  H2  UNL     1      30.199  26.119  -1.555  1.00  0.00     0.188 HD
HETATM    4  N3  UNL     1      31.127  26.783   0.187  1.00  0.00    -0.282 N 
ATOM      5  H3  UNL     1      31.968  26.205   0.197  1.00  0.00     0.188 HD
HETATM    6  C2  UNL     1      30.811  27.701   1.115  1.00  0.00     0.156 A 
HETATM    7  N4  UNL     1      31.337  28.190   2.253  1.00  0.00    -0.290 N 
ATOM      8  H4  UNL     1      32.228  27.818   2.583  1.00  0.00     0.172 HD
HETATM    9  C3  UNL     1      30.726  29.153   2.970  1.00  0.00     0.340 A 
HETATM   10  O1  UNL     1      31.250  29.599   4.049  1.00  0.00    -0.245 OA
HETATM   11  N5  UNL     1      29.552  29.659   2.556  1.00  0.00    -0.251 N 
ATOM     12  H5  UNL     1      29.097  30.388   3.105  1.00  0.00     0.191 HD
HETATM   13  N6  UNL     1      28.978  29.227   1.451  1.00  0.00    -0.290 N 
ATOM     14  H6  UNL     1      28.087  29.632   1.164  1.00  0.00     0.187 HD
HETATM   15  C4  UNL     1      29.534  28.272   0.695  1.00  0.00     0.139 A 
ENDROOT
BRANCH   1  16
HETATM   16  N1  UNL     1      28.138  27.827  -1.189  1.00  0.00    -0.382 N 
ATOM     17  H12 UNL     1      28.050  28.516  -1.936  1.00  0.00     0.157 HD
ATOM     18  H11 UNL     1      27.243  27.346  -1.106  1.00  0.00     0.157 HD
ENDBRANCH   1  16
TORSDOF 1
ENDMDL
