MODEL 1
REMARK VINA RESULT: -4.633840955      0.000      0.000
REMARK  1 active torsions:
REMARK  status: ('A' for Active; 'I' for Inactive)
REMARK    1  A    between atoms: N1_1  and  C1_4 
ROOT
HETATM    1  C1  UNL     1      30.814  28.239   2.179  1.00  0.00     0.707 A 
HETATM    2  N2  UNL     1      30.574  27.510   1.075  1.00  0.00    -0.018 N 
ATOM      3  H2  UNL     1      31.258  27.266   0.359  1.00  0.00     0.203 HD
HETATM    4  C2  UNL     1      29.276  27.156   1.079  1.00  0.00     0.738 A 
HETATM    5  N3  UNL     1      28.294  26.486   0.411  1.00  0.00    -0.136 N 
ATOM      6  H3  UNL     1      28.419  25.991  -0.471  1.00  0.00     0.189 HD
HETATM    7  C3  UNL     1      27.149  26.575   1.082  1.00  0.00     0.355 A 
HETATM    8  O1  UNL     1      26.051  26.055   0.718  1.00  0.00    -0.245 OA
HETATM    9  N4  UNL     1      27.410  27.308   2.183  1.00  0.00    -0.214 N 
ATOM     10  H4  UNL     1      26.730  27.552   2.903  1.00  0.00     0.194 HD
HETATM   11  N5  UNL     1      28.692  27.662   2.187  1.00  0.00    -0.001 N 
HETATM   12  N6  UNL     1      29.644  28.313   2.837  1.00  0.00    -0.095 N 
ATOM     13  H6  UNL     1      29.507  28.806   3.720  1.00  0.00     0.208 HD
ENDROOT
BRANCH   1  14
HETATM   14  N1  UNL     1      31.946  28.773   2.551  1.00  0.00    -0.233 N 
ATOM     15  H12 UNL     1      32.846  28.665   2.085  1.00  0.00     0.174 HD
ATOM     16  H11 UNL     1      32.115  29.376   3.355  1.00  0.00     0.174 HD
ENDBRANCH   1  14
TORSDOF 1
ENDMDL
MODEL 2
REMARK VINA RESULT: -4.534943286      2.416      4.040
REMARK  1 active torsions:
REMARK  status: ('A' for Active; 'I' for Inactive)
REMARK    1  A    between atoms: N1_1  and  C1_4 
ROOT
HETATM    1  C1  UNL     1      28.352  26.428   0.248  1.00  0.00     0.707 A 
HETATM    2  N2  UNL     1      27.836  27.212   1.210  1.00  0.00    -0.018 N 
ATOM      3  H2  UNL     1      26.844  27.330   1.416  1.00  0.00     0.203 HD
HETATM    4  C2  UNL     1      28.852  27.813   1.853  1.00  0.00     0.738 A 
HETATM    5  N3  UNL     1      29.194  28.677   2.851  1.00  0.00    -0.136 N 
ATOM      6  H3  UNL     1      28.533  29.157   3.462  1.00  0.00     0.189 HD
HETATM    7  C3  UNL     1      30.517  28.801   2.909  1.00  0.00     0.355 A 
HETATM    8  O1  UNL     1      31.143  29.533   3.734  1.00  0.00    -0.245 OA
HETATM    9  N4  UNL     1      31.015  28.008   1.940  1.00  0.00    -0.214 N 
ATOM     10  H4  UNL     1      32.006  27.885   1.731  1.00  0.00     0.194 HD
HETATM   11  N5  UNL     1      30.016  27.410   1.298  1.00  0.00    -0.001 N 
HETATM   12  N6  UNL     1      29.687  26.571   0.329  1.00  0.00    -0.095 N 
ATOM     13  H6  UNL     1      30.357  26.096  -0.277  1.00  0.00     0.208 HD
ENDROOT
BRANCH   1  14
HETATM   14  N1  UNL     1      27.705  25.674  -0.600  1.00  0.00    -0.233 N 
ATOM     15  H12 UNL     1      27.451  24.696  -0.466  1.00  0.00     0.174 HD
ATOM     16  H11 UNL     1      27.351  25.934  -1.520  1.00  0.00     0.174 HD
ENDBRANCH   1  14
TORSDOF 1
ENDMDL
MODEL 3
REMARK VINA RESULT: -4.528354459      0.596      1.487
REMARK  1 active torsions:
REMARK  status: ('A' for Active; 'I' for Inactive)
REMARK    1  A    between atoms: N1_1  and  C1_4 
ROOT
HETATM    1  C1  UNL     1      30.853  28.275   2.219  1.00  0.00     0.707 A 
HETATM    2  N2  UNL     1      29.679  28.406   2.860  1.00  0.00    -0.018 N 
ATOM      3  H2  UNL     1      29.519  28.947   3.710  1.00  0.00     0.203 HD
HETATM    4  C2  UNL     1      28.751  27.702   2.188  1.00  0.00     0.738 A 
HETATM    5  N3  UNL     1      27.441  27.327   2.144  1.00  0.00    -0.136 N 
ATOM      6  H3  UNL     1      26.730  27.603   2.821  1.00  0.00     0.189 HD
HETATM    7  C3  UNL     1      27.228  26.548   1.087  1.00  0.00     0.355 A 
HETATM    8  O1  UNL     1      26.110  26.039   0.772  1.00  0.00    -0.245 OA
HETATM    9  N4  UNL     1      28.414  26.430   0.458  1.00  0.00    -0.214 N 
ATOM     10  H4  UNL     1      28.579  25.892  -0.393  1.00  0.00     0.194 HD
HETATM   11  N5  UNL     1      29.338  27.123   1.117  1.00  0.00    -0.001 N 
HETATM   12  N6  UNL     1      30.611  27.486   1.157  1.00  0.00    -0.095 N 
ATOM     13  H6  UNL     1      31.314  27.203   0.474  1.00  0.00     0.208 HD
ENDROOT
BRANCH   1  14
HETATM   14  N1  UNL     1      32.003  28.801   2.544  1.00  0.00    -0.233 N 
ATOM     15  H12 UNL     1      32.835  28.844   1.958  1.00  0.00     0.174 HD
ATOM     16  H11 UNL     1      32.255  29.251   3.424  1.00  0.00     0.174 HD
ENDBRANCH   1  14
TORSDOF 1
ENDMDL
MODEL 4
REMARK VINA RESULT: -4.482442609      2.478      3.870
REMARK  1 active torsions:
REMARK  status: ('A' for Active; 'I' for Inactive)
REMARK    1  A    between atoms: N1_1  and  C1_4 
ROOT
HETATM    1  C1  UNL     1      27.953  27.120  -0.489  1.00  0.00     0.707 A 
HETATM    2  N2  UNL     1      28.877  28.089  -0.613  1.00  0.00    -0.018 N 
ATOM      3  H2  UNL     1      29.214  28.486  -1.490  1.00  0.00     0.203 HD
HETATM    4  C2  UNL     1      29.280  28.446   0.620  1.00  0.00     0.738 A 
HETATM    5  N3  UNL     1      30.101  29.264   1.339  1.00  0.00    -0.136 N 
ATOM      6  H3  UNL     1      30.740  29.950   0.939  1.00  0.00     0.189 HD
HETATM    7  C3  UNL     1      29.942  29.033   2.639  1.00  0.00     0.355 A 
HETATM    8  O1  UNL     1      30.565  29.636   3.565  1.00  0.00    -0.245 OA
HETATM    9  N4  UNL     1      29.014  28.062   2.742  1.00  0.00    -0.214 N 
ATOM     10  H4  UNL     1      28.673  27.664   3.617  1.00  0.00     0.194 HD
HETATM   11  N5  UNL     1      28.610  27.703   1.527  1.00  0.00    -0.001 N 
HETATM   12  N6  UNL     1      27.813  26.908   0.831  1.00  0.00    -0.095 N 
ATOM     13  H6  UNL     1      27.176  26.224   1.242  1.00  0.00     0.208 HD
ENDROOT
BRANCH   1  14
HETATM   14  N1  UNL     1      27.313  26.503  -1.444  1.00  0.00    -0.233 N 
ATOM     15  H12 UNL     1      26.489  26.844  -1.938  1.00  0.00     0.174 HD
ATOM     16  H11 UNL     1      27.527  25.592  -1.850  1.00  0.00     0.174 HD
ENDBRANCH   1  14
TORSDOF 1
ENDMDL
MODEL 5
REMARK VINA RESULT: -4.468950706      2.389      3.805
REMARK  1 active torsions:
REMARK  status: ('A' for Active; 'I' for Inactive)
REMARK    1  A    between atoms: N1_1  and  C1_4 
ROOT
HETATM    1  C1  UNL     1      28.301  26.432   0.213  1.00  0.00     0.707 A 
HETATM    2  N2  UNL     1      29.639  26.559   0.263  1.00  0.00    -0.018 N 
ATOM      3  H2  UNL     1      30.308  26.090  -0.347  1.00  0.00     0.203 HD
HETATM    4  C2  UNL     1      29.943  27.413   1.257  1.00  0.00     0.738 A 
HETATM    5  N3  UNL     1      30.950  28.039   1.929  1.00  0.00    -0.136 N 
ATOM      6  H3  UNL     1      31.944  27.932   1.728  1.00  0.00     0.189 HD
HETATM    7  C3  UNL     1      30.444  28.812   2.887  1.00  0.00     0.355 A 
HETATM    8  O1  UNL     1      31.127  29.524   3.683  1.00  0.00    -0.245 OA
HETATM    9  N4  UNL     1      29.105  28.671   2.819  1.00  0.00    -0.214 N 
ATOM     10  H4  UNL     1      28.432  29.140   3.425  1.00  0.00     0.194 HD
HETATM   11  N5  UNL     1      28.796  27.828   1.838  1.00  0.00    -0.001 N 
HETATM   12  N6  UNL     1      27.816  27.220   1.188  1.00  0.00    -0.095 N 
ATOM     13  H6  UNL     1      26.824  27.335   1.398  1.00  0.00     0.208 HD
ENDROOT
BRANCH   1  14
HETATM   14  N1  UNL     1      27.601  25.698  -0.609  1.00  0.00    -0.233 N 
ATOM     15  H12 UNL     1      27.888  25.390  -1.538  1.00  0.00     0.174 HD
ATOM     16  H11 UNL     1      26.667  25.316  -0.462  1.00  0.00     0.174 HD
ENDBRANCH   1  14
TORSDOF 1
ENDMDL
