MODEL 1
REMARK VINA RESULT: -8.416668099      0.000      0.000
REMARK  9 active torsions:
REMARK  status: ('A' for Active; 'I' for Inactive)
REMARK       I    between atoms: N1_2  and  C2_4 
REMARK    1  A    between atoms: C2_4  and  C3_6 
REMARK    2  A    between atoms: C3_6  and  C4_7 
REMARK    3  A    between atoms: C3_6  and  C12_34 
REMARK    4  A    between atoms: N4_11  and  C5_12 
REMARK    5  A    between atoms: C5_12  and  C6_13 
REMARK    6  A    between atoms: C6_13  and  N5_14 
REMARK    7  A    between atoms: C9_19  and  N7_20 
REMARK    8  A    between atoms: C10_25  and  N9_26 
REMARK    9  A    between atoms: C15_41  and  N14_42 
ROOT
HETATM    1  C4  UNL     1      12.740  21.608   4.131  1.00  0.00     0.129 A 
HETATM    2  N2  UNL     1      11.574  21.062   4.560  1.00  0.00    -0.269 N 
ATOM      3  H2  UNL     1      11.489  20.320   5.254  1.00  0.00     0.185 HD
HETATM    4  N3  UNL     1      10.566  21.644   3.936  1.00  0.00    -0.003 NA
HETATM    5  N4  UNL     1      11.039  22.562   3.102  1.00  0.00    -0.215 N 
HETATM    6  N11 UNL     1      12.357  22.529   3.233  1.00  0.00    -0.272 N 
ATOM      7  H11 UNL     1      13.000  23.127   2.715  1.00  0.00     0.189 HD
ENDROOT
BRANCH   5   8
HETATM    8  C5  UNL     1      10.289  23.438   2.219  1.00  0.00     0.187 C 
BRANCH   8   9
HETATM    9  C6  UNL     1      10.022  22.760   0.889  1.00  0.00     0.154 C 
BRANCH   9  10
HETATM   10  N5  UNL     1       8.808  23.269   0.277  1.00  0.00    -0.325 N 
HETATM   11  C7  UNL     1       8.268  24.483   0.363  1.00  0.00     0.185 A 
HETATM   12  N6  UNL     1       7.129  24.536  -0.370  1.00  0.00    -0.346 N 
HETATM   13  C8  UNL     1       6.926  23.344  -0.943  1.00  0.00     0.123 A 
ATOM     14  H6  UNL     1       6.526  25.352  -0.470  1.00  0.00     0.167 HD
HETATM   15  C9  UNL     1       5.932  22.874  -1.773  1.00  0.00     0.145 A 
HETATM   16  C11 UNL     1       7.982  22.553  -0.532  1.00  0.00     0.155 A 
HETATM   17  N8  UNL     1       6.030  21.596  -2.174  1.00  0.00    -0.175 N 
HETATM   18  C10 UNL     1       7.046  20.794  -1.795  1.00  0.00     0.679 A 
ATOM     19  H8  UNL     1       5.309  21.217  -2.789  1.00  0.00     0.186 HD
HETATM   20  N10 UNL     1       8.011  21.288  -0.976  1.00  0.00    -0.174 N 
ATOM     21  H10 UNL     1       8.778  20.680  -0.690  1.00  0.00     0.186 HD
BRANCH  15  22
HETATM   22  N7  UNL     1       4.935  23.585  -2.174  1.00  0.00    -0.383 N 
ATOM     23  H72 UNL     1       5.097  24.547  -2.474  1.00  0.00     0.157 HD
ATOM     24  H71 UNL     1       3.973  23.246  -2.215  1.00  0.00     0.157 HD
ENDBRANCH  15  22
BRANCH  18  25
HETATM   25  N9  UNL     1       7.088  19.575  -2.211  1.00  0.00    -0.234 N 
ATOM     26  H92 UNL     1       6.801  19.332  -3.160  1.00  0.00     0.174 HD
ATOM     27  H91 UNL     1       7.414  18.837  -1.586  1.00  0.00     0.174 HD
ENDBRANCH  18  25
ENDBRANCH   9  10
ENDBRANCH   8   9
ENDBRANCH   5   8
BRANCH   1  28
HETATM   28  C3  UNL     1      14.117  21.232   4.590  1.00  0.00     0.201 C 
BRANCH  28  29
HETATM   29  C2  UNL     1      15.095  22.177   4.057  1.00  0.00     0.234 C 
HETATM   30  N1  UNL     1      15.969  22.873   4.920  1.00  0.00    -0.364 N 
HETATM   31  C1  UNL     1      16.955  23.824   4.422  1.00  0.00     0.149 C 
ATOM     32  H1  UNL     1      15.909  22.706   5.925  1.00  0.00     0.161 HD
HETATM   33  O1  UNL     1      15.171  22.383   2.830  1.00  0.00    -0.272 OA
ENDBRANCH  28  29
BRANCH  28  34
HETATM   34  C12 UNL     1      14.353  19.841   4.205  1.00  0.00     0.074 A 
HETATM   35  N12 UNL     1      14.446  19.534   2.890  1.00  0.00    -0.364 N 
HETATM   36  C13 UNL     1      14.669  18.252   2.532  1.00  0.00     0.105 A 
ATOM     37  H12 UNL     1      14.350  20.259   2.180  1.00  0.00     0.165 HD
HETATM   38  C14 UNL     1      14.808  17.229   3.441  1.00  0.00     0.106 A 
HETATM   39  N13 UNL     1      14.714  17.535   4.756  1.00  0.00    -0.350 N 
HETATM   40  C15 UNL     1      14.489  18.832   5.124  1.00  0.00     0.123 A 
ATOM     41  H13 UNL     1      14.811  16.807   5.464  1.00  0.00     0.166 HD
BRANCH  40  42
HETATM   42  N14 UNL     1      14.394  19.118   6.363  1.00  0.00    -0.384 N 
ATOM     43 2H14 UNL     1      15.180  19.571   6.829  1.00  0.00     0.157 HD
ATOM     44 1H14 UNL     1      13.533  18.881   6.854  1.00  0.00     0.157 HD
ENDBRANCH  40  42
ENDBRANCH  28  34
ENDBRANCH   1  28
TORSDOF 9
ENDMDL
MODEL 2
REMARK VINA RESULT: -8.376074982      1.899      3.125
REMARK  9 active torsions:
REMARK  status: ('A' for Active; 'I' for Inactive)
REMARK       I    between atoms: N1_2  and  C2_4 
REMARK    1  A    between atoms: C2_4  and  C3_6 
REMARK    2  A    between atoms: C3_6  and  C4_7 
REMARK    3  A    between atoms: C3_6  and  C12_34 
REMARK    4  A    between atoms: N4_11  and  C5_12 
REMARK    5  A    between atoms: C5_12  and  C6_13 
REMARK    6  A    between atoms: C6_13  and  N5_14 
REMARK    7  A    between atoms: C9_19  and  N7_20 
REMARK    8  A    between atoms: C10_25  and  N9_26 
REMARK    9  A    between atoms: C15_41  and  N14_42 
ROOT
HETATM    1  C4  UNL     1      12.194  21.185   4.393  1.00  0.00     0.129 A 
HETATM    2  N2  UNL     1      10.881  21.110   4.731  1.00  0.00    -0.269 N 
ATOM      3  H2  UNL     1      10.496  20.534   5.480  1.00  0.00     0.185 HD
HETATM    4  N3  UNL     1      10.182  21.899   3.937  1.00  0.00    -0.003 NA
HETATM    5  N4  UNL     1      11.003  22.495   3.080  1.00  0.00    -0.215 N 
HETATM    6  N11 UNL     1      12.218  22.052   3.370  1.00  0.00    -0.272 N 
ATOM      7  H11 UNL     1      13.064  22.335   2.876  1.00  0.00     0.189 HD
ENDROOT
BRANCH   5   8
HETATM    8  C5  UNL     1      10.665  23.441   2.031  1.00  0.00     0.187 C 
BRANCH   8   9
HETATM    9  C6  UNL     1      10.269  22.717   0.760  1.00  0.00     0.154 C 
BRANCH   9  10
HETATM   10  N5  UNL     1       9.017  23.231   0.233  1.00  0.00    -0.325 N 
HETATM   11  C7  UNL     1       8.486  24.445   0.363  1.00  0.00     0.185 A 
HETATM   12  N6  UNL     1       7.301  24.504  -0.293  1.00  0.00    -0.346 N 
HETATM   13  C8  UNL     1       7.058  23.316  -0.858  1.00  0.00     0.123 A 
ATOM     14  H6  UNL     1       6.693  25.321  -0.346  1.00  0.00     0.167 HD
HETATM   15  C9  UNL     1       6.011  22.853  -1.623  1.00  0.00     0.145 A 
HETATM   16  C11 UNL     1       8.138  22.521  -0.524  1.00  0.00     0.155 A 
HETATM   17  N8  UNL     1       6.080  21.577  -2.039  1.00  0.00    -0.175 N 
HETATM   18  C10 UNL     1       7.118  20.771  -1.733  1.00  0.00     0.679 A 
ATOM     19  H8  UNL     1       5.319  21.203  -2.607  1.00  0.00     0.186 HD
HETATM   20  N10 UNL     1       8.136  21.259  -0.977  1.00  0.00    -0.174 N 
ATOM     21  H10 UNL     1       8.919  20.648  -0.747  1.00  0.00     0.186 HD
BRANCH  15  22
HETATM   22  N7  UNL     1       4.990  23.567  -1.952  1.00  0.00    -0.383 N 
ATOM     23  H72 UNL     1       5.133  24.530  -2.258  1.00  0.00     0.157 HD
ATOM     24  H71 UNL     1       4.027  23.230  -1.929  1.00  0.00     0.157 HD
ENDBRANCH  15  22
BRANCH  18  25
HETATM   25  N9  UNL     1       7.130  19.555  -2.160  1.00  0.00    -0.234 N 
ATOM     26  H92 UNL     1       6.295  19.130  -2.561  1.00  0.00     0.174 HD
ATOM     27  H91 UNL     1       7.988  19.006  -2.097  1.00  0.00     0.174 HD
ENDBRANCH  18  25
ENDBRANCH   9  10
ENDBRANCH   8   9
ENDBRANCH   5   8
BRANCH   1  28
HETATM   28  C3  UNL     1      13.322  20.446   5.049  1.00  0.00     0.201 C 
BRANCH  28  29
HETATM   29  C2  UNL     1      13.362  19.068   4.567  1.00  0.00     0.234 C 
HETATM   30  N1  UNL     1      14.594  18.406   4.376  1.00  0.00    -0.364 N 
HETATM   31  C1  UNL     1      14.669  17.032   3.895  1.00  0.00     0.149 C 
ATOM     32  H1  UNL     1      15.460  18.905   4.580  1.00  0.00     0.161 HD
HETATM   33  O1  UNL     1      12.305  18.456   4.317  1.00  0.00    -0.272 OA
ENDBRANCH  28  29
BRANCH  28  34
HETATM   34  C12 UNL     1      13.160  20.573   6.497  1.00  0.00     0.074 A 
HETATM   35  N12 UNL     1      12.186  19.859   7.110  1.00  0.00    -0.364 N 
HETATM   36  C13 UNL     1      12.037  19.970   8.446  1.00  0.00     0.105 A 
ATOM     37  H12 UNL     1      11.575  19.246   6.570  1.00  0.00     0.165 HD
HETATM   38  C14 UNL     1      12.828  20.778   9.229  1.00  0.00     0.106 A 
HETATM   39  N13 UNL     1      13.801  21.493   8.617  1.00  0.00    -0.350 N 
HETATM   40  C15 UNL     1      13.957  21.384   7.263  1.00  0.00     0.123 A 
ATOM     41  H13 UNL     1      14.411  22.105   9.159  1.00  0.00     0.166 HD
BRANCH  40  42
HETATM   42  N14 UNL     1      14.869  22.063   6.687  1.00  0.00    -0.384 N 
ATOM     43 2H14 UNL     1      15.834  21.963   7.000  1.00  0.00     0.157 HD
ATOM     44 1H14 UNL     1      14.604  22.692   5.930  1.00  0.00     0.157 HD
ENDBRANCH  40  42
ENDBRANCH  28  34
ENDBRANCH   1  28
TORSDOF 9
ENDMDL
MODEL 3
REMARK VINA RESULT: -8.356325723      2.150      3.399
REMARK  9 active torsions:
REMARK  status: ('A' for Active; 'I' for Inactive)
REMARK       I    between atoms: N1_2  and  C2_4 
REMARK    1  A    between atoms: C2_4  and  C3_6 
REMARK    2  A    between atoms: C3_6  and  C4_7 
REMARK    3  A    between atoms: C3_6  and  C12_34 
REMARK    4  A    between atoms: N4_11  and  C5_12 
REMARK    5  A    between atoms: C5_12  and  C6_13 
REMARK    6  A    between atoms: C6_13  and  N5_14 
REMARK    7  A    between atoms: C9_19  and  N7_20 
REMARK    8  A    between atoms: C10_25  and  N9_26 
REMARK    9  A    between atoms: C15_41  and  N14_42 
ROOT
HETATM    1  C4  UNL     1      12.004  21.831   4.751  1.00  0.00     0.129 A 
HETATM    2  N2  UNL     1      10.659  21.651   4.743  1.00  0.00    -0.269 N 
ATOM      3  H2  UNL     1      10.123  21.169   5.465  1.00  0.00     0.185 HD
HETATM    4  N3  UNL     1      10.153  22.198   3.653  1.00  0.00    -0.003 NA
HETATM    5  N4  UNL     1      11.135  22.736   2.939  1.00  0.00    -0.215 N 
HETATM    6  N11 UNL     1      12.249  22.505   3.618  1.00  0.00    -0.272 N 
ATOM      7  H11 UNL     1      13.177  22.803   3.316  1.00  0.00     0.189 HD
ENDROOT
BRANCH   5   8
HETATM    8  C5  UNL     1      11.036  23.439   1.671  1.00  0.00     0.187 C 
BRANCH   8   9
HETATM    9  C6  UNL     1      10.422  22.548   0.609  1.00  0.00     0.154 C 
BRANCH   9  10
HETATM   10  N5  UNL     1       9.155  23.083   0.146  1.00  0.00    -0.325 N 
HETATM   11  C7  UNL     1       8.647  24.303   0.309  1.00  0.00     0.185 A 
HETATM   12  N6  UNL     1       7.434  24.383  -0.290  1.00  0.00    -0.346 N 
HETATM   13  C8  UNL     1       7.148  23.203  -0.852  1.00  0.00     0.123 A 
ATOM     14  H6  UNL     1       6.835  25.209  -0.309  1.00  0.00     0.167 HD
HETATM   15  C9  UNL     1       6.060  22.760  -1.570  1.00  0.00     0.145 A 
HETATM   16  C11 UNL     1       8.232  22.391  -0.575  1.00  0.00     0.155 A 
HETATM   17  N8  UNL     1       6.091  21.486  -1.997  1.00  0.00    -0.175 N 
HETATM   18  C10 UNL     1       7.131  20.665  -1.746  1.00  0.00     0.679 A 
ATOM     19  H8  UNL     1       5.300  21.127  -2.532  1.00  0.00     0.186 HD
HETATM   20  N10 UNL     1       8.190  21.133  -1.036  1.00  0.00    -0.174 N 
ATOM     21  H10 UNL     1       8.975  20.510  -0.847  1.00  0.00     0.186 HD
BRANCH  15  22
HETATM   22  N7  UNL     1       5.034  23.491  -1.846  1.00  0.00    -0.383 N 
ATOM     23  H72 UNL     1       5.068  24.110  -2.656  1.00  0.00     0.157 HD
ATOM     24  H71 UNL     1       4.173  23.494  -1.300  1.00  0.00     0.157 HD
ENDBRANCH  15  22
BRANCH  18  25
HETATM   25  N9  UNL     1       7.107  19.452  -2.182  1.00  0.00    -0.234 N 
ATOM     26  H92 UNL     1       6.554  19.198  -3.001  1.00  0.00     0.174 HD
ATOM     27  H91 UNL     1       7.648  18.731  -1.703  1.00  0.00     0.174 HD
ENDBRANCH  18  25
ENDBRANCH   9  10
ENDBRANCH   8   9
ENDBRANCH   5   8
BRANCH   1  28
HETATM   28  C3  UNL     1      12.956  21.363   5.812  1.00  0.00     0.201 C 
BRANCH  28  29
HETATM   29  C2  UNL     1      12.257  21.238   7.088  1.00  0.00     0.234 C 
HETATM   30  N1  UNL     1      12.127  19.982   7.719  1.00  0.00    -0.364 N 
HETATM   31  C1  UNL     1      11.435  19.822   8.992  1.00  0.00     0.149 C 
ATOM     32  H1  UNL     1      12.530  19.159   7.270  1.00  0.00     0.161 HD
HETATM   33  O1  UNL     1      11.764  22.242   7.639  1.00  0.00    -0.272 OA
ENDBRANCH  28  29
BRANCH  28  34
HETATM   34  C12 UNL     1      14.091  22.286   5.835  1.00  0.00     0.074 A 
HETATM   35  N12 UNL     1      13.859  23.600   6.066  1.00  0.00    -0.364 N 
HETATM   36  C13 UNL     1      14.904  24.452   6.092  1.00  0.00     0.105 A 
ATOM     37  H12 UNL     1      12.910  23.940   6.217  1.00  0.00     0.165 HD
HETATM   38  C14 UNL     1      16.207  24.055   5.896  1.00  0.00     0.106 A 
HETATM   39  N13 UNL     1      16.438  22.742   5.665  1.00  0.00    -0.350 N 
HETATM   40  C15 UNL     1      15.383  21.874   5.636  1.00  0.00     0.123 A 
ATOM     41  H13 UNL     1      17.389  22.404   5.513  1.00  0.00     0.166 HD
BRANCH  40  42
HETATM   42  N14 UNL     1      15.602  20.638   5.412  1.00  0.00    -0.384 N 
ATOM     43 2H14 UNL     1      15.901  20.039   6.182  1.00  0.00     0.157 HD
ATOM     44 1H14 UNL     1      15.476  20.285   4.464  1.00  0.00     0.157 HD
ENDBRANCH  40  42
ENDBRANCH  28  34
ENDBRANCH   1  28
TORSDOF 9
ENDMDL
MODEL 4
REMARK VINA RESULT: -8.340900735      1.743      2.349
REMARK  9 active torsions:
REMARK  status: ('A' for Active; 'I' for Inactive)
REMARK       I    between atoms: N1_2  and  C2_4 
REMARK    1  A    between atoms: C2_4  and  C3_6 
REMARK    2  A    between atoms: C3_6  and  C4_7 
REMARK    3  A    between atoms: C3_6  and  C12_34 
REMARK    4  A    between atoms: N4_11  and  C5_12 
REMARK    5  A    between atoms: C5_12  and  C6_13 
REMARK    6  A    between atoms: C6_13  and  N5_14 
REMARK    7  A    between atoms: C9_19  and  N7_20 
REMARK    8  A    between atoms: C10_25  and  N9_26 
REMARK    9  A    between atoms: C15_41  and  N14_42 
ROOT
HETATM    1  C4  UNL     1      12.454  22.396   4.263  1.00  0.00     0.129 A 
HETATM    2  N2  UNL     1      11.804  21.222   4.056  1.00  0.00    -0.269 N 
ATOM      3  H2  UNL     1      12.089  20.315   4.427  1.00  0.00     0.185 HD
HETATM    4  N3  UNL     1      10.745  21.440   3.298  1.00  0.00    -0.003 NA
HETATM    5  N4  UNL     1      10.681  22.731   2.998  1.00  0.00    -0.215 N 
HETATM    6  N11 UNL     1      11.723  23.297   3.591  1.00  0.00    -0.272 N 
ATOM      7  H11 UNL     1      11.941  24.291   3.541  1.00  0.00     0.189 HD
ENDROOT
BRANCH   5   8
HETATM    8  C5  UNL     1       9.683  23.412   2.190  1.00  0.00     0.187 C 
BRANCH   8   9
HETATM    9  C6  UNL     1       9.555  22.756   0.829  1.00  0.00     0.154 C 
BRANCH   9  10
HETATM   10  N5  UNL     1       8.407  23.272   0.106  1.00  0.00    -0.325 N 
HETATM   11  C7  UNL     1       7.894  24.501   0.110  1.00  0.00     0.185 A 
HETATM   12  N6  UNL     1       6.819  24.555  -0.714  1.00  0.00    -0.346 N 
HETATM   13  C8  UNL     1       6.630  23.349  -1.262  1.00  0.00     0.123 A 
ATOM     14  H6  UNL     1       6.246  25.381  -0.887  1.00  0.00     0.167 HD
HETATM   15  C9  UNL     1       5.693  22.876  -2.153  1.00  0.00     0.145 A 
HETATM   16  C11 UNL     1       7.630  22.549  -0.743  1.00  0.00     0.155 A 
HETATM   17  N8  UNL     1       5.789  21.582  -2.505  1.00  0.00    -0.175 N 
HETATM   18  C10 UNL     1       6.751  20.770  -2.020  1.00  0.00     0.679 A 
ATOM     19  H8  UNL     1       5.110  21.199  -3.163  1.00  0.00     0.186 HD
HETATM   20  N10 UNL     1       7.660  21.269  -1.142  1.00  0.00    -0.174 N 
ATOM     21  H10 UNL     1       8.387  20.653  -0.777  1.00  0.00     0.186 HD
BRANCH  15  22
HETATM   22  N7  UNL     1       4.750  23.595  -2.656  1.00  0.00    -0.383 N 
ATOM     23  H72 UNL     1       4.237  24.237  -2.051  1.00  0.00     0.157 HD
ATOM     24  H71 UNL     1       4.473  23.568  -3.638  1.00  0.00     0.157 HD
ENDBRANCH  15  22
BRANCH  18  25
HETATM   25  N9  UNL     1       6.794  19.537  -2.393  1.00  0.00    -0.234 N 
ATOM     26  H92 UNL     1       7.494  19.213  -3.060  1.00  0.00     0.174 HD
ATOM     27  H91 UNL     1       6.120  18.870  -2.016  1.00  0.00     0.174 HD
ENDBRANCH  18  25
ENDBRANCH   9  10
ENDBRANCH   8   9
ENDBRANCH   5   8
BRANCH   1  28
HETATM   28  C3  UNL     1      13.704  22.587   5.070  1.00  0.00     0.201 C 
BRANCH  28  29
HETATM   29  C2  UNL     1      14.877  22.326   4.241  1.00  0.00     0.234 C 
HETATM   30  N1  UNL     1      16.073  23.050   4.436  1.00  0.00    -0.364 N 
HETATM   31  C1  UNL     1      17.262  22.816   3.626  1.00  0.00     0.149 C 
ATOM     32  H1  UNL     1      16.107  23.760   5.168  1.00  0.00     0.161 HD
HETATM   33  O1  UNL     1      14.838  21.459   3.347  1.00  0.00    -0.272 OA
ENDBRANCH  28  29
BRANCH  28  34
HETATM   34  C12 UNL     1      13.605  21.737   6.257  1.00  0.00     0.074 A 
HETATM   35  N12 UNL     1      14.347  20.606   6.314  1.00  0.00    -0.364 N 
HETATM   36  C13 UNL     1      14.262  19.823   7.409  1.00  0.00     0.105 A 
ATOM     37  H12 UNL     1      14.960  20.349   5.541  1.00  0.00     0.165 HD
HETATM   38  C14 UNL     1      13.453  20.115   8.484  1.00  0.00     0.106 A 
HETATM   39  N13 UNL     1      12.711  21.245   8.427  1.00  0.00    -0.350 N 
HETATM   40  C15 UNL     1      12.794  22.042   7.320  1.00  0.00     0.123 A 
ATOM     41  H13 UNL     1      12.098  21.500   9.202  1.00  0.00     0.166 HD
BRANCH  40  42
HETATM   42  N14 UNL     1      12.089  23.103   7.265  1.00  0.00    -0.384 N 
ATOM     43 2H14 UNL     1      11.663  23.370   6.377  1.00  0.00     0.157 HD
ATOM     44 1H14 UNL     1      11.976  23.658   8.112  1.00  0.00     0.157 HD
ENDBRANCH  40  42
ENDBRANCH  28  34
ENDBRANCH   1  28
TORSDOF 9
ENDMDL
MODEL 5
REMARK VINA RESULT: -8.314032301      1.850      3.328
REMARK  9 active torsions:
REMARK  status: ('A' for Active; 'I' for Inactive)
REMARK       I    between atoms: N1_2  and  C2_4 
REMARK    1  A    between atoms: C2_4  and  C3_6 
REMARK    2  A    between atoms: C3_6  and  C4_7 
REMARK    3  A    between atoms: C3_6  and  C12_34 
REMARK    4  A    between atoms: N4_11  and  C5_12 
REMARK    5  A    between atoms: C5_12  and  C6_13 
REMARK    6  A    between atoms: C6_13  and  N5_14 
REMARK    7  A    between atoms: C9_19  and  N7_20 
REMARK    8  A    between atoms: C10_25  and  N9_26 
REMARK    9  A    between atoms: C15_41  and  N14_42 
ROOT
HETATM    1  C4  UNL     1      12.201  20.869   2.836  1.00  0.00     0.129 A 
HETATM    2  N2  UNL     1      11.502  19.937   2.141  1.00  0.00    -0.269 N 
ATOM      3  H2  UNL     1      11.575  18.927   2.267  1.00  0.00     0.185 HD
HETATM    4  N3  UNL     1      10.711  20.543   1.274  1.00  0.00    -0.003 NA
HETATM    5  N4  UNL     1      10.874  21.857   1.380  1.00  0.00    -0.215 N 
HETATM    6  N11 UNL     1      11.779  22.037   2.331  1.00  0.00    -0.272 N 
ATOM      7  H11 UNL     1      12.112  22.950   2.640  1.00  0.00     0.189 HD
ENDROOT
BRANCH   5   8
HETATM    8  C5  UNL     1      10.208  22.903   0.623  1.00  0.00     0.187 C 
BRANCH   8   9
HETATM    9  C6  UNL     1       8.880  23.264   1.258  1.00  0.00     0.154 C 
BRANCH   9  10
HETATM   10  N5  UNL     1       7.891  23.597   0.248  1.00  0.00    -0.325 N 
HETATM   11  C7  UNL     1       7.337  24.776  -0.030  1.00  0.00     0.185 A 
HETATM   12  N6  UNL     1       6.460  24.645  -1.055  1.00  0.00    -0.346 N 
HETATM   13  C8  UNL     1       6.444  23.367  -1.451  1.00  0.00     0.123 A 
ATOM     14  H6  UNL     1       5.904  25.398  -1.459  1.00  0.00     0.167 HD
HETATM   15  C9  UNL     1       5.738  22.714  -2.437  1.00  0.00     0.145 A 
HETATM   16  C11 UNL     1       7.343  22.715  -0.629  1.00  0.00     0.155 A 
HETATM   17  N8  UNL     1       5.961  21.396  -2.571  1.00  0.00    -0.175 N 
HETATM   18  C10 UNL     1       6.831  20.725  -1.789  1.00  0.00     0.679 A 
ATOM     19  H8  UNL     1       5.453  20.882  -3.293  1.00  0.00     0.186 HD
HETATM   20  N10 UNL     1       7.511  21.399  -0.825  1.00  0.00    -0.174 N 
ATOM     21  H10 UNL     1       8.168  20.890  -0.234  1.00  0.00     0.186 HD
BRANCH  15  22
HETATM   22  N7  UNL     1       4.893  23.292  -3.220  1.00  0.00    -0.383 N 
ATOM     23  H72 UNL     1       4.609  24.252  -3.024  1.00  0.00     0.157 HD
ATOM     24  H71 UNL     1       4.480  22.848  -4.040  1.00  0.00     0.157 HD
ENDBRANCH  15  22
BRANCH  18  25
HETATM   25  N9  UNL     1       7.004  19.460  -1.963  1.00  0.00    -0.234 N 
ATOM     26  H92 UNL     1       7.681  19.110  -2.641  1.00  0.00     0.174 HD
ATOM     27  H91 UNL     1       6.457  18.794  -1.417  1.00  0.00     0.174 HD
ENDBRANCH  18  25
ENDBRANCH   9  10
ENDBRANCH   8   9
ENDBRANCH   5   8
BRANCH   1  28
HETATM   28  C3  UNL     1      13.207  20.599   3.916  1.00  0.00     0.201 C 
BRANCH  28  29
HETATM   29  C2  UNL     1      13.376  19.160   4.092  1.00  0.00     0.234 C 
HETATM   30  N1  UNL     1      14.634  18.552   3.894  1.00  0.00    -0.364 N 
HETATM   31  C1  UNL     1      14.837  17.118   4.060  1.00  0.00     0.149 C 
ATOM     32  H1  UNL     1      15.428  19.135   3.626  1.00  0.00     0.161 HD
HETATM   33  O1  UNL     1      12.408  18.446   4.420  1.00  0.00    -0.272 OA
ENDBRANCH  28  29
BRANCH  28  34
HETATM   34  C12 UNL     1      12.771  21.306   5.121  1.00  0.00     0.074 A 
HETATM   35  N12 UNL     1      11.819  20.740   5.901  1.00  0.00    -0.364 N 
HETATM   36  C13 UNL     1      11.418  21.387   7.015  1.00  0.00     0.105 A 
ATOM     37  H12 UNL     1      11.412  19.840   5.651  1.00  0.00     0.165 HD
HETATM   38  C14 UNL     1      11.929  22.603   7.406  1.00  0.00     0.106 A 
HETATM   39  N13 UNL     1      12.879  23.169   6.626  1.00  0.00    -0.350 N 
HETATM   40  C15 UNL     1      13.289  22.518   5.496  1.00  0.00     0.123 A 
ATOM     41  H13 UNL     1      13.285  24.070   6.878  1.00  0.00     0.166 HD
BRANCH  40  42
HETATM   42  N14 UNL     1      14.179  23.056   4.759  1.00  0.00    -0.384 N 
ATOM     43 2H14 UNL     1      14.734  22.464   4.141  1.00  0.00     0.157 HD
ATOM     44 1H14 UNL     1      14.314  24.065   4.813  1.00  0.00     0.157 HD
ENDBRANCH  40  42
ENDBRANCH  28  34
ENDBRANCH   1  28
TORSDOF 9
ENDMDL
