MODEL 1
REMARK VINA RESULT: -8.243150662      0.000      0.000
REMARK  9 active torsions:
REMARK  status: ('A' for Active; 'I' for Inactive)
REMARK    1  A    between atoms: C2_2  and  C10_24 
REMARK    2  A    between atoms: N1_3  and  N2_5 
REMARK       I    between atoms: N2_5  and  C3_7 
REMARK    3  A    between atoms: C3_7  and  C4_9 
REMARK    4  A    between atoms: C5_10  and  C6_11 
REMARK    5  A    between atoms: C6_11  and  O2_13 
REMARK    6  A    between atoms: C6_11  and  O3_15 
REMARK    7  A    between atoms: C8_20  and  C9_21 
REMARK    8  A    between atoms: C11_25  and  N5_26 
REMARK    9  A    between atoms: C12_31  and  N7_32 
ROOT
HETATM    1  C1  UNL     1      13.402  19.665   5.612  1.00  0.00     0.071 C 
HETATM    2  C2  UNL     1      13.044  20.781   6.574  1.00  0.00     0.040 C 
HETATM    3  N1  UNL     1      12.558  21.796   5.958  1.00  0.00    -0.301 N 
ATOM      4  H1  UNL     1      12.286  22.602   6.519  1.00  0.00     0.186 HD
ENDROOT
BRANCH   3   5
HETATM    5  N2  UNL     1      12.374  21.878   4.574  1.00  0.00    -0.266 N 
HETATM    6  C3  UNL     1      11.122  21.761   3.956  1.00  0.00     0.275 C 
HETATM    7  O1  UNL     1      10.060  21.579   4.663  1.00  0.00    -0.266 OA
ATOM      8  H2  UNL     1      13.193  22.032   3.985  1.00  0.00     0.190 HD
BRANCH   6   9
HETATM    9  C4  UNL     1      10.909  21.834   2.526  1.00  0.00     0.104 A 
HETATM   10  C5  UNL     1      10.298  22.888   1.867  1.00  0.00     0.112 A 
HETATM   11  N3  UNL     1      10.280  22.520   0.549  1.00  0.00    -0.258 N 
HETATM   12  O4  UNL     1      10.818  21.375   0.420  1.00  0.00    -0.231 OA
ATOM     13  H3  UNL     1       9.895  23.079  -0.213  1.00  0.00     0.194 HD
HETATM   14  C8  UNL     1      11.222  20.898   1.573  1.00  0.00     0.181 A 
BRANCH  10  15
HETATM   15  C6  UNL     1       9.768  24.168   2.310  1.00  0.00     0.203 C 
HETATM   16  C7  UNL     1       9.158  24.935   1.108  1.00  0.00     0.086 C 
BRANCH  15  17
HETATM   17  O2  UNL     1      10.617  25.049   2.909  1.00  0.00    -0.361 OA
ATOM     18  H2  UNL     1      10.971  24.826   3.762  1.00  0.00     0.213 HD
ENDBRANCH  15  17
BRANCH  15  19
HETATM   19  O3  UNL     1       8.710  23.938   3.223  1.00  0.00    -0.361 OA
ATOM     20  H3  UNL     1       8.854  24.462   4.002  1.00  0.00     0.213 HD
ENDBRANCH  15  19
ENDBRANCH  10  15
BRANCH  14  21
HETATM   21  C9  UNL     1      11.864  19.620   1.737  1.00  0.00     0.291 C 
HETATM   22  N4  UNL     1      11.302  18.546   2.451  1.00  0.00    -0.055 NA
HETATM   23  O5  UNL     1      13.011  19.396   1.224  1.00  0.00    -0.269 OA
ENDBRANCH  14  21
ENDBRANCH   6   9
ENDBRANCH   3   5
BRANCH   2  24
HETATM   24  C10 UNL     1      13.287  20.601   7.971  1.00  0.00     0.082 A 
HETATM   25  C11 UNL     1      12.411  19.978   8.828  1.00  0.00     0.204 A 
HETATM   26  N6  UNL     1      12.800  19.706  10.118  1.00  0.00    -0.170 N 
HETATM   27  C12 UNL     1      13.992  20.022  10.577  1.00  0.00     0.679 A 
ATOM     28  H6  UNL     1      12.142  19.240  10.742  1.00  0.00     0.186 HD
HETATM   29  N8  UNL     1      14.875  20.631   9.794  1.00  0.00    -0.176 N 
HETATM   30  C13 UNL     1      14.540  20.924   8.498  1.00  0.00     0.131 A 
ATOM     31  H8  UNL     1      15.797  20.877  10.154  1.00  0.00     0.186 HD
HETATM   32  N9  UNL     1      15.409  21.503   7.786  1.00  0.00    -0.384 N 
ATOM     33  H92 UNL     1      15.159  21.723   6.821  1.00  0.00     0.157 HD
ATOM     34  H91 UNL     1      16.323  21.740   8.171  1.00  0.00     0.157 HD
BRANCH  25  35
HETATM   35  N5  UNL     1      11.072  19.717   8.568  1.00  0.00    -0.096 N 
HETATM   36  O6  UNL     1      10.665  18.510   8.818  1.00  0.00    -0.530 OA
HETATM   37  O7  UNL     1      10.141  20.548   8.058  1.00  0.00    -0.530 OA
ENDBRANCH  25  35
BRANCH  27  38
HETATM   38  N7  UNL     1      14.297  19.729  11.824  1.00  0.00    -0.234 N 
ATOM     39  H72 UNL     1      14.017  18.836  12.228  1.00  0.00     0.174 HD
ATOM     40  H71 UNL     1      14.817  20.408  12.381  1.00  0.00     0.174 HD
ENDBRANCH  27  38
ENDBRANCH   2  24
TORSDOF 9
ENDMDL
MODEL 2
REMARK VINA RESULT: -7.698099968      2.198      7.808
REMARK  9 active torsions:
REMARK  status: ('A' for Active; 'I' for Inactive)
REMARK    1  A    between atoms: C2_2  and  C10_24 
REMARK    2  A    between atoms: N1_3  and  N2_5 
REMARK       I    between atoms: N2_5  and  C3_7 
REMARK    3  A    between atoms: C3_7  and  C4_9 
REMARK    4  A    between atoms: C5_10  and  C6_11 
REMARK    5  A    between atoms: C6_11  and  O2_13 
REMARK    6  A    between atoms: C6_11  and  O3_15 
REMARK    7  A    between atoms: C8_20  and  C9_21 
REMARK    8  A    between atoms: C11_25  and  N5_26 
REMARK    9  A    between atoms: C12_31  and  N7_32 
ROOT
HETATM    1  C1  UNL     1      13.331  22.281   3.976  1.00  0.00     0.071 C 
HETATM    2  C2  UNL     1      11.817  22.270   3.909  1.00  0.00     0.040 C 
HETATM    3  N1  UNL     1      11.296  22.112   5.070  1.00  0.00    -0.301 N 
ATOM      4  H1  UNL     1      10.278  22.089   5.132  1.00  0.00     0.186 HD
ENDROOT
BRANCH   3   5
HETATM    5  N2  UNL     1      12.019  21.968   6.258  1.00  0.00    -0.266 N 
HETATM    6  C3  UNL     1      12.379  20.724   6.794  1.00  0.00     0.275 C 
HETATM    7  O1  UNL     1      12.058  19.634   6.185  1.00  0.00    -0.266 OA
ATOM      8  H2  UNL     1      12.298  22.810   6.761  1.00  0.00     0.190 HD
BRANCH   6   9
HETATM    9  C4  UNL     1      13.119  20.550   8.026  1.00  0.00     0.104 A 
HETATM   10  C5  UNL     1      14.422  20.970   8.236  1.00  0.00     0.112 A 
HETATM   11  N3  UNL     1      14.722  20.573   9.510  1.00  0.00    -0.258 N 
HETATM   12  O4  UNL     1      13.720  19.979  10.018  1.00  0.00    -0.231 OA
ATOM     13  H3  UNL     1      15.614  20.729   9.980  1.00  0.00     0.194 HD
HETATM   14  C8  UNL     1      12.712  19.927   9.179  1.00  0.00     0.181 A 
BRANCH  10  15
HETATM   15  C6  UNL     1      15.379  21.699   7.417  1.00  0.00     0.203 C 
HETATM   16  C7  UNL     1      16.699  21.908   8.203  1.00  0.00     0.086 C 
BRANCH  15  17
HETATM   17  O2  UNL     1      15.031  22.934   6.958  1.00  0.00    -0.361 OA
ATOM     18  H2  UNL     1      15.590  23.671   7.175  1.00  0.00     0.213 HD
ENDBRANCH  15  17
BRANCH  15  19
HETATM   19  O3  UNL     1      15.702  20.918   6.281  1.00  0.00    -0.361 OA
ATOM     20  H3  UNL     1      16.339  20.258   6.531  1.00  0.00     0.213 HD
ENDBRANCH  15  19
ENDBRANCH  10  15
BRANCH  14  21
HETATM   21  C9  UNL     1      11.446  19.311   9.475  1.00  0.00     0.291 C 
HETATM   22  N4  UNL     1      10.212  19.984   9.412  1.00  0.00    -0.055 NA
HETATM   23  O5  UNL     1      11.383  18.083   9.820  1.00  0.00    -0.269 OA
ENDBRANCH  14  21
ENDBRANCH   6   9
ENDBRANCH   3   5
BRANCH   2  24
HETATM   24  C10 UNL     1      11.174  22.410   2.640  1.00  0.00     0.082 A 
HETATM   25  C11 UNL     1      10.831  21.350   1.832  1.00  0.00     0.204 A 
HETATM   26  N6  UNL     1      10.071  21.571   0.709  1.00  0.00    -0.170 N 
HETATM   27  C12 UNL     1       9.652  22.770   0.364  1.00  0.00     0.679 A 
ATOM     28  H6  UNL     1       9.822  20.776   0.121  1.00  0.00     0.186 HD
HETATM   29  N8  UNL     1       9.959  23.828   1.104  1.00  0.00    -0.176 N 
HETATM   30  C13 UNL     1      10.714  23.666   2.237  1.00  0.00     0.131 A 
ATOM     31  H8  UNL     1       9.635  24.757   0.832  1.00  0.00     0.186 HD
HETATM   32  N9  UNL     1      10.984  24.699   2.914  1.00  0.00    -0.384 N 
ATOM     33  H92 UNL     1      11.546  24.578   3.756  1.00  0.00     0.157 HD
ATOM     34  H91 UNL     1      10.648  25.616   2.619  1.00  0.00     0.157 HD
BRANCH  25  35
HETATM   35  N5  UNL     1      11.313  20.054   1.952  1.00  0.00    -0.096 N 
HETATM   36  O6  UNL     1      12.335  19.751   1.209  1.00  0.00    -0.530 OA
HETATM   37  O7  UNL     1      10.837  19.052   2.717  1.00  0.00    -0.530 OA
ENDBRANCH  25  35
BRANCH  27  38
HETATM   38  N7  UNL     1       8.926  22.906  -0.726  1.00  0.00    -0.234 N 
ATOM     39  H72 UNL     1       7.938  22.656  -0.722  1.00  0.00     0.174 HD
ATOM     40  H71 UNL     1       9.365  23.266  -1.573  1.00  0.00     0.174 HD
ENDBRANCH  27  38
ENDBRANCH   2  24
TORSDOF 9
ENDMDL
MODEL 3
REMARK VINA RESULT: -7.643812133      2.622      8.432
REMARK  9 active torsions:
REMARK  status: ('A' for Active; 'I' for Inactive)
REMARK    1  A    between atoms: C2_2  and  C10_24 
REMARK    2  A    between atoms: N1_3  and  N2_5 
REMARK       I    between atoms: N2_5  and  C3_7 
REMARK    3  A    between atoms: C3_7  and  C4_9 
REMARK    4  A    between atoms: C5_10  and  C6_11 
REMARK    5  A    between atoms: C6_11  and  O2_13 
REMARK    6  A    between atoms: C6_11  and  O3_15 
REMARK    7  A    between atoms: C8_20  and  C9_21 
REMARK    8  A    between atoms: C11_25  and  N5_26 
REMARK    9  A    between atoms: C12_31  and  N7_32 
ROOT
HETATM    1  C1  UNL     1      11.409  22.240   0.714  1.00  0.00     0.071 C 
HETATM    2  C2  UNL     1      10.118  22.507   1.463  1.00  0.00     0.040 C 
HETATM    3  N1  UNL     1      10.207  22.159   2.694  1.00  0.00    -0.301 N 
ATOM      4  H1  UNL     1       9.388  22.298   3.284  1.00  0.00     0.186 HD
ENDROOT
BRANCH   3   5
HETATM    5  N2  UNL     1      11.345  21.602   3.287  1.00  0.00    -0.266 N 
HETATM    6  C3  UNL     1      11.357  21.078   4.587  1.00  0.00     0.275 C 
HETATM    7  O1  UNL     1      10.284  21.080   5.300  1.00  0.00    -0.266 OA
ATOM      8  H2  UNL     1      12.210  21.575   2.746  1.00  0.00     0.190 HD
BRANCH   6   9
HETATM    9  C4  UNL     1      12.524  20.505   5.224  1.00  0.00     0.104 A 
HETATM   10  C5  UNL     1      13.133  19.320   4.846  1.00  0.00     0.112 A 
HETATM   11  N3  UNL     1      14.162  19.152   5.733  1.00  0.00    -0.258 N 
HETATM   12  O4  UNL     1      14.177  20.121   6.556  1.00  0.00    -0.231 OA
ATOM     13  H3  UNL     1      14.815  18.368   5.734  1.00  0.00     0.194 HD
HETATM   14  C8  UNL     1      13.216  20.979   6.310  1.00  0.00     0.181 A 
BRANCH  10  15
HETATM   15  C6  UNL     1      12.887  18.370   3.771  1.00  0.00     0.203 C 
HETATM   16  C7  UNL     1      13.781  18.708   2.550  1.00  0.00     0.086 C 
BRANCH  15  17
HETATM   17  O2  UNL     1      11.623  18.264   3.277  1.00  0.00    -0.361 OA
ATOM     18  H2  UNL     1      11.093  17.522   3.546  1.00  0.00     0.213 HD
ENDBRANCH  15  17
BRANCH  15  19
HETATM   19  O3  UNL     1      13.265  17.077   4.205  1.00  0.00    -0.361 OA
ATOM     20  H3  UNL     1      13.646  17.141   5.074  1.00  0.00     0.213 HD
ENDBRANCH  15  19
ENDBRANCH  10  15
BRANCH  14  21
HETATM   21  C9  UNL     1      12.984  22.173   7.078  1.00  0.00     0.291 C 
HETATM   22  N4  UNL     1      12.109  22.241   8.178  1.00  0.00    -0.055 NA
HETATM   23  O5  UNL     1      13.583  23.263   6.788  1.00  0.00    -0.269 OA
ENDBRANCH  14  21
ENDBRANCH   6   9
ENDBRANCH   3   5
BRANCH   2  24
HETATM   24  C10 UNL     1       9.007  23.066   0.759  1.00  0.00     0.082 A 
HETATM   25  C11 UNL     1       8.624  24.384   0.850  1.00  0.00     0.204 A 
HETATM   26  N6  UNL     1       7.648  24.867   0.013  1.00  0.00    -0.170 N 
HETATM   27  C12 UNL     1       7.050  24.113  -0.885  1.00  0.00     0.679 A 
ATOM     28  H6  UNL     1       7.376  25.847   0.089  1.00  0.00     0.186 HD
HETATM   29  N8  UNL     1       7.377  22.833  -1.012  1.00  0.00    -0.176 N 
HETATM   30  C13 UNL     1       8.346  22.298  -0.203  1.00  0.00     0.131 A 
ATOM     31  H8  UNL     1       6.910  22.250  -1.707  1.00  0.00     0.186 HD
HETATM   32  N9  UNL     1       8.627  21.075  -0.357  1.00  0.00    -0.384 N 
ATOM     33  H92 UNL     1       9.348  20.678   0.246  1.00  0.00     0.157 HD
ATOM     34  H91 UNL     1       8.144  20.515  -1.059  1.00  0.00     0.157 HD
BRANCH  25  35
HETATM   35  N5  UNL     1       9.027  25.277   1.835  1.00  0.00    -0.096 N 
HETATM   36  O6  UNL     1       8.143  25.569   2.739  1.00  0.00    -0.530 OA
HETATM   37  O7  UNL     1      10.211  25.907   1.958  1.00  0.00    -0.530 OA
ENDBRANCH  25  35
BRANCH  27  38
HETATM   38  N7  UNL     1       6.124  24.645  -1.654  1.00  0.00    -0.234 N 
ATOM     39  H72 UNL     1       6.323  25.484  -2.198  1.00  0.00     0.174 HD
ATOM     40  H71 UNL     1       5.204  24.206  -1.700  1.00  0.00     0.174 HD
ENDBRANCH  27  38
ENDBRANCH   2  24
TORSDOF 9
ENDMDL
MODEL 4
REMARK VINA RESULT: -7.501668664      0.973      3.108
REMARK  9 active torsions:
REMARK  status: ('A' for Active; 'I' for Inactive)
REMARK    1  A    between atoms: C2_2  and  C10_24 
REMARK    2  A    between atoms: N1_3  and  N2_5 
REMARK       I    between atoms: N2_5  and  C3_7 
REMARK    3  A    between atoms: C3_7  and  C4_9 
REMARK    4  A    between atoms: C5_10  and  C6_11 
REMARK    5  A    between atoms: C6_11  and  O2_13 
REMARK    6  A    between atoms: C6_11  and  O3_15 
REMARK    7  A    between atoms: C8_20  and  C9_21 
REMARK    8  A    between atoms: C11_25  and  N5_26 
REMARK    9  A    between atoms: C12_31  and  N7_32 
ROOT
HETATM    1  C1  UNL     1      13.461  19.760   5.611  1.00  0.00     0.071 C 
HETATM    2  C2  UNL     1      13.061  20.834   6.604  1.00  0.00     0.040 C 
HETATM    3  N1  UNL     1      12.539  21.847   6.017  1.00  0.00    -0.301 N 
ATOM      4  H1  UNL     1      12.237  22.627   6.601  1.00  0.00     0.186 HD
ENDROOT
BRANCH   3   5
HETATM    5  N2  UNL     1      12.353  21.964   4.636  1.00  0.00    -0.266 N 
HETATM    6  C3  UNL     1      11.122  21.741   4.003  1.00  0.00     0.275 C 
HETATM    7  O1  UNL     1      10.082  21.423   4.695  1.00  0.00    -0.266 OA
ATOM      8  H2  UNL     1      13.154  22.224   4.060  1.00  0.00     0.190 HD
BRANCH   6   9
HETATM    9  C4  UNL     1      10.909  21.846   2.576  1.00  0.00     0.104 A 
HETATM   10  C5  UNL     1      11.428  20.978   1.630  1.00  0.00     0.112 A 
HETATM   11  N3  UNL     1      11.006  21.472   0.425  1.00  0.00    -0.258 N 
HETATM   12  O4  UNL     1      10.311  22.519   0.615  1.00  0.00    -0.231 OA
ATOM     13  H3  UNL     1      11.217  21.063  -0.485  1.00  0.00     0.194 HD
HETATM   14  C8  UNL     1      10.209  22.807   1.891  1.00  0.00     0.181 A 
BRANCH  10  15
HETATM   15  C6  UNL     1      12.227  19.765   1.720  1.00  0.00     0.203 C 
HETATM   16  C7  UNL     1      11.436  18.664   2.474  1.00  0.00     0.086 C 
BRANCH  15  17
HETATM   17  O2  UNL     1      13.438  19.832   2.340  1.00  0.00    -0.361 OA
ATOM     18  H2  UNL     1      13.554  20.467   3.037  1.00  0.00     0.213 HD
ENDBRANCH  15  17
BRANCH  15  19
HETATM   19  O3  UNL     1      12.463  19.271   0.414  1.00  0.00    -0.361 OA
ATOM     20  H3  UNL     1      13.112  18.577   0.459  1.00  0.00     0.213 HD
ENDBRANCH  15  19
ENDBRANCH  10  15
BRANCH  14  21
HETATM   21  C9  UNL     1       9.486  23.939   2.408  1.00  0.00     0.291 C 
HETATM   22  N4  UNL     1      10.005  25.246   2.457  1.00  0.00    -0.055 NA
HETATM   23  O5  UNL     1       8.300  23.804   2.861  1.00  0.00    -0.269 OA
ENDBRANCH  14  21
ENDBRANCH   6   9
ENDBRANCH   3   5
BRANCH   2  24
HETATM   24  C10 UNL     1      13.310  20.622   7.996  1.00  0.00     0.082 A 
HETATM   25  C11 UNL     1      12.440  19.974   8.841  1.00  0.00     0.204 A 
HETATM   26  N6  UNL     1      12.835  19.673  10.122  1.00  0.00    -0.170 N 
HETATM   27  C12 UNL     1      14.026  19.986  10.586  1.00  0.00     0.679 A 
ATOM     28  H6  UNL     1      12.181  19.190  10.737  1.00  0.00     0.186 HD
HETATM   29  N8  UNL     1      14.903  20.618   9.814  1.00  0.00    -0.176 N 
HETATM   30  C13 UNL     1      14.562  20.940   8.526  1.00  0.00     0.131 A 
ATOM     31  H8  UNL     1      15.825  20.861  10.178  1.00  0.00     0.186 HD
HETATM   32  N9  UNL     1      15.426  21.541   7.826  1.00  0.00    -0.384 N 
ATOM     33  H92 UNL     1      15.172  21.782   6.867  1.00  0.00     0.157 HD
ATOM     34  H91 UNL     1      16.340  21.773   8.214  1.00  0.00     0.157 HD
BRANCH  25  35
HETATM   35  N5  UNL     1      11.102  19.712   8.579  1.00  0.00    -0.096 N 
HETATM   36  O6  UNL     1      10.695  18.504   8.830  1.00  0.00    -0.530 OA
HETATM   37  O7  UNL     1      10.172  20.541   8.065  1.00  0.00    -0.530 OA
ENDBRANCH  25  35
BRANCH  27  38
HETATM   38  N7  UNL     1      14.337  19.665  11.824  1.00  0.00    -0.234 N 
ATOM     39  H72 UNL     1      13.639  19.248  12.440  1.00  0.00     0.174 HD
ATOM     40  H71 UNL     1      15.284  19.839  12.159  1.00  0.00     0.174 HD
ENDBRANCH  27  38
ENDBRANCH   2  24
TORSDOF 9
ENDMDL
MODEL 5
REMARK VINA RESULT: -7.362981315      2.205      7.890
REMARK  9 active torsions:
REMARK  status: ('A' for Active; 'I' for Inactive)
REMARK    1  A    between atoms: C2_2  and  C10_24 
REMARK    2  A    between atoms: N1_3  and  N2_5 
REMARK       I    between atoms: N2_5  and  C3_7 
REMARK    3  A    between atoms: C3_7  and  C4_9 
REMARK    4  A    between atoms: C5_10  and  C6_11 
REMARK    5  A    between atoms: C6_11  and  O2_13 
REMARK    6  A    between atoms: C6_11  and  O3_15 
REMARK    7  A    between atoms: C8_20  and  C9_21 
REMARK    8  A    between atoms: C11_25  and  N5_26 
REMARK    9  A    between atoms: C12_31  and  N7_32 
ROOT
HETATM    1  C1  UNL     1      13.527  22.283   3.827  1.00  0.00     0.071 C 
HETATM    2  C2  UNL     1      12.012  22.234   3.869  1.00  0.00     0.040 C 
HETATM    3  N1  UNL     1      11.579  22.080   5.066  1.00  0.00    -0.301 N 
ATOM      4  H1  UNL     1      10.569  22.033   5.200  1.00  0.00     0.186 HD
ENDROOT
BRANCH   3   5
HETATM    5  N2  UNL     1      12.388  21.970   6.202  1.00  0.00    -0.266 N 
HETATM    6  C3  UNL     1      12.733  20.744   6.785  1.00  0.00     0.275 C 
HETATM    7  O1  UNL     1      12.315  19.637   6.273  1.00  0.00    -0.266 OA
ATOM      8  H2  UNL     1      12.745  22.826   6.627  1.00  0.00     0.190 HD
BRANCH   6   9
HETATM    9  C4  UNL     1      13.560  20.607   7.965  1.00  0.00     0.104 A 
HETATM   10  C5  UNL     1      13.170  19.988   9.141  1.00  0.00     0.112 A 
HETATM   11  N3  UNL     1      14.240  20.121   9.984  1.00  0.00    -0.258 N 
HETATM   12  O4  UNL     1      15.173  20.748   9.391  1.00  0.00    -0.231 OA
ATOM     13  H3  UNL     1      14.282  19.770  10.941  1.00  0.00     0.194 HD
HETATM   14  C8  UNL     1      14.835  21.074   8.166  1.00  0.00     0.181 A 
BRANCH  10  15
HETATM   15  C6  UNL     1      11.960  19.287   9.545  1.00  0.00     0.203 C 
HETATM   16  C7  UNL     1      12.317  18.125  10.508  1.00  0.00     0.086 C 
BRANCH  15  17
HETATM   17  O2  UNL     1      11.180  18.730   8.578  1.00  0.00    -0.361 OA
ATOM     18  H2  UNL     1      10.564  18.052   8.829  1.00  0.00     0.213 HD
ENDBRANCH  15  17
BRANCH  15  19
HETATM   19  O3  UNL     1      11.135  20.178  10.273  1.00  0.00    -0.361 OA
ATOM     20  H3  UNL     1      10.229  19.904  10.182  1.00  0.00     0.213 HD
ENDBRANCH  15  19
ENDBRANCH  10  15
BRANCH  14  21
HETATM   21  C9  UNL     1      15.688  21.793   7.258  1.00  0.00     0.291 C 
HETATM   22  N4  UNL     1      15.451  23.116   6.840  1.00  0.00    -0.055 NA
HETATM   23  O5  UNL     1      16.734  21.245   6.774  1.00  0.00    -0.269 OA
ENDBRANCH  14  21
ENDBRANCH   6   9
ENDBRANCH   3   5
BRANCH   2  24
HETATM   24  C10 UNL     1      11.278  22.339   2.647  1.00  0.00     0.082 A 
HETATM   25  C11 UNL     1      10.925  21.262   1.868  1.00  0.00     0.204 A 
HETATM   26  N6  UNL     1      10.080  21.445   0.799  1.00  0.00    -0.170 N 
HETATM   27  C12 UNL     1       9.589  22.623   0.481  1.00  0.00     0.679 A 
ATOM     28  H6  UNL     1       9.824  20.637   0.233  1.00  0.00     0.186 HD
HETATM   29  N8  UNL     1       9.902  23.698   1.196  1.00  0.00    -0.176 N 
HETATM   30  C13 UNL     1      10.739  23.573   2.273  1.00  0.00     0.131 A 
ATOM     31  H8  UNL     1       9.521  24.610   0.944  1.00  0.00     0.186 HD
HETATM   32  N9  UNL     1      11.011  24.620   2.927  1.00  0.00    -0.384 N 
ATOM     33  H92 UNL     1      11.635  24.527   3.729  1.00  0.00     0.157 HD
ATOM     34  H91 UNL     1      10.618  25.520   2.654  1.00  0.00     0.157 HD
BRANCH  25  35
HETATM   35  N5  UNL     1      11.467  19.987   1.957  1.00  0.00    -0.096 N 
HETATM   36  O6  UNL     1      10.847  19.154   2.738  1.00  0.00    -0.530 OA
HETATM   37  O7  UNL     1      12.576  19.506   1.363  1.00  0.00    -0.530 OA
ENDBRANCH  25  35
BRANCH  27  38
HETATM   38  N7  UNL     1       8.784  22.723  -0.556  1.00  0.00    -0.234 N 
ATOM     39  H72 UNL     1       9.006  22.247  -1.430  1.00  0.00     0.174 HD
ATOM     40  H71 UNL     1       7.935  23.282  -0.474  1.00  0.00     0.174 HD
ENDBRANCH  27  38
ENDBRANCH   2  24
TORSDOF 9
ENDMDL
