MODEL 1
REMARK VINA RESULT: -7.996402514      0.000      0.000
REMARK  8 active torsions:
REMARK  status: ('A' for Active; 'I' for Inactive)
REMARK    1  A    between atoms: O1_2  and  C2_3 
REMARK    2  A    between atoms: C2_3  and  C3_4 
REMARK    3  A    between atoms: C3_4  and  N1_5 
REMARK    4  A    between atoms: C4_6  and  C5_7 
REMARK    5  A    between atoms: C5_7  and  N3_11 
REMARK       I    between atoms: N3_11  and  C6_13 
REMARK       I    between atoms: C6_13  and  N10_27 
REMARK    6  A    between atoms: N4_14  and  N5_16 
REMARK    7  A    between atoms: N8_23  and  N9_24 
REMARK    8  A    between atoms: C12_34  and  N13_35 
ROOT
HETATM    1  N5  UNL     1      14.342  20.083   8.996  1.00  0.00    -0.174 N 
HETATM    2  C7  UNL     1      15.078  18.865   8.810  1.00  0.00     0.177 C 
HETATM    3  C8  UNL     1      15.005  18.218   9.985  1.00  0.00     0.146 C 
HETATM    4  C9  UNL     1      15.592  16.937  10.297  1.00  0.00     0.120 C 
HETATM    5  N6  UNL     1      16.055  15.898  10.558  1.00  0.00    -0.190 NA
HETATM    6  N7  UNL     1      14.240  19.020  10.877  1.00  0.00    -0.271 N 
ATOM      7  H7  UNL     1      13.741  18.712  11.712  1.00  0.00     0.185 HD
HETATM    8  N8  UNL     1      14.318  20.318  10.368  1.00  0.00    -0.024 NA
ENDROOT
BRANCH   1   9
HETATM    9  N4  UNL     1      13.804  20.807   7.938  1.00  0.00    -0.112 N 
HETATM   10  C6  UNL     1      12.595  20.650   7.514  1.00  0.00     0.709 C 
HETATM   11  N3  UNL     1      12.155  21.444   6.427  1.00  0.00    -0.171 N 
HETATM   12  N10 UNL     1      11.783  19.690   8.166  1.00  0.00    -0.124 N 
ATOM     13  H3  UNL     1      11.457  22.176   6.562  1.00  0.00     0.186 HD
HETATM   14  C10 UNL     1      10.416  19.938   8.426  1.00  0.00     0.196 C 
ATOM     15  H10 UNL     1      12.192  18.801   8.454  1.00  0.00     0.197 HD
HETATM   16  N11 UNL     1       9.295  20.135   8.649  1.00  0.00    -0.171 NA
ATOM     17  H4  UNL     1      14.394  21.497   7.474  1.00  0.00     0.207 HD
BRANCH  11  18
HETATM   18  C5  UNL     1      12.723  21.189   5.120  1.00  0.00     0.159 C 
HETATM   19  N2  UNL     1      13.806  20.516   5.027  1.00  0.00    -0.382 N 
ATOM     20  H22 UNL     1      14.206  20.336   4.107  1.00  0.00     0.157 HD
ATOM     21  H21 UNL     1      14.307  20.139   5.832  1.00  0.00     0.157 HD
BRANCH  18  22
HETATM   22  C4  UNL     1      12.006  21.728   3.970  1.00  0.00     0.155 A 
HETATM   23  N1  UNL     1      11.488  21.093   2.937  1.00  0.00    -0.312 N 
HETATM   24  C14 UNL     1      10.897  22.030   2.135  1.00  0.00     0.141 A 
HETATM   25  C11 UNL     1      11.068  23.257   2.702  1.00  0.00     0.122 A 
HETATM   26  N15 UNL     1      10.226  21.963   0.971  1.00  0.00    -0.336 N 
HETATM   27  N12 UNL     1      11.745  23.075   3.822  1.00  0.00    -0.333 N 
HETATM   28  C12 UNL     1      10.543  24.382   2.056  1.00  0.00     0.131 A 
ATOM     29  H12 UNL     1      12.028  23.809   4.471  1.00  0.00     0.168 HD
HETATM   30  N14 UNL     1       9.879  24.280   0.896  1.00  0.00    -0.337 N 
HETATM   31  C13 UNL     1       9.729  23.056   0.365  1.00  0.00     0.183 A 
ATOM     32  H14 UNL     1       9.500  25.105   0.432  1.00  0.00     0.168 HD
ATOM     33  H15 UNL     1      10.090  21.052   0.533  1.00  0.00     0.168 HD
BRANCH  23  34
HETATM   34  C3  UNL     1      11.507  19.714   2.570  1.00  0.00     0.158 C 
BRANCH  34  35
HETATM   35  C2  UNL     1      12.785  19.213   1.982  1.00  0.00     0.187 C 
BRANCH  35  36
HETATM   36  O1  UNL     1      13.518  18.347   2.748  1.00  0.00    -0.394 OA
HETATM   37  C1  UNL     1      14.810  18.305   2.243  1.00  0.00     0.201 C 
ENDBRANCH  35  36
ENDBRANCH  34  35
ENDBRANCH  23  34
BRANCH  28  38
HETATM   38  N13 UNL     1      10.685  25.557   2.563  1.00  0.00    -0.383 N 
ATOM     39 2H13 UNL     1      10.957  25.621   3.544  1.00  0.00     0.157 HD
ATOM     40 1H13 UNL     1      10.528  26.391   1.997  1.00  0.00     0.157 HD
ENDBRANCH  28  38
ENDBRANCH  18  22
ENDBRANCH  11  18
ENDBRANCH   1   9
BRANCH   8  41
HETATM   41  N9  UNL     1      13.207  21.069  10.760  1.00  0.00    -0.326 NA
ATOM     42  H92 UNL     1      13.232  21.997  10.336  1.00  0.00     0.174 HD
ATOM     43  H91 UNL     1      13.222  21.295  11.754  1.00  0.00     0.174 HD
ENDBRANCH   8  41
TORSDOF 8
ENDMDL
MODEL 2
REMARK VINA RESULT: -7.995152074      2.810      5.490
REMARK  8 active torsions:
REMARK  status: ('A' for Active; 'I' for Inactive)
REMARK    1  A    between atoms: O1_2  and  C2_3 
REMARK    2  A    between atoms: C2_3  and  C3_4 
REMARK    3  A    between atoms: C3_4  and  N1_5 
REMARK    4  A    between atoms: C4_6  and  C5_7 
REMARK    5  A    between atoms: C5_7  and  N3_11 
REMARK       I    between atoms: N3_11  and  C6_13 
REMARK       I    between atoms: C6_13  and  N10_27 
REMARK    6  A    between atoms: N4_14  and  N5_16 
REMARK    7  A    between atoms: N8_23  and  N9_24 
REMARK    8  A    between atoms: C12_34  and  N13_35 
ROOT
HETATM    1  N5  UNL     1      12.063  21.626   5.700  1.00  0.00    -0.174 N 
HETATM    2  C7  UNL     1      11.859  20.658   6.741  1.00  0.00     0.177 C 
HETATM    3  C8  UNL     1      12.161  21.294   7.885  1.00  0.00     0.146 C 
HETATM    4  C9  UNL     1      12.109  20.735   9.216  1.00  0.00     0.120 C 
HETATM    5  N6  UNL     1      12.062  20.298  10.296  1.00  0.00    -0.190 NA
HETATM    6  N7  UNL     1      12.543  22.624   7.559  1.00  0.00    -0.271 N 
ATOM      7  H7  UNL     1      12.532  23.439   8.172  1.00  0.00     0.185 HD
HETATM    8  N8  UNL     1      12.936  22.578   6.219  1.00  0.00    -0.024 NA
ENDROOT
BRANCH   1   9
HETATM    9  N4  UNL     1      11.456  21.530   4.453  1.00  0.00    -0.112 N 
HETATM   10  C6  UNL     1      12.033  21.011   3.421  1.00  0.00     0.709 C 
HETATM   11  N3  UNL     1      11.316  20.967   2.201  1.00  0.00    -0.171 N 
HETATM   12  N10 UNL     1      13.352  20.518   3.577  1.00  0.00    -0.124 N 
ATOM     13  H3  UNL     1      10.993  20.079   1.815  1.00  0.00     0.186 HD
HETATM   14  C10 UNL     1      13.767  19.319   2.955  1.00  0.00     0.196 C 
ATOM     15  H10 UNL     1      14.016  21.038   4.150  1.00  0.00     0.197 HD
HETATM   16  N11 UNL     1      14.114  18.333   2.453  1.00  0.00    -0.171 NA
ATOM     17  H4  UNL     1      10.507  21.886   4.348  1.00  0.00     0.207 HD
BRANCH  11  18
HETATM   18  C5  UNL     1      11.054  22.215   1.516  1.00  0.00     0.159 C 
HETATM   19  N2  UNL     1      11.959  23.118   1.490  1.00  0.00    -0.382 N 
ATOM     20  H22 UNL     1      11.775  23.998   1.008  1.00  0.00     0.157 HD
ATOM     21  H21 UNL     1      12.873  23.015   1.931  1.00  0.00     0.157 HD
BRANCH  18  22
HETATM   22  C4  UNL     1       9.747  22.364   0.887  1.00  0.00     0.155 A 
HETATM   23  N1  UNL     1       8.791  23.233   1.145  1.00  0.00    -0.312 N 
HETATM   24  C14 UNL     1       7.767  22.987   0.273  1.00  0.00     0.141 A 
HETATM   25  C11 UNL     1       8.119  21.942  -0.528  1.00  0.00     0.122 A 
HETATM   26  N15 UNL     1       6.561  23.551   0.075  1.00  0.00    -0.336 N 
HETATM   27  N12 UNL     1       9.328  21.560  -0.154  1.00  0.00    -0.333 N 
HETATM   28  C12 UNL     1       7.222  21.505  -1.509  1.00  0.00     0.131 A 
ATOM     29  H12 UNL     1       9.863  20.796  -0.566  1.00  0.00     0.168 HD
HETATM   30  N14 UNL     1       6.028  22.090  -1.678  1.00  0.00    -0.337 N 
HETATM   31  C13 UNL     1       5.712  23.116  -0.873  1.00  0.00     0.183 A 
ATOM     32  H14 UNL     1       5.380  21.765  -2.395  1.00  0.00     0.168 HD
ATOM     33  H15 UNL     1       6.281  24.334   0.666  1.00  0.00     0.168 HD
BRANCH  23  34
HETATM   34  C3  UNL     1       8.683  24.252   2.140  1.00  0.00     0.158 C 
BRANCH  34  35
HETATM   35  C2  UNL     1       9.356  25.547   1.821  1.00  0.00     0.187 C 
BRANCH  35  36
HETATM   36  O1  UNL     1      10.657  25.679   2.225  1.00  0.00    -0.394 OA
HETATM   37  C1  UNL     1      10.758  26.827   3.000  1.00  0.00     0.201 C 
ENDBRANCH  35  36
ENDBRANCH  34  35
ENDBRANCH  23  34
BRANCH  28  38
HETATM   38  N13 UNL     1       7.523  20.521  -2.283  1.00  0.00    -0.383 N 
ATOM     39 2H13 UNL     1       8.371  19.995  -2.074  1.00  0.00     0.157 HD
ATOM     40 1H13 UNL     1       6.928  20.282  -3.076  1.00  0.00     0.157 HD
ENDBRANCH  28  38
ENDBRANCH  18  22
ENDBRANCH  11  18
ENDBRANCH   1   9
BRANCH   8  41
HETATM   41  N9  UNL     1      12.780  23.828   5.615  1.00  0.00    -0.326 NA
ATOM     42  H92 UNL     1      13.000  23.778   4.620  1.00  0.00     0.174 HD
ATOM     43  H91 UNL     1      13.465  24.507   5.945  1.00  0.00     0.174 HD
ENDBRANCH   8  41
TORSDOF 8
ENDMDL
MODEL 3
REMARK VINA RESULT: -7.986469989      4.221      7.917
REMARK  8 active torsions:
REMARK  status: ('A' for Active; 'I' for Inactive)
REMARK    1  A    between atoms: O1_2  and  C2_3 
REMARK    2  A    between atoms: C2_3  and  C3_4 
REMARK    3  A    between atoms: C3_4  and  N1_5 
REMARK    4  A    between atoms: C4_6  and  C5_7 
REMARK    5  A    between atoms: C5_7  and  N3_11 
REMARK       I    between atoms: N3_11  and  C6_13 
REMARK       I    between atoms: C6_13  and  N10_27 
REMARK    6  A    between atoms: N4_14  and  N5_16 
REMARK    7  A    between atoms: N8_23  and  N9_24 
REMARK    8  A    between atoms: C12_34  and  N13_35 
ROOT
HETATM    1  N5  UNL     1      11.296  22.162   1.780  1.00  0.00    -0.174 N 
HETATM    2  C7  UNL     1      10.987  21.265   2.857  1.00  0.00     0.177 C 
HETATM    3  C8  UNL     1      12.084  21.245   3.633  1.00  0.00     0.146 C 
HETATM    4  C9  UNL     1      12.260  20.485   4.848  1.00  0.00     0.120 C 
HETATM    5  N6  UNL     1      12.412  19.883   5.836  1.00  0.00    -0.190 NA
HETATM    6  N7  UNL     1      13.049  22.110   3.047  1.00  0.00    -0.271 N 
ATOM      7  H7  UNL     1      13.839  22.559   3.510  1.00  0.00     0.185 HD
HETATM    8  N8  UNL     1      12.685  22.213   1.703  1.00  0.00    -0.024 NA
ENDROOT
BRANCH   1   9
HETATM    9  N4  UNL     1      10.317  22.798   1.025  1.00  0.00    -0.112 N 
HETATM   10  C6  UNL     1       9.870  23.979   1.294  1.00  0.00     0.709 C 
HETATM   11  N3  UNL     1       8.871  24.527   0.454  1.00  0.00    -0.171 N 
HETATM   12  N10 UNL     1      10.411  24.653   2.417  1.00  0.00    -0.124 N 
ATOM     13  H3  UNL     1       9.077  25.314  -0.161  1.00  0.00     0.186 HD
HETATM   14  C10 UNL     1      10.686  26.038   2.380  1.00  0.00     0.196 C 
ATOM     15  H10 UNL     1      10.605  24.127   3.269  1.00  0.00     0.197 HD
HETATM   16  N11 UNL     1      10.920  27.173   2.357  1.00  0.00    -0.171 NA
ATOM     17  H4  UNL     1       9.933  22.307   0.218  1.00  0.00     0.207 HD
BRANCH  11  18
HETATM   18  C5  UNL     1       7.548  23.940   0.492  1.00  0.00     0.159 C 
HETATM   19  N2  UNL     1       7.155  23.346   1.554  1.00  0.00    -0.382 N 
ATOM     20  H22 UNL     1       6.224  22.931   1.581  1.00  0.00     0.157 HD
ATOM     21  H21 UNL     1       7.726  23.256   2.395  1.00  0.00     0.157 HD
BRANCH  18  22
HETATM   22  C4  UNL     1       6.732  24.067  -0.710  1.00  0.00     0.155 A 
HETATM   23  N1  UNL     1       6.161  23.125  -1.435  1.00  0.00    -0.312 N 
HETATM   24  C14 UNL     1       5.483  23.743  -2.448  1.00  0.00     0.141 A 
HETATM   25  C11 UNL     1       5.653  25.090  -2.328  1.00  0.00     0.122 A 
HETATM   26  N15 UNL     1       4.731  23.294  -3.469  1.00  0.00    -0.336 N 
HETATM   27  N12 UNL     1       6.416  25.289  -1.268  1.00  0.00    -0.333 N 
HETATM   28  C12 UNL     1       5.045  25.937  -3.261  1.00  0.00     0.131 A 
ATOM     29  H12 UNL     1       6.721  26.198  -0.918  1.00  0.00     0.168 HD
HETATM   30  N14 UNL     1       4.302  25.456  -4.267  1.00  0.00    -0.337 N 
HETATM   31  C13 UNL     1       4.154  24.125  -4.356  1.00  0.00     0.183 A 
ATOM     32  H14 UNL     1       3.863  26.081  -4.943  1.00  0.00     0.168 HD
ATOM     33  H15 UNL     1       4.593  22.289  -3.575  1.00  0.00     0.168 HD
BRANCH  23  34
HETATM   34  C3  UNL     1       6.199  21.701  -1.333  1.00  0.00     0.158 C 
BRANCH  34  35
HETATM   35  C2  UNL     1       7.470  21.050  -1.769  1.00  0.00     0.187 C 
BRANCH  35  36
HETATM   36  O1  UNL     1       7.355  19.972  -2.604  1.00  0.00    -0.394 OA
HETATM   37  C1  UNL     1       6.471  19.069  -2.029  1.00  0.00     0.201 C 
ENDBRANCH  35  36
ENDBRANCH  34  35
ENDBRANCH  23  34
BRANCH  28  38
HETATM   38  N13 UNL     1       5.185  27.214  -3.177  1.00  0.00    -0.383 N 
ATOM     39 2H13 UNL     1       5.780  27.673  -3.866  1.00  0.00     0.157 HD
ATOM     40 1H13 UNL     1       4.713  27.742  -2.443  1.00  0.00     0.157 HD
ENDBRANCH  28  38
ENDBRANCH  18  22
ENDBRANCH  11  18
ENDBRANCH   1   9
BRANCH   8  41
HETATM   41  N9  UNL     1      13.143  23.415   1.159  1.00  0.00    -0.326 NA
ATOM     42  H92 UNL     1      13.237  23.341   0.146  1.00  0.00     0.174 HD
ATOM     43  H91 UNL     1      14.100  23.630   1.440  1.00  0.00     0.174 HD
ENDBRANCH   8  41
TORSDOF 8
ENDMDL
MODEL 4
REMARK VINA RESULT: -7.817023772      2.368      7.952
REMARK  8 active torsions:
REMARK  status: ('A' for Active; 'I' for Inactive)
REMARK    1  A    between atoms: O1_2  and  C2_3 
REMARK    2  A    between atoms: C2_3  and  C3_4 
REMARK    3  A    between atoms: C3_4  and  N1_5 
REMARK    4  A    between atoms: C4_6  and  C5_7 
REMARK    5  A    between atoms: C5_7  and  N3_11 
REMARK       I    between atoms: N3_11  and  C6_13 
REMARK       I    between atoms: C6_13  and  N10_27 
REMARK    6  A    between atoms: N4_14  and  N5_16 
REMARK    7  A    between atoms: N8_23  and  N9_24 
REMARK    8  A    between atoms: C12_34  and  N13_35 
ROOT
HETATM    1  N5  UNL     1      11.578  22.652   2.897  1.00  0.00    -0.174 N 
HETATM    2  C7  UNL     1      11.354  23.319   1.645  1.00  0.00     0.177 C 
HETATM    3  C8  UNL     1      10.037  23.581   1.610  1.00  0.00     0.146 C 
HETATM    4  C9  UNL     1       9.324  24.246   0.545  1.00  0.00     0.120 C 
HETATM    5  N6  UNL     1       8.737  24.791  -0.304  1.00  0.00    -0.190 NA
HETATM    6  N7  UNL     1       9.461  23.087   2.812  1.00  0.00    -0.271 N 
ATOM      7  H7  UNL     1       8.583  23.379   3.243  1.00  0.00     0.185 HD
HETATM    8  N8  UNL     1      10.351  22.117   3.278  1.00  0.00    -0.024 NA
ENDROOT
BRANCH   1   9
HETATM    9  N4  UNL     1      12.823  22.611   3.515  1.00  0.00    -0.112 N 
HETATM   10  C6  UNL     1      13.454  21.513   3.767  1.00  0.00     0.709 C 
HETATM   11  N3  UNL     1      14.717  21.594   4.402  1.00  0.00    -0.171 N 
HETATM   12  N10 UNL     1      12.840  20.294   3.389  1.00  0.00    -0.124 N 
ATOM     13  H3  UNL     1      15.573  21.359   3.898  1.00  0.00     0.186 HD
HETATM   14  C10 UNL     1      13.592  19.232   2.840  1.00  0.00     0.196 C 
ATOM     15  H10 UNL     1      11.834  20.180   3.517  1.00  0.00     0.197 HD
HETATM   16  N11 UNL     1      14.201  18.356   2.383  1.00  0.00    -0.171 NA
ATOM     17  H4  UNL     1      13.259  23.493   3.784  1.00  0.00     0.207 HD
BRANCH  11  18
HETATM   18  C5  UNL     1      14.761  22.020   5.785  1.00  0.00     0.159 C 
HETATM   19  N2  UNL     1      15.490  23.020   6.111  1.00  0.00    -0.382 N 
ATOM     20  H22 UNL     1      15.521  23.320   7.085  1.00  0.00     0.157 HD
ATOM     21  H21 UNL     1      16.055  23.547   5.445  1.00  0.00     0.157 HD
BRANCH  18  22
HETATM   22  C4  UNL     1      13.953  21.266   6.736  1.00  0.00     0.155 A 
HETATM   23  N1  UNL     1      14.341  20.460   7.705  1.00  0.00    -0.312 N 
HETATM   24  C14 UNL     1      13.215  20.010   8.337  1.00  0.00     0.141 A 
HETATM   25  C11 UNL     1      12.126  20.559   7.730  1.00  0.00     0.122 A 
HETATM   26  N15 UNL     1      13.004  19.182   9.376  1.00  0.00    -0.336 N 
HETATM   27  N12 UNL     1      12.575  21.326   6.752  1.00  0.00    -0.333 N 
HETATM   28  C12 UNL     1      10.849  20.242   8.208  1.00  0.00     0.131 A 
ATOM     29  H12 UNL     1      11.997  21.873   6.113  1.00  0.00     0.168 HD
HETATM   30  N14 UNL     1      10.675  19.412   9.246  1.00  0.00    -0.337 N 
HETATM   31  C13 UNL     1      11.769  18.889   9.822  1.00  0.00     0.183 A 
ATOM     32  H14 UNL     1       9.741  19.186   9.588  1.00  0.00     0.168 HD
ATOM     33  H15 UNL     1      13.808  18.762   9.842  1.00  0.00     0.168 HD
BRANCH  23  34
HETATM   34  C3  UNL     1      15.637  20.013   8.101  1.00  0.00     0.158 C 
BRANCH  34  35
HETATM   35  C2  UNL     1      16.305  20.816   9.168  1.00  0.00     0.187 C 
BRANCH  35  36
HETATM   36  O1  UNL     1      16.409  22.163   8.951  1.00  0.00    -0.394 OA
HETATM   37  C1  UNL     1      17.756  22.501   8.944  1.00  0.00     0.201 C 
ENDBRANCH  35  36
ENDBRANCH  34  35
ENDBRANCH  23  34
BRANCH  28  38
HETATM   38  N13 UNL     1       9.798  20.743   7.659  1.00  0.00    -0.383 N 
ATOM     39 2H13 UNL     1       9.921  21.550   7.048  1.00  0.00     0.157 HD
ATOM     40 1H13 UNL     1       8.878  20.340   7.833  1.00  0.00     0.157 HD
ENDBRANCH  28  38
ENDBRANCH  18  22
ENDBRANCH  11  18
ENDBRANCH   1   9
BRANCH   8  41
HETATM   41  N9  UNL     1      10.242  21.971   4.663  1.00  0.00    -0.326 NA
ATOM     42  H92 UNL     1      10.706  21.117   4.974  1.00  0.00     0.174 HD
ATOM     43  H91 UNL     1       9.281  21.806   4.962  1.00  0.00     0.174 HD
ENDBRANCH   8  41
TORSDOF 8
ENDMDL
MODEL 5
REMARK VINA RESULT: -7.771877342      1.998      7.657
REMARK  8 active torsions:
REMARK  status: ('A' for Active; 'I' for Inactive)
REMARK    1  A    between atoms: O1_2  and  C2_3 
REMARK    2  A    between atoms: C2_3  and  C3_4 
REMARK    3  A    between atoms: C3_4  and  N1_5 
REMARK    4  A    between atoms: C4_6  and  C5_7 
REMARK    5  A    between atoms: C5_7  and  N3_11 
REMARK       I    between atoms: N3_11  and  C6_13 
REMARK       I    between atoms: C6_13  and  N10_27 
REMARK    6  A    between atoms: N4_14  and  N5_16 
REMARK    7  A    between atoms: N8_23  and  N9_24 
REMARK    8  A    between atoms: C12_34  and  N13_35 
ROOT
HETATM    1  N5  UNL     1      11.607  22.612   2.891  1.00  0.00    -0.174 N 
HETATM    2  C7  UNL     1      11.394  23.262   1.628  1.00  0.00     0.177 C 
HETATM    3  C8  UNL     1      10.080  23.539   1.584  1.00  0.00     0.146 C 
HETATM    4  C9  UNL     1       9.379  24.195   0.507  1.00  0.00     0.120 C 
HETATM    5  N6  UNL     1       8.802  24.733  -0.353  1.00  0.00    -0.190 NA
HETATM    6  N7  UNL     1       9.494  23.070   2.792  1.00  0.00    -0.271 N 
ATOM      7  H7  UNL     1       8.619  23.379   3.215  1.00  0.00     0.185 HD
HETATM    8  N8  UNL     1      10.372  22.097   3.276  1.00  0.00    -0.024 NA
ENDROOT
BRANCH   1   9
HETATM    9  N4  UNL     1      12.848  22.567   3.515  1.00  0.00    -0.112 N 
HETATM   10  C6  UNL     1      13.476  21.467   3.766  1.00  0.00     0.709 C 
HETATM   11  N3  UNL     1      14.737  21.543   4.406  1.00  0.00    -0.171 N 
HETATM   12  N10 UNL     1      12.861  20.250   3.382  1.00  0.00    -0.124 N 
ATOM     13  H3  UNL     1      15.594  21.307   3.906  1.00  0.00     0.186 HD
HETATM   14  C10 UNL     1      13.613  19.187   2.833  1.00  0.00     0.196 C 
ATOM     15  H10 UNL     1      11.854  20.138   3.505  1.00  0.00     0.197 HD
HETATM   16  N11 UNL     1      14.221  18.312   2.376  1.00  0.00    -0.171 NA
ATOM     17  H4  UNL     1      13.285  23.447   3.788  1.00  0.00     0.207 HD
BRANCH  11  18
HETATM   18  C5  UNL     1      14.776  21.965   5.790  1.00  0.00     0.159 C 
HETATM   19  N2  UNL     1      15.518  22.952   6.125  1.00  0.00    -0.382 N 
ATOM     20  H22 UNL     1      15.546  23.249   7.100  1.00  0.00     0.157 HD
ATOM     21  H21 UNL     1      16.097  23.471   5.466  1.00  0.00     0.157 HD
BRANCH  18  22
HETATM   22  C4  UNL     1      13.948  21.222   6.733  1.00  0.00     0.155 A 
HETATM   23  N1  UNL     1      14.312  20.390   7.688  1.00  0.00    -0.312 N 
HETATM   24  C14 UNL     1      13.175  19.965   8.318  1.00  0.00     0.141 A 
HETATM   25  C11 UNL     1      12.102  20.557   7.723  1.00  0.00     0.122 A 
HETATM   26  N15 UNL     1      12.941  19.128   9.345  1.00  0.00    -0.336 N 
HETATM   27  N12 UNL     1      12.571  21.325   6.755  1.00  0.00    -0.333 N 
HETATM   28  C12 UNL     1      10.818  20.273   8.201  1.00  0.00     0.131 A 
ATOM     29  H12 UNL     1      12.009  21.899   6.127  1.00  0.00     0.168 HD
HETATM   30  N14 UNL     1      10.620  19.433   9.227  1.00  0.00    -0.337 N 
HETATM   31  C13 UNL     1      11.699  18.867   9.790  1.00  0.00     0.183 A 
ATOM     32  H14 UNL     1       9.681  19.231   9.568  1.00  0.00     0.168 HD
ATOM     33  H15 UNL     1      13.733  18.675   9.801  1.00  0.00     0.168 HD
BRANCH  23  34
HETATM   34  C3  UNL     1      15.596  19.896   8.072  1.00  0.00     0.158 C 
BRANCH  34  35
HETATM   35  C2  UNL     1      16.028  18.626   7.415  1.00  0.00     0.187 C 
BRANCH  35  36
HETATM   36  O1  UNL     1      15.510  18.367   6.175  1.00  0.00    -0.394 OA
HETATM   37  C1  UNL     1      16.531  18.494   5.242  1.00  0.00     0.201 C 
ENDBRANCH  35  36
ENDBRANCH  34  35
ENDBRANCH  23  34
BRANCH  28  38
HETATM   38  N13 UNL     1       9.781  20.815   7.663  1.00  0.00    -0.383 N 
ATOM     39 2H13 UNL     1       9.668  20.725   6.654  1.00  0.00     0.157 HD
ATOM     40 1H13 UNL     1       9.101  21.317   8.234  1.00  0.00     0.157 HD
ENDBRANCH  28  38
ENDBRANCH  18  22
ENDBRANCH  11  18
ENDBRANCH   1   9
BRANCH   8  41
HETATM   41  N9  UNL     1      10.256  21.975   4.663  1.00  0.00    -0.326 NA
ATOM     42  H92 UNL     1      10.002  22.869   5.084  1.00  0.00     0.174 HD
ATOM     43  H91 UNL     1      11.152  21.781   5.112  1.00  0.00     0.174 HD
ENDBRANCH   8  41
TORSDOF 8
ENDMDL
