MODEL 1
REMARK VINA RESULT: -7.791564598      0.000      0.000
REMARK  11 active torsions:
REMARK  status: ('A' for Active; 'I' for Inactive)
REMARK    1  A    between atoms: C4_7  and  S1_8 
REMARK    2  A    between atoms: S1_8  and  C5_9 
REMARK    3  A    between atoms: C5_9  and  C6_10 
REMARK       I    between atoms: C6_10  and  N3_12 
REMARK    4  A    between atoms: N3_12  and  C7_14 
REMARK    5  A    between atoms: C7_14  and  C8_15 
REMARK    6  A    between atoms: C9_16  and  N4_17 
REMARK    7  A    between atoms: C11_23  and  C12_24 
REMARK    8  A    between atoms: C12_24  and  C13_25 
REMARK    9  A    between atoms: C13_25  and  N7_26 
REMARK   10  A    between atoms: N7_26  and  N8_28 
REMARK   11  A    between atoms: C14_33  and  N10_34 
ROOT
HETATM    1  C8  UNL     1      12.104  20.475   3.625  1.00  0.00     0.066 A 
HETATM    2  C9  UNL     1      13.010  20.806   4.654  1.00  0.00     0.145 A 
HETATM    3  N9  UNL     1      13.936  19.910   4.978  1.00  0.00    -0.175 N 
ATOM      4  H9  UNL     1      14.599  20.135   5.720  1.00  0.00     0.186 HD
HETATM    5  C14 UNL     1      14.033  18.699   4.354  1.00  0.00     0.678 A 
HETATM    6  N11 UNL     1      13.169  18.392   3.379  1.00  0.00    -0.178 N 
ATOM      7  H11 UNL     1      13.240  17.488   2.911  1.00  0.00     0.185 HD
HETATM    8  C15 UNL     1      12.192  19.270   2.999  1.00  0.00     0.147 A 
HETATM    9  N12 UNL     1      11.309  18.803   2.008  1.00  0.00    -0.081 NA
ENDROOT
BRANCH   1  10
HETATM   10  C7  UNL     1      11.085  21.455   3.355  1.00  0.00     0.109 C 
BRANCH  10  11
HETATM   11  N3  UNL     1      10.861  21.997   2.088  1.00  0.00    -0.335 N 
HETATM   12  C6  UNL     1       9.791  22.923   1.844  1.00  0.00     0.231 C 
HETATM   13  O1  UNL     1       9.032  23.294   2.769  1.00  0.00    -0.272 OA
ATOM     14  H3  UNL     1      11.472  21.728   1.316  1.00  0.00     0.168 HD
BRANCH  12  15
HETATM   15  C5  UNL     1       9.565  23.446   0.479  1.00  0.00     0.184 C 
BRANCH  15  16
HETATM   16  S1  UNL     1       7.857  23.585   0.051  1.00  0.00    -0.101 SA
BRANCH  16  17
HETATM   17  C4  UNL     1       7.260  22.316  -1.004  1.00  0.00     0.088 A 
HETATM   18  N1  UNL     1       6.214  22.463  -1.847  1.00  0.00    -0.341 N 
HETATM   19  C1  UNL     1       5.451  23.667  -2.027  1.00  0.00     0.158 C 
HETATM   20  C2  UNL     1       5.987  21.309  -2.496  1.00  0.00     0.183 A 
HETATM   21  N2  UNL     1       6.898  20.427  -2.059  1.00  0.00    -0.359 N 
HETATM   22  C3  UNL     1       7.704  21.028  -1.130  1.00  0.00     0.126 A 
ATOM     23  H2  UNL     1       6.978  19.459  -2.370  1.00  0.00     0.166 HD
ENDBRANCH  16  17
ENDBRANCH  15  16
ENDBRANCH  12  15
ENDBRANCH  10  11
ENDBRANCH   1  10
BRANCH   2  24
HETATM   24  N4  UNL     1      12.914  22.051   5.284  1.00  0.00    -0.268 N 
HETATM   25  C10 UNL     1      13.294  23.261   4.856  1.00  0.00     0.209 A 
HETATM   26  N5  UNL     1      13.021  24.217   5.762  1.00  0.00    -0.293 N 
HETATM   27  N6  UNL     1      12.453  23.580   6.783  1.00  0.00    -0.277 N 
ATOM     28  H5  UNL     1      13.208  25.217   5.683  1.00  0.00     0.187 HD
HETATM   29  C11 UNL     1      12.377  22.266   6.517  1.00  0.00     0.187 A 
ATOM     30  H6  UNL     1      12.125  24.024   7.641  1.00  0.00     0.189 HD
BRANCH  29  31
HETATM   31  C12 UNL     1      11.826  21.240   7.350  1.00  0.00    -0.004 C 
BRANCH  31  32
HETATM   32  C13 UNL     1      11.378  20.356   8.047  1.00  0.00     0.034 C 
BRANCH  32  33
HETATM   33  N7  UNL     1      10.882  19.322   8.851  1.00  0.00    -0.265 N 
ATOM     34  H7  UNL     1       9.893  19.084   8.775  1.00  0.00     0.197 HD
BRANCH  33  35
HETATM   35  N8  UNL     1      11.663  18.601   9.745  1.00  0.00    -0.338 N 
ATOM     36  H82 UNL     1      11.926  19.068  10.613  1.00  0.00     0.177 HD
ATOM     37  H81 UNL     1      11.979  17.647   9.577  1.00  0.00     0.177 HD
ENDBRANCH  33  35
ENDBRANCH  32  33
ENDBRANCH  31  32
ENDBRANCH  29  31
ENDBRANCH   2  24
BRANCH   5  38
HETATM   38  N10 UNL     1      14.928  17.850   4.676  1.00  0.00    -0.234 N 
ATOM     39 2H10 UNL     1      14.748  16.858   4.518  1.00  0.00     0.174 HD
ATOM     40 1H10 UNL     1      15.817  18.139   5.085  1.00  0.00     0.174 HD
ENDBRANCH   5  38
TORSDOF 11
ENDMDL
MODEL 2
REMARK VINA RESULT: -7.606548145      1.147      1.240
REMARK  11 active torsions:
REMARK  status: ('A' for Active; 'I' for Inactive)
REMARK    1  A    between atoms: C4_7  and  S1_8 
REMARK    2  A    between atoms: S1_8  and  C5_9 
REMARK    3  A    between atoms: C5_9  and  C6_10 
REMARK       I    between atoms: C6_10  and  N3_12 
REMARK    4  A    between atoms: N3_12  and  C7_14 
REMARK    5  A    between atoms: C7_14  and  C8_15 
REMARK    6  A    between atoms: C9_16  and  N4_17 
REMARK    7  A    between atoms: C11_23  and  C12_24 
REMARK    8  A    between atoms: C12_24  and  C13_25 
REMARK    9  A    between atoms: C13_25  and  N7_26 
REMARK   10  A    between atoms: N7_26  and  N8_28 
REMARK   11  A    between atoms: C14_33  and  N10_34 
ROOT
HETATM    1  C8  UNL     1      12.030  21.284   3.157  1.00  0.00     0.066 A 
HETATM    2  C9  UNL     1      12.765  21.157   4.355  1.00  0.00     0.145 A 
HETATM    3  N9  UNL     1      13.199  19.948   4.693  1.00  0.00    -0.175 N 
ATOM      4  H9  UNL     1      13.732  19.840   5.556  1.00  0.00     0.186 HD
HETATM    5  C14 UNL     1      12.957  18.844   3.926  1.00  0.00     0.678 A 
HETATM    6  N11 UNL     1      12.260  18.971   2.791  1.00  0.00    -0.178 N 
ATOM      7  H11 UNL     1      12.079  18.147   2.217  1.00  0.00     0.185 HD
HETATM    8  C15 UNL     1      11.784  20.188   2.389  1.00  0.00     0.147 A 
HETATM    9  N12 UNL     1      11.012  20.178   1.212  1.00  0.00    -0.081 NA
ENDROOT
BRANCH   1  10
HETATM   10  C7  UNL     1      11.533  22.603   2.870  1.00  0.00     0.109 C 
BRANCH  10  11
HETATM   11  N3  UNL     1      10.173  22.918   2.837  1.00  0.00    -0.335 N 
HETATM   12  C6  UNL     1       9.543  23.409   1.644  1.00  0.00     0.231 C 
HETATM   13  O1  UNL     1      10.192  23.553   0.582  1.00  0.00    -0.272 OA
ATOM     14  H3  UNL     1       9.613  22.796   3.681  1.00  0.00     0.168 HD
BRANCH  12  15
HETATM   15  C5  UNL     1       8.108  23.765   1.661  1.00  0.00     0.184 C 
BRANCH  15  16
HETATM   16  S1  UNL     1       7.454  24.134   0.062  1.00  0.00    -0.101 SA
BRANCH  16  17
HETATM   17  C4  UNL     1       7.074  22.727  -0.917  1.00  0.00     0.088 A 
HETATM   18  N1  UNL     1       6.116  22.705  -1.870  1.00  0.00    -0.341 N 
HETATM   19  C1  UNL     1       5.285  23.815  -2.242  1.00  0.00     0.158 C 
HETATM   20  C2  UNL     1       6.052  21.482  -2.422  1.00  0.00     0.183 A 
HETATM   21  N2  UNL     1       6.978  20.727  -1.812  1.00  0.00    -0.359 N 
HETATM   22  C3  UNL     1       7.629  21.477  -0.872  1.00  0.00     0.126 A 
ATOM     23  H2  UNL     1       7.166  19.745  -2.017  1.00  0.00     0.166 HD
ENDBRANCH  16  17
ENDBRANCH  15  16
ENDBRANCH  12  15
ENDBRANCH  10  11
ENDBRANCH   1  10
BRANCH   2  24
HETATM   24  N4  UNL     1      13.018  22.292   5.132  1.00  0.00    -0.268 N 
HETATM   25  C10 UNL     1      13.939  23.251   4.977  1.00  0.00     0.209 A 
HETATM   26  N5  UNL     1      13.853  24.184   5.942  1.00  0.00    -0.293 N 
HETATM   27  N6  UNL     1      12.847  23.791   6.720  1.00  0.00    -0.277 N 
ATOM     28  H5  UNL     1      14.435  25.015   6.054  1.00  0.00     0.187 HD
HETATM   29  C11 UNL     1      12.325  22.647   6.250  1.00  0.00     0.187 A 
ATOM     30  H6  UNL     1      12.521  24.286   7.551  1.00  0.00     0.189 HD
BRANCH  29  31
HETATM   31  C12 UNL     1      11.226  21.906   6.791  1.00  0.00    -0.004 C 
BRANCH  31  32
HETATM   32  C13 UNL     1      10.305  21.281   7.271  1.00  0.00     0.034 C 
BRANCH  32  33
HETATM   33  N7  UNL     1       9.224  20.574   7.811  1.00  0.00    -0.265 N 
ATOM     34  H7  UNL     1       8.314  20.667   7.362  1.00  0.00     0.197 HD
BRANCH  33  35
HETATM   35  N8  UNL     1       9.323  19.751   8.927  1.00  0.00    -0.338 N 
ATOM     36  H82 UNL     1       9.915  18.925   8.844  1.00  0.00     0.177 HD
ATOM     37  H81 UNL     1       8.841  19.933   9.806  1.00  0.00     0.177 HD
ENDBRANCH  33  35
ENDBRANCH  32  33
ENDBRANCH  31  32
ENDBRANCH  29  31
ENDBRANCH   2  24
BRANCH   5  38
HETATM   38  N10 UNL     1      13.382  17.689   4.263  1.00  0.00    -0.234 N 
ATOM     39 2H10 UNL     1      14.197  17.621   4.873  1.00  0.00     0.174 HD
ATOM     40 1H10 UNL     1      12.925  16.836   3.940  1.00  0.00     0.174 HD
ENDBRANCH   5  38
TORSDOF 11
ENDMDL
MODEL 3
REMARK VINA RESULT: -7.495569668      1.019      1.513
REMARK  11 active torsions:
REMARK  status: ('A' for Active; 'I' for Inactive)
REMARK    1  A    between atoms: C4_7  and  S1_8 
REMARK    2  A    between atoms: S1_8  and  C5_9 
REMARK    3  A    between atoms: C5_9  and  C6_10 
REMARK       I    between atoms: C6_10  and  N3_12 
REMARK    4  A    between atoms: N3_12  and  C7_14 
REMARK    5  A    between atoms: C7_14  and  C8_15 
REMARK    6  A    between atoms: C9_16  and  N4_17 
REMARK    7  A    between atoms: C11_23  and  C12_24 
REMARK    8  A    between atoms: C12_24  and  C13_25 
REMARK    9  A    between atoms: C13_25  and  N7_26 
REMARK   10  A    between atoms: N7_26  and  N8_28 
REMARK   11  A    between atoms: C14_33  and  N10_34 
ROOT
HETATM    1  C8  UNL     1      12.269  21.127   3.237  1.00  0.00     0.066 A 
HETATM    2  C9  UNL     1      13.042  21.085   4.416  1.00  0.00     0.145 A 
HETATM    3  N9  UNL     1      13.554  19.915   4.782  1.00  0.00    -0.175 N 
ATOM      4  H9  UNL     1      14.115  19.869   5.632  1.00  0.00     0.186 HD
HETATM    5  C14 UNL     1      13.355  18.772   4.061  1.00  0.00     0.678 A 
HETATM    6  N11 UNL     1      12.620  18.820   2.943  1.00  0.00    -0.178 N 
ATOM      7  H11 UNL     1      12.472  17.967   2.403  1.00  0.00     0.185 HD
HETATM    8  C15 UNL     1      12.065  19.993   2.514  1.00  0.00     0.147 A 
HETATM    9  N12 UNL     1      11.263  19.897   1.361  1.00  0.00    -0.081 NA
ENDROOT
BRANCH   1  10
HETATM   10  C7  UNL     1      11.689  22.405   2.919  1.00  0.00     0.109 C 
BRANCH  10  11
HETATM   11  N3  UNL     1      11.025  22.667   1.719  1.00  0.00    -0.335 N 
HETATM   12  C6  UNL     1       9.660  23.113   1.696  1.00  0.00     0.231 C 
HETATM   13  O1  UNL     1       9.023  23.304   2.758  1.00  0.00    -0.272 OA
ATOM     14  H3  UNL     1      11.520  22.538   0.837  1.00  0.00     0.168 HD
BRANCH  12  15
HETATM   15  C5  UNL     1       8.981  23.345   0.402  1.00  0.00     0.184 C 
BRANCH  15  16
HETATM   16  S1  UNL     1       7.221  23.250   0.503  1.00  0.00    -0.101 SA
BRANCH  16  17
HETATM   17  C4  UNL     1       6.413  22.958  -1.028  1.00  0.00     0.088 A 
HETATM   18  N1  UNL     1       6.502  21.801  -1.721  1.00  0.00    -0.341 N 
HETATM   19  C1  UNL     1       7.241  20.639  -1.313  1.00  0.00     0.158 C 
HETATM   20  C2  UNL     1       5.795  21.898  -2.859  1.00  0.00     0.183 A 
HETATM   21  N2  UNL     1       5.256  23.126  -2.884  1.00  0.00    -0.359 N 
HETATM   22  C3  UNL     1       5.624  23.806  -1.756  1.00  0.00     0.126 A 
ATOM     23  H2  UNL     1       4.664  23.494  -3.628  1.00  0.00     0.166 HD
ENDBRANCH  16  17
ENDBRANCH  15  16
ENDBRANCH  12  15
ENDBRANCH  10  11
ENDBRANCH   1  10
BRANCH   2  24
HETATM   24  N4  UNL     1      13.251  22.259   5.146  1.00  0.00    -0.268 N 
HETATM   25  C10 UNL     1      14.166  23.222   4.980  1.00  0.00     0.209 A 
HETATM   26  N5  UNL     1      14.030  24.200   5.895  1.00  0.00    -0.293 N 
HETATM   27  N6  UNL     1      12.998  23.832   6.651  1.00  0.00    -0.277 N 
ATOM     28  H5  UNL     1      14.597  25.043   5.989  1.00  0.00     0.187 HD
HETATM   29  C11 UNL     1      12.509  22.660   6.217  1.00  0.00     0.187 A 
ATOM     30  H6  UNL     1      12.634  24.362   7.442  1.00  0.00     0.189 HD
BRANCH  29  31
HETATM   31  C12 UNL     1      11.397  21.931   6.749  1.00  0.00    -0.004 C 
BRANCH  31  32
HETATM   32  C13 UNL     1      10.448  21.310   7.176  1.00  0.00     0.034 C 
BRANCH  32  33
HETATM   33  N7  UNL     1       9.352  20.577   7.649  1.00  0.00    -0.265 N 
ATOM     34  H7  UNL     1       8.492  20.589   7.101  1.00  0.00     0.197 HD
BRANCH  33  35
HETATM   35  N8  UNL     1       9.371  19.835   8.823  1.00  0.00    -0.338 N 
ATOM     36  H82 UNL     1       9.750  18.890   8.770  1.00  0.00     0.177 HD
ATOM     37  H81 UNL     1       9.030  20.186   9.717  1.00  0.00     0.177 HD
ENDBRANCH  33  35
ENDBRANCH  32  33
ENDBRANCH  31  32
ENDBRANCH  29  31
ENDBRANCH   2  24
BRANCH   5  38
HETATM   38  N10 UNL     1      13.854  17.656   4.425  1.00  0.00    -0.234 N 
ATOM     39 2H10 UNL     1      14.842  17.616   4.679  1.00  0.00     0.174 HD
ATOM     40 1H10 UNL     1      13.290  16.807   4.469  1.00  0.00     0.174 HD
ENDBRANCH   5  38
TORSDOF 11
ENDMDL
MODEL 4
REMARK VINA RESULT: -7.491465843      1.494      2.930
REMARK  11 active torsions:
REMARK  status: ('A' for Active; 'I' for Inactive)
REMARK    1  A    between atoms: C4_7  and  S1_8 
REMARK    2  A    between atoms: S1_8  and  C5_9 
REMARK    3  A    between atoms: C5_9  and  C6_10 
REMARK       I    between atoms: C6_10  and  N3_12 
REMARK    4  A    between atoms: N3_12  and  C7_14 
REMARK    5  A    between atoms: C7_14  and  C8_15 
REMARK    6  A    between atoms: C9_16  and  N4_17 
REMARK    7  A    between atoms: C11_23  and  C12_24 
REMARK    8  A    between atoms: C12_24  and  C13_25 
REMARK    9  A    between atoms: C13_25  and  N7_26 
REMARK   10  A    between atoms: N7_26  and  N8_28 
REMARK   11  A    between atoms: C14_33  and  N10_34 
ROOT
HETATM    1  C8  UNL     1      11.624  20.894   3.537  1.00  0.00     0.066 A 
HETATM    2  C9  UNL     1      12.250  20.669   4.781  1.00  0.00     0.145 A 
HETATM    3  N9  UNL     1      12.848  19.498   4.972  1.00  0.00    -0.175 N 
ATOM      4  H9  UNL     1      13.306  19.320   5.866  1.00  0.00     0.186 HD
HETATM    5  C14 UNL     1      12.873  18.524   4.014  1.00  0.00     0.678 A 
HETATM    6  N11 UNL     1      12.276  18.745   2.837  1.00  0.00    -0.178 N 
ATOM      7  H11 UNL     1      12.294  18.019   2.121  1.00  0.00     0.185 HD
HETATM    8  C15 UNL     1      11.642  19.929   2.579  1.00  0.00     0.147 A 
HETATM    9  N12 UNL     1      11.000  20.012   1.329  1.00  0.00    -0.081 NA
ENDROOT
BRANCH   1  10
HETATM   10  C7  UNL     1      10.940  22.154   3.405  1.00  0.00     0.109 C 
BRANCH  10  11
HETATM   11  N3  UNL     1      10.699  22.768   2.175  1.00  0.00    -0.335 N 
HETATM   12  C6  UNL     1       9.477  23.475   1.913  1.00  0.00     0.231 C 
HETATM   13  O1  UNL     1       8.590  23.582   2.792  1.00  0.00    -0.272 OA
ATOM     14  H3  UNL     1      11.408  22.714   1.444  1.00  0.00     0.168 HD
BRANCH  12  15
HETATM   15  C5  UNL     1       9.245  24.081   0.584  1.00  0.00     0.184 C 
BRANCH  15  16
HETATM   16  S1  UNL     1       7.557  24.027   0.069  1.00  0.00    -0.101 SA
BRANCH  16  17
HETATM   17  C4  UNL     1       7.138  22.644  -0.927  1.00  0.00     0.088 A 
HETATM   18  N1  UNL     1       6.148  22.647  -1.848  1.00  0.00    -0.341 N 
HETATM   19  C1  UNL     1       5.309  23.768  -2.166  1.00  0.00     0.158 C 
HETATM   20  C2  UNL     1       6.060  21.436  -2.423  1.00  0.00     0.183 A 
HETATM   21  N2  UNL     1       7.003  20.664  -1.863  1.00  0.00    -0.359 N 
HETATM   22  C3  UNL     1       7.689  21.391  -0.929  1.00  0.00     0.126 A 
ATOM     23  H2  UNL     1       7.180  19.687  -2.096  1.00  0.00     0.166 HD
ENDBRANCH  16  17
ENDBRANCH  15  16
ENDBRANCH  12  15
ENDBRANCH  10  11
ENDBRANCH   1  10
BRANCH   2  24
HETATM   24  N4  UNL     1      12.232  21.672   5.755  1.00  0.00    -0.268 N 
HETATM   25  C10 UNL     1      11.335  21.916   6.719  1.00  0.00     0.209 A 
HETATM   26  N5  UNL     1      11.684  22.981   7.463  1.00  0.00    -0.293 N 
HETATM   27  N6  UNL     1      12.832  23.410   6.945  1.00  0.00    -0.277 N 
ATOM     28  H5  UNL     1      11.176  23.376   8.256  1.00  0.00     0.187 HD
HETATM   29  C11 UNL     1      13.185  22.633   5.909  1.00  0.00     0.187 A 
ATOM     30  H6  UNL     1      13.365  24.211   7.284  1.00  0.00     0.189 HD
BRANCH  29  31
HETATM   31  C12 UNL     1      14.354  22.751   5.091  1.00  0.00    -0.004 C 
BRANCH  31  32
HETATM   32  C13 UNL     1      15.355  22.835   4.413  1.00  0.00     0.034 C 
BRANCH  32  33
HETATM   33  N7  UNL     1      16.516  22.955   3.639  1.00  0.00    -0.265 N 
ATOM     34  H7  UNL     1      17.377  23.245   4.103  1.00  0.00     0.197 HD
BRANCH  33  35
HETATM   35  N8  UNL     1      16.561  22.699   2.274  1.00  0.00    -0.338 N 
ATOM     36  H82 UNL     1      16.273  21.771   1.965  1.00  0.00     0.177 HD
ATOM     37  H81 UNL     1      16.862  23.384   1.582  1.00  0.00     0.177 HD
ENDBRANCH  33  35
ENDBRANCH  32  33
ENDBRANCH  31  32
ENDBRANCH  29  31
ENDBRANCH   2  24
BRANCH   5  38
HETATM   38  N10 UNL     1      13.452  17.405   4.212  1.00  0.00    -0.234 N 
ATOM     39 2H10 UNL     1      13.031  16.739   4.860  1.00  0.00     0.174 HD
ATOM     40 1H10 UNL     1      14.322  17.162   3.739  1.00  0.00     0.174 HD
ENDBRANCH   5  38
TORSDOF 11
ENDMDL
MODEL 5
REMARK VINA RESULT: -7.473225120      1.526      3.149
REMARK  11 active torsions:
REMARK  status: ('A' for Active; 'I' for Inactive)
REMARK    1  A    between atoms: C4_7  and  S1_8 
REMARK    2  A    between atoms: S1_8  and  C5_9 
REMARK    3  A    between atoms: C5_9  and  C6_10 
REMARK       I    between atoms: C6_10  and  N3_12 
REMARK    4  A    between atoms: N3_12  and  C7_14 
REMARK    5  A    between atoms: C7_14  and  C8_15 
REMARK    6  A    between atoms: C9_16  and  N4_17 
REMARK    7  A    between atoms: C11_23  and  C12_24 
REMARK    8  A    between atoms: C12_24  and  C13_25 
REMARK    9  A    between atoms: C13_25  and  N7_26 
REMARK   10  A    between atoms: N7_26  and  N8_28 
REMARK   11  A    between atoms: C14_33  and  N10_34 
ROOT
HETATM    1  C8  UNL     1      12.236  20.701   3.256  1.00  0.00     0.066 A 
HETATM    2  C9  UNL     1      12.635  20.473   4.590  1.00  0.00     0.145 A 
HETATM    3  N9  UNL     1      13.234  19.321   4.871  1.00  0.00    -0.175 N 
ATOM      4  H9  UNL     1      13.528  19.141   5.831  1.00  0.00     0.186 HD
HETATM    5  C14 UNL     1      13.470  18.368   3.921  1.00  0.00     0.678 A 
HETATM    6  N11 UNL     1      13.090  18.591   2.658  1.00  0.00    -0.178 N 
ATOM      7  H11 UNL     1      13.266  17.881   1.947  1.00  0.00     0.185 HD
HETATM    8  C15 UNL     1      12.467  19.756   2.304  1.00  0.00     0.147 A 
HETATM    9  N12 UNL     1      12.060  19.841   0.960  1.00  0.00    -0.081 NA
ENDROOT
BRANCH   1  10
HETATM   10  C7  UNL     1      11.539  21.937   3.018  1.00  0.00     0.109 C 
BRANCH  10  11
HETATM   11  N3  UNL     1      10.917  22.243   1.806  1.00  0.00    -0.335 N 
HETATM   12  C6  UNL     1       9.665  22.945   1.760  1.00  0.00     0.231 C 
HETATM   13  O1  UNL     1       9.097  23.328   2.810  1.00  0.00    -0.272 OA
ATOM     14  H3  UNL     1      11.361  21.961   0.933  1.00  0.00     0.168 HD
BRANCH  12  15
HETATM   15  C5  UNL     1       9.021  23.219   0.457  1.00  0.00     0.184 C 
BRANCH  15  16
HETATM   16  S1  UNL     1       7.258  23.294   0.544  1.00  0.00    -0.101 SA
BRANCH  16  17
HETATM   17  C4  UNL     1       6.436  23.006  -0.979  1.00  0.00     0.088 A 
HETATM   18  N1  UNL     1       6.513  21.849  -1.674  1.00  0.00    -0.341 N 
HETATM   19  C1  UNL     1       7.251  20.684  -1.273  1.00  0.00     0.158 C 
HETATM   20  C2  UNL     1       5.797  21.949  -2.805  1.00  0.00     0.183 A 
HETATM   21  N2  UNL     1       5.262  23.180  -2.824  1.00  0.00    -0.359 N 
HETATM   22  C3  UNL     1       5.643  23.858  -1.699  1.00  0.00     0.126 A 
ATOM     23  H2  UNL     1       4.665  23.551  -3.563  1.00  0.00     0.166 HD
ENDBRANCH  16  17
ENDBRANCH  15  16
ENDBRANCH  12  15
ENDBRANCH  10  11
ENDBRANCH   1  10
BRANCH   2  24
HETATM   24  N4  UNL     1      12.400  21.454   5.558  1.00  0.00    -0.268 N 
HETATM   25  C10 UNL     1      11.386  21.582   6.423  1.00  0.00     0.209 A 
HETATM   26  N5  UNL     1      11.531  22.670   7.201  1.00  0.00    -0.293 N 
HETATM   27  N6  UNL     1      12.669  23.235   6.805  1.00  0.00    -0.277 N 
ATOM     28  H5  UNL     1      10.902  22.994   7.936  1.00  0.00     0.187 HD
HETATM   29  C11 UNL     1      13.214  22.517   5.811  1.00  0.00     0.187 A 
ATOM     30  H6  UNL     1      13.068  24.088   7.199  1.00  0.00     0.189 HD
BRANCH  29  31
HETATM   31  C12 UNL     1      14.440  22.779   5.119  1.00  0.00    -0.004 C 
BRANCH  31  32
HETATM   32  C13 UNL     1      15.488  22.981   4.544  1.00  0.00     0.034 C 
BRANCH  32  33
HETATM   33  N7  UNL     1      16.686  23.230   3.863  1.00  0.00    -0.265 N 
ATOM     34  H7  UNL     1      17.461  23.637   4.385  1.00  0.00     0.197 HD
BRANCH  33  35
HETATM   35  N8  UNL     1      16.876  22.953   2.515  1.00  0.00    -0.338 N 
ATOM     36  H82 UNL     1      16.320  23.487   1.847  1.00  0.00     0.177 HD
ATOM     37  H81 UNL     1      17.533  22.254   2.170  1.00  0.00     0.177 HD
ENDBRANCH  33  35
ENDBRANCH  32  33
ENDBRANCH  31  32
ENDBRANCH  29  31
ENDBRANCH   2  24
BRANCH   5  38
HETATM   38  N10 UNL     1      14.048  17.267   4.207  1.00  0.00    -0.234 N 
ATOM     39 2H10 UNL     1      14.585  17.201   5.072  1.00  0.00     0.174 HD
ATOM     40 1H10 UNL     1      13.983  16.454   3.594  1.00  0.00     0.174 HD
ENDBRANCH   5  38
TORSDOF 11
ENDMDL
