MODEL 1
REMARK VINA RESULT: -8.429589272      0.000      0.000
REMARK  1 active torsions:
REMARK  status: ('A' for Active; 'I' for Inactive)
REMARK    1  A    between atoms: O1_1  and  N1_3 
ROOT
HETATM    1  N1  UNL     1       8.443 -11.066  12.855  1.00  0.00    -0.277 N 
ATOM      2  H1  UNL     1       7.718 -10.939  13.561  1.00  0.00     0.193 HD
HETATM    3  C1  UNL     1       8.787 -10.053  12.153  1.00  0.00     0.012 C 
HETATM    4  C2  UNL     1       8.169  -8.728  12.341  1.00  0.00     0.055 C 
HETATM    5  C3  UNL     1       8.890  -7.652  11.586  1.00  0.00     0.013 C 
HETATM    6  C4  UNL     1      10.366  -7.807  11.644  1.00  0.00     0.023 C 
HETATM    7  C5  UNL     1      10.886  -9.174  11.380  1.00  0.00     0.196 C 
HETATM    8  C6  UNL     1       9.834 -10.205  11.121  1.00  0.00     0.087 C 
HETATM    9  N2  UNL     1      11.875  -9.090  10.327  1.00  0.00    -0.066 N 
ATOM     10  H21 UNL     1      11.530  -9.336   9.399  1.00  0.00     0.278 HD
ATOM     11  H22 UNL     1      12.596  -9.810  10.362  1.00  0.00     0.278 HD
HETATM   12  C7  UNL     1      12.360  -7.751  10.450  1.00  0.00     0.191 C 
HETATM   13  C8  UNL     1      13.163  -7.272   9.281  1.00  0.00     0.033 C 
HETATM   14  C9  UNL     1      12.388  -7.310   8.005  1.00  0.00     0.002 C 
HETATM   15  C10 UNL     1      11.144  -6.443   8.170  1.00  0.00     0.001 C 
HETATM   16  C11 UNL     1      10.304  -6.883   9.333  1.00  0.00     0.007 C 
HETATM   17  C12 UNL     1      11.079  -6.958  10.624  1.00  0.00     0.022 C 
ENDROOT
BRANCH   1  18
HETATM   18  O1  UNL     1       8.996 -12.316  12.710  1.00  0.00    -0.290 OA
ATOM     19  H1  UNL     1       9.322 -12.834  13.435  1.00  0.00     0.244 HD
ENDBRANCH   1  18
TORSDOF 1
ENDMDL
MODEL 2
REMARK VINA RESULT: -8.077146439      1.381      1.442
REMARK  1 active torsions:
REMARK  status: ('A' for Active; 'I' for Inactive)
REMARK    1  A    between atoms: O1_1  and  N1_3 
ROOT
HETATM    1  N1  UNL     1       6.813 -10.419  11.204  1.00  0.00    -0.277 N 
ATOM      2  H1  UNL     1       5.861 -10.132  11.434  1.00  0.00     0.193 HD
HETATM    3  C1  UNL     1       7.602  -9.547  10.698  1.00  0.00     0.012 C 
HETATM    4  C2  UNL     1       7.171  -8.160  10.446  1.00  0.00     0.055 C 
HETATM    5  C3  UNL     1       8.317  -7.265  10.081  1.00  0.00     0.013 C 
HETATM    6  C4  UNL     1       9.532  -7.539  10.890  1.00  0.00     0.023 C 
HETATM    7  C5  UNL     1       9.911  -8.969  11.032  1.00  0.00     0.196 C 
HETATM    8  C6  UNL     1       8.986  -9.931  10.354  1.00  0.00     0.087 C 
HETATM    9  N2  UNL     1      11.290  -9.119  10.622  1.00  0.00    -0.066 N 
ATOM     10  H21 UNL     1      11.416  -9.460   9.669  1.00  0.00     0.278 HD
ATOM     11  H22 UNL     1      11.787  -9.886  11.073  1.00  0.00     0.278 HD
HETATM   12  C7  UNL     1      11.840  -7.822  10.871  1.00  0.00     0.191 C 
HETATM   13  C8  UNL     1      13.174  -7.582  10.238  1.00  0.00     0.033 C 
HETATM   14  C9  UNL     1      13.133  -7.730   8.753  1.00  0.00     0.002 C 
HETATM   15  C10 UNL     1      12.111  -6.744   8.197  1.00  0.00     0.001 C 
HETATM   16  C11 UNL     1      10.753  -6.943   8.804  1.00  0.00     0.007 C 
HETATM   17  C12 UNL     1      10.770  -6.905  10.311  1.00  0.00     0.022 C 
ENDROOT
BRANCH   1  18
HETATM   18  O1  UNL     1       7.177 -11.720  11.454  1.00  0.00    -0.290 OA
ATOM     19  H1  UNL     1       6.556 -12.431  11.548  1.00  0.00     0.244 HD
ENDBRANCH   1  18
TORSDOF 1
ENDMDL
MODEL 3
REMARK VINA RESULT: -7.415349519      2.964      5.342
REMARK  1 active torsions:
REMARK  status: ('A' for Active; 'I' for Inactive)
REMARK    1  A    between atoms: O1_1  and  N1_3 
ROOT
HETATM    1  N1  UNL     1      11.801  -5.458   7.435  1.00  0.00    -0.277 N 
ATOM      2  H1  UNL     1      12.747  -5.120   7.257  1.00  0.00     0.193 HD
HETATM    3  C1  UNL     1      11.647  -6.405   8.282  1.00  0.00     0.012 C 
HETATM    4  C2  UNL     1      12.790  -7.007   8.994  1.00  0.00     0.055 C 
HETATM    5  C3  UNL     1      12.354  -7.920  10.100  1.00  0.00     0.013 C 
HETATM    6  C4  UNL     1      11.195  -7.382  10.858  1.00  0.00     0.023 C 
HETATM    7  C5  UNL     1      10.072  -6.855  10.040  1.00  0.00     0.196 C 
HETATM    8  C6  UNL     1      10.291  -6.919   8.561  1.00  0.00     0.087 C 
HETATM    9  N2  UNL     1       8.853  -7.507  10.465  1.00  0.00    -0.066 N 
ATOM     10  H21 UNL     1       8.559  -8.286   9.876  1.00  0.00     0.278 HD
ATOM     11  H22 UNL     1       8.006  -6.953  10.334  1.00  0.00     0.278 HD
HETATM   12  C7  UNL     1       9.133  -7.857  11.823  1.00  0.00     0.191 C 
HETATM   13  C8  UNL     1       8.173  -8.834  12.424  1.00  0.00     0.033 C 
HETATM   14  C9  UNL     1       8.128 -10.123  11.671  1.00  0.00     0.002 C 
HETATM   15  C10 UNL     1       9.531 -10.720  11.652  1.00  0.00     0.001 C 
HETATM   16  C11 UNL     1      10.535  -9.774  11.059  1.00  0.00     0.007 C 
HETATM   17  C12 UNL     1      10.537  -8.423  11.727  1.00  0.00     0.022 C 
ENDROOT
BRANCH   1  18
HETATM   18  O1  UNL     1      10.762  -4.873   6.753  1.00  0.00    -0.290 OA
ATOM     19  H1  UNL     1      10.208  -5.338   6.138  1.00  0.00     0.244 HD
ENDBRANCH   1  18
TORSDOF 1
ENDMDL
MODEL 4
REMARK VINA RESULT: -7.346535254      3.058      3.786
REMARK  1 active torsions:
REMARK  status: ('A' for Active; 'I' for Inactive)
REMARK    1  A    between atoms: O1_1  and  N1_3 
ROOT
HETATM    1  N1  UNL     1       7.250  -6.821   8.599  1.00  0.00    -0.277 N 
ATOM      2  H1  UNL     1       6.380  -7.311   8.807  1.00  0.00     0.193 HD
HETATM    3  C1  UNL     1       8.257  -7.027   9.361  1.00  0.00     0.012 C 
HETATM    4  C2  UNL     1       8.188  -7.944  10.513  1.00  0.00     0.055 C 
HETATM    5  C3  UNL     1       9.537  -8.212  11.109  1.00  0.00     0.013 C 
HETATM    6  C4  UNL     1      10.592  -8.381  10.077  1.00  0.00     0.023 C 
HETATM    7  C5  UNL     1      10.608  -7.366   8.992  1.00  0.00     0.196 C 
HETATM    8  C6  UNL     1       9.532  -6.331   9.087  1.00  0.00     0.087 C 
HETATM    9  N2  UNL     1      11.937  -6.801   8.915  1.00  0.00    -0.066 N 
ATOM     10  H21 UNL     1      12.046  -5.903   9.387  1.00  0.00     0.278 HD
ATOM     11  H22 UNL     1      12.204  -6.464   7.991  1.00  0.00     0.278 HD
HETATM   12  C7  UNL     1      12.761  -7.851   9.430  1.00  0.00     0.191 C 
HETATM   13  C8  UNL     1      14.156  -7.433   9.775  1.00  0.00     0.033 C 
HETATM   14  C9  UNL     1      14.186  -6.349  10.802  1.00  0.00     0.002 C 
HETATM   15  C10 UNL     1      13.470  -6.849  12.052  1.00  0.00     0.001 C 
HETATM   16  C11 UNL     1      12.064  -7.283  11.757  1.00  0.00     0.007 C 
HETATM   17  C12 UNL     1      11.983  -8.303  10.650  1.00  0.00     0.022 C 
ENDROOT
BRANCH   1  18
HETATM   18  O1  UNL     1       7.276  -5.975   7.517  1.00  0.00    -0.290 OA
ATOM     19  H1  UNL     1       6.683  -5.241   7.409  1.00  0.00     0.244 HD
ENDBRANCH   1  18
TORSDOF 1
ENDMDL
MODEL 5
REMARK VINA RESULT: -7.237584372      2.561      5.107
REMARK  1 active torsions:
REMARK  status: ('A' for Active; 'I' for Inactive)
REMARK    1  A    between atoms: O1_1  and  N1_3 
ROOT
HETATM    1  N1  UNL     1      13.206  -7.579   9.329  1.00  0.00    -0.277 N 
ATOM      2  H1  UNL     1      13.852  -6.791   9.378  1.00  0.00     0.193 HD
HETATM    3  C1  UNL     1      12.502  -7.848  10.363  1.00  0.00     0.012 C 
HETATM    4  C2  UNL     1      12.604  -7.057  11.603  1.00  0.00     0.055 C 
HETATM    5  C3  UNL     1      11.525  -7.398  12.586  1.00  0.00     0.013 C 
HETATM    6  C4  UNL     1      10.207  -7.608  11.934  1.00  0.00     0.023 C 
HETATM    7  C5  UNL     1      10.209  -8.471  10.725  1.00  0.00     0.196 C 
HETATM    8  C6  UNL     1      11.557  -8.983  10.325  1.00  0.00     0.087 C 
HETATM    9  N2  UNL     1       9.233  -9.522  10.912  1.00  0.00    -0.066 N 
ATOM     10  H21 UNL     1       9.621 -10.414  11.219  1.00  0.00     0.278 HD
ATOM     11  H22 UNL     1       8.822  -9.879  10.050  1.00  0.00     0.278 HD
HETATM   12  C7  UNL     1       8.299  -8.933  11.821  1.00  0.00     0.191 C 
HETATM   13  C8  UNL     1       7.350  -9.902  12.452  1.00  0.00     0.033 C 
HETATM   14  C9  UNL     1       8.056 -10.967  13.225  1.00  0.00     0.002 C 
HETATM   15  C10 UNL     1       8.905 -10.299  14.301  1.00  0.00     0.001 C 
HETATM   16  C11 UNL     1       9.875  -9.313  13.718  1.00  0.00     0.007 C 
HETATM   17  C12 UNL     1       9.210  -8.281  12.843  1.00  0.00     0.022 C 
ENDROOT
BRANCH   1  18
HETATM   18  O1  UNL     1      13.140  -8.292   8.157  1.00  0.00    -0.290 OA
ATOM     19  H1  UNL     1      13.664  -9.063   7.980  1.00  0.00     0.244 HD
ENDBRANCH   1  18
TORSDOF 1
ENDMDL
