MODEL 1
REMARK VINA RESULT: -7.075476460      0.000      0.000
REMARK  2 active torsions:
REMARK  status: ('A' for Active; 'I' for Inactive)
REMARK    1  A    between atoms: N1_6  and  O1_8 
REMARK    2  A    between atoms: C11_15  and  O2_17 
ROOT
HETATM    1  C1  UNL     1       8.087  -7.568   9.934  1.00  0.00     0.016 C 
HETATM    2  C2  UNL     1       7.826  -8.220  11.279  1.00  0.00    -0.032 C 
HETATM    3  C3  UNL     1       8.202  -7.151  12.316  1.00  0.00     0.016 C 
HETATM    4  C4  UNL     1       8.719  -9.405  11.392  1.00  0.00     0.046 C 
HETATM    5  C5  UNL     1       8.908  -9.913  12.774  1.00  0.00     0.015 C 
HETATM    6  N1  UNL     1       8.776  -9.351  13.898  1.00  0.00    -0.277 N 
ATOM      7  H1  UNL     1       8.489  -8.372  13.940  1.00  0.00     0.193 HD
HETATM    8  C6  UNL     1       9.321 -11.329  12.581  1.00  0.00     0.055 C 
HETATM    9  C7  UNL     1       8.348 -11.796  11.524  1.00  0.00     0.011 C 
HETATM   10  C8  UNL     1       7.854 -10.534  10.810  1.00  0.00     0.004 C 
HETATM   11  C9  UNL     1       6.498 -10.196  11.317  1.00  0.00     0.032 A 
HETATM   12  C10 UNL     1       6.429  -8.678  11.468  1.00  0.00     0.036 A 
HETATM   13  C11 UNL     1       5.560  -9.313  10.514  1.00  0.00     0.063 A 
HETATM   14  C12 UNL     1       5.718  -9.408   9.050  1.00  0.00     0.046 C 
ENDROOT
BRANCH   6  15
HETATM   15  O1  UNL     1       9.010 -10.032  15.053  1.00  0.00    -0.290 OA
ATOM     16  H1  UNL     1       9.790  -9.866  15.568  1.00  0.00     0.244 HD
ENDBRANCH   6  15
BRANCH  13  17
HETATM   17  O2  UNL     1       4.196  -9.425  10.888  1.00  0.00    -0.389 OA
ATOM     18  H2  UNL     1       3.650  -9.855  10.241  1.00  0.00     0.210 HD
ENDBRANCH  13  17
TORSDOF 2
ENDMDL
MODEL 2
REMARK VINA RESULT: -7.015719578      2.447      3.751
REMARK  2 active torsions:
REMARK  status: ('A' for Active; 'I' for Inactive)
REMARK    1  A    between atoms: N1_6  and  O1_8 
REMARK    2  A    between atoms: C11_15  and  O2_17 
ROOT
HETATM    1  C1  UNL     1       7.149  -9.706  11.115  1.00  0.00     0.016 C 
HETATM    2  C2  UNL     1       8.496 -10.221  11.587  1.00  0.00    -0.032 C 
HETATM    3  C3  UNL     1       8.413 -11.747  11.427  1.00  0.00     0.016 C 
HETATM    4  C4  UNL     1       8.651  -9.845  13.018  1.00  0.00     0.046 C 
HETATM    5  C5  UNL     1       9.691 -10.609  13.753  1.00  0.00     0.015 C 
HETATM    6  N1  UNL     1      10.211 -11.739  13.533  1.00  0.00    -0.277 N 
ATOM      7  H1  UNL     1       9.912 -12.282  12.723  1.00  0.00     0.193 HD
HETATM    8  C6  UNL     1      10.041  -9.726  14.898  1.00  0.00     0.055 C 
HETATM    9  C7  UNL     1      10.151  -8.376  14.228  1.00  0.00     0.011 C 
HETATM   10  C8  UNL     1       9.339  -8.474  12.933  1.00  0.00     0.004 C 
HETATM   11  C9  UNL     1      10.276  -8.652  11.792  1.00  0.00     0.032 A 
HETATM   12  C10 UNL     1       9.650  -9.668  10.839  1.00  0.00     0.036 A 
HETATM   13  C11 UNL     1       9.851  -8.323  10.373  1.00  0.00     0.063 A 
HETATM   14  C12 UNL     1       8.862  -7.235  10.256  1.00  0.00     0.046 C 
ENDROOT
BRANCH   6  15
HETATM   15  O1  UNL     1      11.166 -12.243  14.363  1.00  0.00    -0.290 OA
ATOM     16  H1  UNL     1      11.641 -13.034  14.138  1.00  0.00     0.244 HD
ENDBRANCH   6  15
BRANCH  13  17
HETATM   17  O2  UNL     1      10.933  -8.128   9.475  1.00  0.00    -0.389 OA
ATOM     18  H2  UNL     1      10.953  -7.268   9.073  1.00  0.00     0.210 HD
ENDBRANCH  13  17
TORSDOF 2
ENDMDL
MODEL 3
REMARK VINA RESULT: -6.993078606      1.795      2.465
REMARK  2 active torsions:
REMARK  status: ('A' for Active; 'I' for Inactive)
REMARK    1  A    between atoms: N1_6  and  O1_8 
REMARK    2  A    between atoms: C11_15  and  O2_17 
ROOT
HETATM    1  C1  UNL     1      11.244  -7.252  11.030  1.00  0.00     0.016 C 
HETATM    2  C2  UNL     1      10.181  -7.795  11.966  1.00  0.00    -0.032 C 
HETATM    3  C3  UNL     1      10.663  -7.416  13.374  1.00  0.00     0.016 C 
HETATM    4  C4  UNL     1      10.140  -9.273  11.799  1.00  0.00     0.046 C 
HETATM    5  C5  UNL     1       9.477 -10.006  12.908  1.00  0.00     0.015 C 
HETATM    6  N1  UNL     1       9.267  -9.691  14.112  1.00  0.00    -0.277 N 
ATOM      7  H1  UNL     1       9.583  -8.785  14.458  1.00  0.00     0.193 HD
HETATM    8  C6  UNL     1       9.067 -11.296  12.287  1.00  0.00     0.055 C 
HETATM    9  C7  UNL     1       8.485 -10.837  10.970  1.00  0.00     0.011 C 
HETATM   10  C8  UNL     1       9.091  -9.458  10.693  1.00  0.00     0.004 C 
HETATM   11  C9  UNL     1       8.084  -8.416  11.024  1.00  0.00     0.032 A 
HETATM   12  C10 UNL     1       8.820  -7.267  11.707  1.00  0.00     0.036 A 
HETATM   13  C11 UNL     1       8.184  -7.019  10.442  1.00  0.00     0.063 A 
HETATM   14  C12 UNL     1       8.800  -6.944   9.104  1.00  0.00     0.046 C 
ENDROOT
BRANCH   6  15
HETATM   15  O1  UNL     1       8.626 -10.544  14.958  1.00  0.00    -0.290 OA
ATOM     16  H1  UNL     1       9.024 -10.809  15.779  1.00  0.00     0.244 HD
ENDBRANCH   6  15
BRANCH  13  17
HETATM   17  O2  UNL     1       6.970  -6.284  10.486  1.00  0.00    -0.389 OA
ATOM     18  H2  UNL     1       6.545  -6.286  11.335  1.00  0.00     0.210 HD
ENDBRANCH  13  17
TORSDOF 2
ENDMDL
MODEL 4
REMARK VINA RESULT: -6.934620023      3.136      4.195
REMARK  2 active torsions:
REMARK  status: ('A' for Active; 'I' for Inactive)
REMARK    1  A    between atoms: N1_6  and  O1_8 
REMARK    2  A    between atoms: C11_15  and  O2_17 
ROOT
HETATM    1  C1  UNL     1       8.269  -7.339  12.477  1.00  0.00     0.016 C 
HETATM    2  C2  UNL     1       9.703  -7.828  12.410  1.00  0.00    -0.032 C 
HETATM    3  C3  UNL     1      10.312  -7.454  13.770  1.00  0.00     0.016 C 
HETATM    4  C4  UNL     1      10.382  -7.097  11.306  1.00  0.00     0.046 C 
HETATM    5  C5  UNL     1      11.866  -7.130  11.358  1.00  0.00     0.015 C 
HETATM    6  N1  UNL     1      12.666  -7.327  12.316  1.00  0.00    -0.277 N 
ATOM      7  H1  UNL     1      12.298  -7.501  13.251  1.00  0.00     0.193 HD
HETATM    8  C6  UNL     1      12.278  -6.864   9.953  1.00  0.00     0.055 C 
HETATM    9  C7  UNL     1      11.336  -7.755   9.178  1.00  0.00     0.011 C 
HETATM   10  C8  UNL     1      10.139  -8.013  10.097  1.00  0.00     0.004 C 
HETATM   11  C9  UNL     1      10.271  -9.371  10.687  1.00  0.00     0.032 A 
HETATM   12  C10 UNL     1       9.835  -9.281  12.148  1.00  0.00     0.036 A 
HETATM   13  C11 UNL     1       9.066 -10.100  11.251  1.00  0.00     0.063 A 
HETATM   14  C12 UNL     1       7.784  -9.786  10.592  1.00  0.00     0.046 C 
ENDROOT
BRANCH   6  15
HETATM   15  O1  UNL     1      14.013  -7.309  12.118  1.00  0.00    -0.290 OA
ATOM     16  H1  UNL     1      14.557  -8.037  12.393  1.00  0.00     0.244 HD
ENDBRANCH   6  15
BRANCH  13  17
HETATM   17  O2  UNL     1       9.243 -11.503  11.377  1.00  0.00    -0.389 OA
ATOM     18  H2  UNL     1       8.902 -12.005  10.647  1.00  0.00     0.210 HD
ENDBRANCH  13  17
TORSDOF 2
ENDMDL
MODEL 5
REMARK VINA RESULT: -6.922250960      1.963      3.192
REMARK  2 active torsions:
REMARK  status: ('A' for Active; 'I' for Inactive)
REMARK    1  A    between atoms: N1_6  and  O1_8 
REMARK    2  A    between atoms: C11_15  and  O2_17 
ROOT
HETATM    1  C1  UNL     1       6.094 -10.976  12.314  1.00  0.00     0.016 C 
HETATM    2  C2  UNL     1       7.269 -10.590  11.435  1.00  0.00    -0.032 C 
HETATM    3  C3  UNL     1       8.223 -11.794  11.501  1.00  0.00     0.016 C 
HETATM    4  C4  UNL     1       7.902  -9.379  12.025  1.00  0.00     0.046 C 
HETATM    5  C5  UNL     1       9.285  -9.109  11.556  1.00  0.00     0.015 C 
HETATM    6  N1  UNL     1      10.162  -9.867  11.056  1.00  0.00    -0.277 N 
ATOM      7  H1  UNL     1       9.954 -10.856  10.920  1.00  0.00     0.193 HD
HETATM    8  C6  UNL     1       9.467  -7.653  11.806  1.00  0.00     0.055 C 
HETATM    9  C7  UNL     1       8.164  -7.084  11.296  1.00  0.00     0.011 C 
HETATM   10  C8  UNL     1       7.155  -8.235  11.323  1.00  0.00     0.004 C 
HETATM   11  C9  UNL     1       6.986  -8.757   9.942  1.00  0.00     0.032 A 
HETATM   12  C10 UNL     1       6.899 -10.279  10.034  1.00  0.00     0.036 A 
HETATM   13  C11 UNL     1       5.755  -9.555   9.552  1.00  0.00     0.063 A 
HETATM   14  C12 UNL     1       4.524  -9.194  10.281  1.00  0.00     0.046 C 
ENDROOT
BRANCH   6  15
HETATM   15  O1  UNL     1      11.383  -9.382  10.697  1.00  0.00    -0.290 OA
ATOM     16  H1  UNL     1      12.168  -9.642  11.164  1.00  0.00     0.244 HD
ENDBRANCH   6  15
BRANCH  13  17
HETATM   17  O2  UNL     1       5.520  -9.614   8.154  1.00  0.00    -0.389 OA
ATOM     18  H2  UNL     1       5.237 -10.465   7.843  1.00  0.00     0.210 HD
ENDBRANCH  13  17
TORSDOF 2
ENDMDL
