MODEL 1
REMARK VINA RESULT: -6.298947087      0.000      0.000
REMARK  0 active torsions:
REMARK  status: ('A' for Active; 'I' for Inactive)
ROOT
HETATM    1  N1  UNL     1       8.914 -11.202  13.469  1.00  0.00    -0.380 N 
ATOM      2  H11 UNL     1       9.196 -12.128  13.145  1.00  0.00     0.158 HD
ATOM      3  H12 UNL     1       8.541 -11.342  14.408  1.00  0.00     0.158 HD
HETATM    4  C1  UNL     1       8.989 -10.092  12.874  1.00  0.00     0.139 C 
HETATM    5  N2  UNL     1       8.602  -8.816  13.321  1.00  0.00    -0.330 N 
ATOM      6  H2  UNL     1       8.391  -8.609  14.297  1.00  0.00     0.168 HD
HETATM    7  C2  UNL     1       8.531  -7.848  12.295  1.00  0.00     0.098 C 
HETATM    8  S1  UNL     1       7.396  -6.658  12.160  1.00  0.00    -0.064 SA
HETATM    9  C3  UNL     1       9.629  -8.006  11.307  1.00  0.00     0.069 C 
HETATM   10  C4  UNL     1      10.900  -7.565  11.951  1.00  0.00     0.028 C 
HETATM   11  C5  UNL     1      12.081  -7.607  11.002  1.00  0.00     0.002 C 
HETATM   12  C6  UNL     1      11.720  -6.622   9.882  1.00  0.00     0.000 C 
HETATM   13  C7  UNL     1      10.549  -7.196   9.157  1.00  0.00     0.002 C 
HETATM   14  C8  UNL     1       9.333  -7.400   9.993  1.00  0.00     0.028 C 
HETATM   15  S2  UNL     1       9.641  -9.848  11.235  1.00  0.00    -0.077 SA
ENDROOT
TORSDOF 0
ENDMDL
MODEL 2
REMARK VINA RESULT: -5.978129941      2.298      3.332
REMARK  0 active torsions:
REMARK  status: ('A' for Active; 'I' for Inactive)
ROOT
HETATM    1  N1  UNL     1       5.954  -9.769   9.552  1.00  0.00    -0.380 N 
ATOM      2  H11 UNL     1       5.269  -9.023   9.429  1.00  0.00     0.158 HD
ATOM      3  H12 UNL     1       5.616 -10.548   8.987  1.00  0.00     0.158 HD
HETATM    4  C1  UNL     1       7.007  -9.777  10.246  1.00  0.00     0.139 C 
HETATM    5  N2  UNL     1       7.951 -10.806  10.416  1.00  0.00    -0.330 N 
ATOM      6  H2  UNL     1       7.994 -11.627   9.812  1.00  0.00     0.168 HD
HETATM    7  C2  UNL     1       8.835 -10.599  11.499  1.00  0.00     0.098 C 
HETATM    8  S1  UNL     1       9.395 -11.760  12.529  1.00  0.00    -0.064 SA
HETATM    9  C3  UNL     1       9.233  -9.174  11.623  1.00  0.00     0.069 C 
HETATM   10  C4  UNL     1      10.165  -8.853  10.503  1.00  0.00     0.028 C 
HETATM   11  C5  UNL     1      10.702  -7.438  10.579  1.00  0.00     0.002 C 
HETATM   12  C6  UNL     1      11.475  -7.381  11.903  1.00  0.00     0.000 C 
HETATM   13  C7  UNL     1      10.474  -7.533  12.999  1.00  0.00     0.002 C 
HETATM   14  C8  UNL     1       9.707  -8.809  12.974  1.00  0.00     0.028 C 
HETATM   15  S2  UNL     1       7.598  -8.418  11.233  1.00  0.00    -0.077 SA
ENDROOT
TORSDOF 0
ENDMDL
MODEL 3
REMARK VINA RESULT: -5.851723757      2.566      4.070
REMARK  0 active torsions:
REMARK  status: ('A' for Active; 'I' for Inactive)
ROOT
HETATM    1  N1  UNL     1      10.625 -12.204  12.792  1.00  0.00    -0.380 N 
ATOM      2  H11 UNL     1      10.458 -12.744  13.642  1.00  0.00     0.158 HD
ATOM      3  H12 UNL     1      11.464 -12.606  12.372  1.00  0.00     0.158 HD
HETATM    4  C1  UNL     1       9.967 -11.238  12.320  1.00  0.00     0.139 C 
HETATM    5  N2  UNL     1      10.197 -10.494  11.149  1.00  0.00    -0.330 N 
ATOM      6  H2  UNL     1      10.837 -10.796  10.414  1.00  0.00     0.168 HD
HETATM    7  C2  UNL     1       9.461  -9.290  11.081  1.00  0.00     0.098 C 
HETATM    8  S1  UNL     1      10.005  -7.852  10.480  1.00  0.00    -0.064 SA
HETATM    9  C3  UNL     1       8.087  -9.450  11.622  1.00  0.00     0.069 C 
HETATM   10  C4  UNL     1       7.295 -10.257  10.649  1.00  0.00     0.028 C 
HETATM   11  C5  UNL     1       5.846 -10.414  11.063  1.00  0.00     0.002 C 
HETATM   12  C6  UNL     1       5.289  -8.984  11.097  1.00  0.00     0.000 C 
HETATM   13  C7  UNL     1       5.991  -8.269  12.203  1.00  0.00     0.002 C 
HETATM   14  C8  UNL     1       7.470  -8.178  12.052  1.00  0.00     0.028 C 
HETATM   15  S2  UNL     1       8.503 -10.537  13.052  1.00  0.00    -0.077 SA
ENDROOT
TORSDOF 0
ENDMDL
MODEL 4
REMARK VINA RESULT: -5.604546216      2.282      4.320
REMARK  0 active torsions:
REMARK  status: ('A' for Active; 'I' for Inactive)
ROOT
HETATM    1  N1  UNL     1      11.597  -7.088  11.029  1.00  0.00    -0.380 N 
ATOM      2  H11 UNL     1      11.923  -7.134  10.064  1.00  0.00     0.158 HD
ATOM      3  H12 UNL     1      12.056  -6.273  11.436  1.00  0.00     0.158 HD
HETATM    4  C1  UNL     1      10.798  -7.852  11.638  1.00  0.00     0.139 C 
HETATM    5  N2  UNL     1      10.348  -7.788  12.969  1.00  0.00    -0.330 N 
ATOM      6  H2  UNL     1      10.469  -6.964  13.558  1.00  0.00     0.168 HD
HETATM    7  C2  UNL     1       9.712  -8.968  13.415  1.00  0.00     0.098 C 
HETATM    8  S1  UNL     1       9.848  -9.633  14.919  1.00  0.00    -0.064 SA
HETATM    9  C3  UNL     1       8.868  -9.577  12.356  1.00  0.00     0.069 C 
HETATM   10  C4  UNL     1       7.660  -8.721  12.175  1.00  0.00     0.028 C 
HETATM   11  C5  UNL     1       6.683  -9.295  11.169  1.00  0.00     0.002 C 
HETATM   12  C6  UNL     1       6.255 -10.644  11.762  1.00  0.00     0.000 C 
HETATM   13  C7  UNL     1       7.461 -11.523  11.760  1.00  0.00     0.002 C 
HETATM   14  C8  UNL     1       8.607 -11.016  12.563  1.00  0.00     0.028 C 
HETATM   15  S2  UNL     1       9.994  -9.274  10.929  1.00  0.00    -0.077 SA
ENDROOT
TORSDOF 0
ENDMDL
MODEL 5
REMARK VINA RESULT: -5.551025041      1.823      2.522
REMARK  0 active torsions:
REMARK  status: ('A' for Active; 'I' for Inactive)
ROOT
HETATM    1  N1  UNL     1       7.852 -11.985  11.145  1.00  0.00    -0.380 N 
ATOM      2  H11 UNL     1       8.361 -12.861  11.263  1.00  0.00     0.158 HD
ATOM      3  H12 UNL     1       6.890 -12.251  10.937  1.00  0.00     0.158 HD
HETATM    4  C1  UNL     1       8.277 -10.800  11.227  1.00  0.00     0.139 C 
HETATM    5  N2  UNL     1       7.576  -9.591  11.066  1.00  0.00    -0.330 N 
ATOM      6  H2  UNL     1       6.558  -9.535  11.061  1.00  0.00     0.168 HD
HETATM    7  C2  UNL     1       8.410  -8.462  10.912  1.00  0.00     0.098 C 
HETATM    8  S1  UNL     1       8.137  -7.184   9.904  1.00  0.00    -0.064 SA
HETATM    9  C3  UNL     1       9.608  -8.534  11.787  1.00  0.00     0.069 C 
HETATM   10  C4  UNL     1       9.169  -8.305  13.194  1.00  0.00     0.028 C 
HETATM   11  C5  UNL     1      10.329  -8.276  14.170  1.00  0.00     0.002 C 
HETATM   12  C6  UNL     1      11.195  -7.093  13.717  1.00  0.00     0.000 C 
HETATM   13  C7  UNL     1      11.751  -7.447  12.378  1.00  0.00     0.002 C 
HETATM   14  C8  UNL     1      10.731  -7.696  11.322  1.00  0.00     0.028 C 
HETATM   15  S2  UNL     1       9.957 -10.333  11.590  1.00  0.00    -0.077 SA
ENDROOT
TORSDOF 0
ENDMDL
