MODEL 1
REMARK VINA RESULT: -7.099612483      0.000      0.000
REMARK  1 active torsions:
REMARK  status: ('A' for Active; 'I' for Inactive)
REMARK    1  A    between atoms: C13_13  and  O1_14 
ROOT
HETATM    1  C1  UNL     1       8.299 -11.019  12.695  1.00  0.00     0.046 C 
HETATM    2  C2  UNL     1       9.332  -9.894  12.608  1.00  0.00     0.064 C 
HETATM    3  C3  UNL     1      10.193 -10.116  11.385  1.00  0.00     0.038 C 
HETATM    4  C4  UNL     1      10.854  -8.892  10.875  1.00  0.00     0.008 C 
HETATM    5  C5  UNL     1      10.271  -7.594  11.276  1.00  0.00    -0.009 C 
HETATM    6  C6  UNL     1       9.019  -7.391  10.394  1.00  0.00     0.005 C 
HETATM    7  C7  UNL     1       8.086  -8.395  11.035  1.00  0.00     0.008 C 
HETATM    8  C8  UNL     1       8.556  -8.614  12.458  1.00  0.00     0.025 C 
HETATM    9  C9  UNL     1       9.599  -7.499  12.585  1.00  0.00     0.009 C 
HETATM   10  C10 UNL     1      10.389  -7.552  13.812  1.00  0.00     0.007 C 
HETATM   11  C11 UNL     1       9.769  -6.573  14.828  1.00  0.00     0.020 C 
HETATM   12  C12 UNL     1      11.833  -7.099  13.671  1.00  0.00     0.020 C 
HETATM   13  C13 UNL     1      10.303  -8.905  14.482  1.00  0.00     0.266 C 
HETATM   14  O2  UNL     1      10.125  -9.967  13.695  1.00  0.00    -0.350 OA
ENDROOT
BRANCH  13  15
HETATM   15  O1  UNL     1       9.326  -8.922  15.500  1.00  0.00    -0.370 OA
ATOM     16  H1  UNL     1       9.117  -9.808  15.772  1.00  0.00     0.212 HD
ENDBRANCH  13  15
TORSDOF 1
ENDMDL
MODEL 2
REMARK VINA RESULT: -7.050565819      1.806      3.663
REMARK  1 active torsions:
REMARK  status: ('A' for Active; 'I' for Inactive)
REMARK    1  A    between atoms: C13_13  and  O1_14 
ROOT
HETATM    1  C1  UNL     1      10.174 -11.602  12.740  1.00  0.00     0.046 C 
HETATM    2  C2  UNL     1       9.255 -10.391  12.571  1.00  0.00     0.064 C 
HETATM    3  C3  UNL     1       9.700  -9.305  13.523  1.00  0.00     0.038 C 
HETATM    4  C4  UNL     1       9.283  -7.939  13.128  1.00  0.00     0.008 C 
HETATM    5  C5  UNL     1       8.927  -7.727  11.709  1.00  0.00    -0.009 C 
HETATM    6  C6  UNL     1      10.262  -7.638  10.937  1.00  0.00     0.005 C 
HETATM    7  C7  UNL     1      10.677  -9.093  10.969  1.00  0.00     0.008 C 
HETATM    8  C8  UNL     1       9.424  -9.923  11.151  1.00  0.00     0.025 C 
HETATM    9  C9  UNL     1       8.345  -8.852  10.954  1.00  0.00     0.009 C 
HETATM   10  C10 UNL     1       6.989  -9.303  11.253  1.00  0.00     0.007 C 
HETATM   11  C11 UNL     1       6.308  -9.697   9.927  1.00  0.00     0.020 C 
HETATM   12  C12 UNL     1       6.076  -8.249  11.858  1.00  0.00     0.020 C 
HETATM   13  C13 UNL     1       6.984 -10.570  12.078  1.00  0.00     0.266 C 
HETATM   14  O2  UNL     1       8.005 -10.761  12.914  1.00  0.00    -0.350 OA
ENDROOT
BRANCH  13  15
HETATM   15  O1  UNL     1       6.834 -11.718  11.271  1.00  0.00    -0.370 OA
ATOM     16  H1  UNL     1       7.304 -12.463  11.628  1.00  0.00     0.212 HD
ENDBRANCH  13  15
TORSDOF 1
ENDMDL
MODEL 3
REMARK VINA RESULT: -7.045844552      2.222      4.267
REMARK  1 active torsions:
REMARK  status: ('A' for Active; 'I' for Inactive)
REMARK    1  A    between atoms: C13_13  and  O1_14 
ROOT
HETATM    1  C1  UNL     1      10.505  -8.621  10.611  1.00  0.00     0.046 C 
HETATM    2  C2  UNL     1       9.456  -9.548  11.228  1.00  0.00     0.064 C 
HETATM    3  C3  UNL     1      10.118 -10.856  11.598  1.00  0.00     0.038 C 
HETATM    4  C4  UNL     1       9.408 -11.624  12.648  1.00  0.00     0.008 C 
HETATM    5  C5  UNL     1       8.470 -10.876  13.512  1.00  0.00    -0.009 C 
HETATM    6  C6  UNL     1       9.340 -10.111  14.535  1.00  0.00     0.005 C 
HETATM    7  C7  UNL     1       9.909  -9.034  13.637  1.00  0.00     0.008 C 
HETATM    8  C8  UNL     1       8.958  -8.861  12.470  1.00  0.00     0.025 C 
HETATM    9  C9  UNL     1       7.772  -9.706  12.946  1.00  0.00     0.009 C 
HETATM   10  C10 UNL     1       6.732  -9.900  11.939  1.00  0.00     0.007 C 
HETATM   11  C11 UNL     1       5.614  -8.868  12.196  1.00  0.00     0.020 C 
HETATM   12  C12 UNL     1       6.030 -11.248  11.986  1.00  0.00     0.020 C 
HETATM   13  C13 UNL     1       7.227  -9.589  10.546  1.00  0.00     0.266 C 
HETATM   14  O2  UNL     1       8.520  -9.805  10.294  1.00  0.00    -0.350 OA
ENDROOT
BRANCH  13  15
HETATM   15  O1  UNL     1       6.899  -8.273  10.156  1.00  0.00    -0.370 OA
ATOM     16  H1  UNL     1       6.502  -8.251   9.293  1.00  0.00     0.212 HD
ENDBRANCH  13  15
TORSDOF 1
ENDMDL
MODEL 4
REMARK VINA RESULT: -6.987480592      1.881      3.128
REMARK  1 active torsions:
REMARK  status: ('A' for Active; 'I' for Inactive)
REMARK    1  A    between atoms: C13_13  and  O1_14 
ROOT
HETATM    1  C1  UNL     1       6.973 -11.219  11.623  1.00  0.00     0.046 C 
HETATM    2  C2  UNL     1       7.545  -9.940  11.008  1.00  0.00     0.064 C 
HETATM    3  C3  UNL     1       6.672  -9.526   9.845  1.00  0.00     0.038 C 
HETATM    4  C4  UNL     1       6.762  -8.089   9.496  1.00  0.00     0.008 C 
HETATM    5  C5  UNL     1       7.276  -7.174  10.537  1.00  0.00    -0.009 C 
HETATM    6  C6  UNL     1       6.113  -6.950  11.530  1.00  0.00     0.005 C 
HETATM    7  C7  UNL     1       6.108  -8.292  12.229  1.00  0.00     0.008 C 
HETATM    8  C8  UNL     1       7.492  -8.890  12.083  1.00  0.00     0.025 C 
HETATM    9  C9  UNL     1       8.257  -7.693  11.509  1.00  0.00     0.009 C 
HETATM   10  C10 UNL     1       9.616  -8.002  11.073  1.00  0.00     0.007 C 
HETATM   11  C11 UNL     1      10.588  -7.601  12.202  1.00  0.00     0.020 C 
HETATM   12  C12 UNL     1      10.097  -7.227   9.857  1.00  0.00     0.020 C 
HETATM   13  C13 UNL     1       9.829  -9.487  10.894  1.00  0.00     0.266 C 
HETATM   14  O2  UNL     1       8.774 -10.217  10.528  1.00  0.00    -0.350 OA
ENDROOT
BRANCH  13  15
HETATM   15  O1  UNL     1      10.415 -10.073  12.037  1.00  0.00    -0.370 OA
ATOM     16  H1  UNL     1      10.758 -10.939  11.852  1.00  0.00     0.212 HD
ENDBRANCH  13  15
TORSDOF 1
ENDMDL
MODEL 5
REMARK VINA RESULT: -6.816301591      1.051      3.313
REMARK  1 active torsions:
REMARK  status: ('A' for Active; 'I' for Inactive)
REMARK    1  A    between atoms: C13_13  and  O1_14 
ROOT
HETATM    1  C1  UNL     1      11.255  -7.042  14.359  1.00  0.00     0.046 C 
HETATM    2  C2  UNL     1      10.120  -7.836  13.708  1.00  0.00     0.064 C 
HETATM    3  C3  UNL     1       8.991  -6.889  13.375  1.00  0.00     0.038 C 
HETATM    4  C4  UNL     1       8.087  -7.370  12.304  1.00  0.00     0.008 C 
HETATM    5  C5  UNL     1       8.611  -8.413  11.398  1.00  0.00    -0.009 C 
HETATM    6  C6  UNL     1       9.549  -7.691  10.404  1.00  0.00     0.005 C 
HETATM    7  C7  UNL     1      10.724  -7.410  11.315  1.00  0.00     0.008 C 
HETATM    8  C8  UNL     1      10.683  -8.421  12.441  1.00  0.00     0.025 C 
HETATM    9  C9  UNL     1       9.598  -9.373  11.926  1.00  0.00     0.009 C 
HETATM   10  C10 UNL     1       9.180 -10.386  12.892  1.00  0.00     0.007 C 
HETATM   11  C11 UNL     1       9.941 -11.691  12.583  1.00  0.00     0.020 C 
HETATM   12  C12 UNL     1       7.711 -10.772  12.829  1.00  0.00     0.020 C 
HETATM   13  C13 UNL     1       9.590 -10.027  14.302  1.00  0.00     0.266 C 
HETATM   14  O2  UNL     1       9.664  -8.730  14.607  1.00  0.00    -0.350 OA
ENDROOT
BRANCH  13  15
HETATM   15  O1  UNL     1      10.802 -10.652  14.668  1.00  0.00    -0.370 OA
ATOM     16  H1  UNL     1      10.678 -11.270  15.378  1.00  0.00     0.212 HD
ENDBRANCH  13  15
TORSDOF 1
ENDMDL
