MODEL 1
REMARK VINA RESULT: -5.113507105      0.000      0.000
REMARK  1 active torsions:
REMARK  status: ('A' for Active; 'I' for Inactive)
REMARK    1  A    between atoms: C4_4  and  C5_5 
ROOT
HETATM    1  C1  UNL     1      -0.751 -13.860  24.579  1.00  0.00     0.044 C 
HETATM    2  C2  UNL     1      -0.846 -15.001  23.608  1.00  0.00    -0.076 C 
HETATM    3  C3  UNL     1       0.098 -15.345  22.762  1.00  0.00    -0.032 C 
HETATM    4  C4  UNL     1       1.484 -14.797  22.467  1.00  0.00     0.131 C 
HETATM    5  C6  UNL     1       1.634 -14.646  20.965  1.00  0.00     0.008 C 
HETATM    6  C7  UNL     1       3.090 -14.517  20.577  1.00  0.00     0.022 C 
HETATM    7  C8  UNL     1       0.922 -13.330  20.582  1.00  0.00     0.022 C 
HETATM    8  C9  UNL     1       0.996 -15.697  20.177  1.00  0.00     0.051 C 
HETATM    9  C10 UNL     1       1.445 -15.779  18.781  1.00  0.00     0.097 C 
HETATM   10  N1  UNL     1       1.784 -15.859  17.678  1.00  0.00    -0.192 NA
HETATM   11  C11 UNL     1       0.092 -16.533  20.609  1.00  0.00     0.059 C 
HETATM   12 CL1  UNL     1      -0.554 -17.726  19.504  1.00  0.00    -0.085 Cl
HETATM   13  C12 UNL     1      -0.394 -16.514  21.988  1.00  0.00     0.143 C 
HETATM   14  C13 UNL     1       0.065 -17.756  22.629  1.00  0.00     0.082 C 
HETATM   15  N2  UNL     1       0.428 -18.744  23.126  1.00  0.00    -0.196 NA
HETATM   16  C14 UNL     1      -1.895 -16.487  22.143  1.00  0.00     0.140 C 
HETATM   17 BR1  UNL     1      -2.638 -18.271  22.232  1.00  0.00    -0.066 Br
HETATM   18  C15 UNL     1      -2.551 -15.755  21.091  1.00  0.00     0.084 C 
HETATM   19  N3  UNL     1      -3.077 -15.180  20.257  1.00  0.00    -0.195 NA
HETATM   20  C16 UNL     1      -2.060 -15.854  23.512  1.00  0.00     0.073 C 
ENDROOT
BRANCH   4  21
HETATM   21  C5  UNL     1       2.499 -15.693  23.066  1.00  0.00     0.182 C 
HETATM   22  O1  UNL     1       3.207 -16.511  22.430  1.00  0.00    -0.647 OA
HETATM   23  O2  UNL     1       2.718 -15.656  24.459  1.00  0.00    -0.647 OA
ENDBRANCH   4  21
TORSDOF 1
ENDMDL
MODEL 2
REMARK VINA RESULT: -5.104827111      2.704      4.776
REMARK  1 active torsions:
REMARK  status: ('A' for Active; 'I' for Inactive)
REMARK    1  A    between atoms: C4_4  and  C5_5 
ROOT
HETATM    1  C1  UNL     1       0.940 -20.880  21.593  1.00  0.00     0.044 C 
HETATM    2  C2  UNL     1       0.623 -19.792  20.607  1.00  0.00    -0.076 C 
HETATM    3  C3  UNL     1       0.099 -18.629  20.919  1.00  0.00    -0.032 C 
HETATM    4  C4  UNL     1      -0.340 -18.000  22.232  1.00  0.00     0.131 C 
HETATM    5  C6  UNL     1      -1.722 -17.404  22.043  1.00  0.00     0.008 C 
HETATM    6  C7  UNL     1      -2.039 -16.416  23.143  1.00  0.00     0.022 C 
HETATM    7  C8  UNL     1      -2.725 -18.574  22.152  1.00  0.00     0.022 C 
HETATM    8  C9  UNL     1      -1.952 -16.792  20.737  1.00  0.00     0.051 C 
HETATM    9  C10 UNL     1      -3.113 -15.894  20.673  1.00  0.00     0.097 C 
HETATM   10  N1  UNL     1      -4.023 -15.185  20.603  1.00  0.00    -0.192 NA
HETATM   11  C11 UNL     1      -1.228 -16.979  19.668  1.00  0.00     0.059 C 
HETATM   12 CL1  UNL     1      -1.670 -16.151  18.192  1.00  0.00    -0.085 Cl
HETATM   13  C12 UNL     1      -0.054 -17.851  19.662  1.00  0.00     0.143 C 
HETATM   14  C13 UNL     1       1.124 -16.994  19.468  1.00  0.00     0.082 C 
HETATM   15  N2  UNL     1       2.052 -16.308  19.309  1.00  0.00    -0.196 NA
HETATM   16  C14 UNL     1      -0.018 -18.878  18.556  1.00  0.00     0.140 C 
HETATM   17 BR1  UNL     1       0.864 -18.197  16.975  1.00  0.00    -0.066 Br
HETATM   18  C15 UNL     1      -1.327 -19.356  18.196  1.00  0.00     0.084 C 
HETATM   19  N3  UNL     1      -2.364 -19.735  17.904  1.00  0.00    -0.195 NA
HETATM   20  C16 UNL     1       0.874 -19.952  19.151  1.00  0.00     0.073 C 
ENDROOT
BRANCH   4  21
HETATM   21  C5  UNL     1       0.670 -17.006  22.657  1.00  0.00     0.182 C 
HETATM   22  O1  UNL     1       0.574 -15.764  22.500  1.00  0.00    -0.647 OA
HETATM   23  O2  UNL     1       1.851 -17.447  23.291  1.00  0.00    -0.647 OA
ENDBRANCH   4  21
TORSDOF 1
ENDMDL
MODEL 3
REMARK VINA RESULT: -5.086400931      2.136      3.866
REMARK  1 active torsions:
REMARK  status: ('A' for Active; 'I' for Inactive)
REMARK    1  A    between atoms: C4_4  and  C5_5 
ROOT
HETATM    1  C1  UNL     1       0.072 -13.498  19.282  1.00  0.00     0.044 C 
HETATM    2  C2  UNL     1      -0.102 -14.916  19.744  1.00  0.00    -0.076 C 
HETATM    3  C3  UNL     1       0.213 -15.358  20.940  1.00  0.00    -0.032 C 
HETATM    4  C4  UNL     1       0.803 -14.697  22.175  1.00  0.00     0.131 C 
HETATM    5  C6  UNL     1       1.934 -15.565  22.693  1.00  0.00     0.008 C 
HETATM    6  C7  UNL     1       2.278 -15.207  24.121  1.00  0.00     0.022 C 
HETATM    7  C8  UNL     1       3.166 -15.253  21.815  1.00  0.00     0.022 C 
HETATM    8  C9  UNL     1       1.706 -17.002  22.577  1.00  0.00     0.051 C 
HETATM    9  C10 UNL     1       2.592 -17.835  23.401  1.00  0.00     0.097 C 
HETATM   10  N1  UNL     1       3.281 -18.508  24.042  1.00  0.00    -0.192 NA
HETATM   11  C11 UNL     1       0.808 -17.575  21.823  1.00  0.00     0.059 C 
HETATM   12 CL1  UNL     1       0.693 -19.321  21.822  1.00  0.00    -0.085 Cl
HETATM   13  C12 UNL     1      -0.112 -16.808  20.985  1.00  0.00     0.143 C 
HETATM   14  C13 UNL     1      -1.462 -16.991  21.538  1.00  0.00     0.082 C 
HETATM   15  N2  UNL     1      -2.528 -17.147  21.980  1.00  0.00    -0.196 NA
HETATM   16  C14 UNL     1      -0.184 -17.241  19.540  1.00  0.00     0.140 C 
HETATM   17 BR1  UNL     1      -1.544 -18.588  19.264  1.00  0.00    -0.066 Br
HETATM   18  C15 UNL     1       1.074 -17.733  19.043  1.00  0.00     0.084 C 
HETATM   19  N3  UNL     1       2.069 -18.128  18.644  1.00  0.00    -0.195 NA
HETATM   20  C16 UNL     1      -0.650 -15.972  18.852  1.00  0.00     0.073 C 
ENDROOT
BRANCH   4  21
HETATM   21  C5  UNL     1      -0.271 -14.484  23.171  1.00  0.00     0.182 C 
HETATM   22  O1  UNL     1      -0.506 -15.231  24.152  1.00  0.00    -0.647 OA
HETATM   23  O2  UNL     1      -1.120 -13.364  23.044  1.00  0.00    -0.647 OA
ENDBRANCH   4  21
TORSDOF 1
ENDMDL
MODEL 4
REMARK VINA RESULT: -5.074771280      2.638      3.610
REMARK  1 active torsions:
REMARK  status: ('A' for Active; 'I' for Inactive)
REMARK    1  A    between atoms: C4_4  and  C5_5 
ROOT
HETATM    1  C1  UNL     1       2.719 -15.490  21.787  1.00  0.00     0.044 C 
HETATM    2  C2  UNL     1       1.246 -15.768  21.690  1.00  0.00    -0.076 C 
HETATM    3  C3  UNL     1       0.724 -16.918  21.329  1.00  0.00    -0.032 C 
HETATM    4  C4  UNL     1       1.322 -18.253  20.919  1.00  0.00     0.131 C 
HETATM    5  C6  UNL     1       0.631 -18.724  19.653  1.00  0.00     0.008 C 
HETATM    6  C7  UNL     1       0.862 -20.201  19.429  1.00  0.00     0.022 C 
HETATM    7  C8  UNL     1       1.284 -17.957  18.483  1.00  0.00     0.022 C 
HETATM    8  C9  UNL     1      -0.797 -18.424  19.589  1.00  0.00     0.051 C 
HETATM    9  C10 UNL     1      -1.542 -19.189  18.580  1.00  0.00     0.097 C 
HETATM   10  N1  UNL     1      -2.146 -19.781  17.791  1.00  0.00    -0.192 NA
HETATM   11  C11 UNL     1      -1.431 -17.560  20.333  1.00  0.00     0.059 C 
HETATM   12 CL1  UNL     1      -3.151 -17.344  20.100  1.00  0.00    -0.085 Cl
HETATM   13  C12 UNL     1      -0.755 -16.771  21.362  1.00  0.00     0.143 C 
HETATM   14  C13 UNL     1      -1.264 -17.226  22.664  1.00  0.00     0.082 C 
HETATM   15  N2  UNL     1      -1.678 -17.588  23.691  1.00  0.00    -0.196 NA
HETATM   16  C14 UNL     1      -1.005 -15.284  21.304  1.00  0.00     0.140 C 
HETATM   17 BR1  UNL     1      -2.543 -14.775  22.362  1.00  0.00    -0.066 Br
HETATM   18  C15 UNL     1      -1.178 -14.800  19.959  1.00  0.00     0.084 C 
HETATM   19  N3  UNL     1      -1.320 -14.411  18.895  1.00  0.00    -0.195 NA
HETATM   20  C16 UNL     1       0.227 -14.729  21.992  1.00  0.00     0.073 C 
ENDROOT
BRANCH   4  21
HETATM   21  C5  UNL     1       1.196 -19.209  22.041  1.00  0.00     0.182 C 
HETATM   22  O1  UNL     1       0.434 -20.207  22.060  1.00  0.00    -0.647 OA
HETATM   23  O2  UNL     1       1.974 -19.018  23.203  1.00  0.00    -0.647 OA
ENDBRANCH   4  21
TORSDOF 1
ENDMDL
MODEL 5
REMARK VINA RESULT: -5.056245906      3.180      4.909
REMARK  1 active torsions:
REMARK  status: ('A' for Active; 'I' for Inactive)
REMARK    1  A    between atoms: C4_4  and  C5_5 
ROOT
HETATM    1  C1  UNL     1      -3.992 -19.154  18.774  1.00  0.00     0.044 C 
HETATM    2  C2  UNL     1      -2.576 -18.853  19.171  1.00  0.00    -0.076 C 
HETATM    3  C3  UNL     1      -2.227 -18.130  20.211  1.00  0.00    -0.032 C 
HETATM    4  C4  UNL     1      -3.016 -17.404  21.288  1.00  0.00     0.131 C 
HETATM    5  C6  UNL     1      -2.456 -16.001  21.433  1.00  0.00     0.008 C 
HETATM    6  C7  UNL     1      -2.890 -15.379  22.741  1.00  0.00     0.022 C 
HETATM    7  C8  UNL     1      -3.060 -15.165  20.284  1.00  0.00     0.022 C 
HETATM    8  C9  UNL     1      -1.006 -15.903  21.288  1.00  0.00     0.051 C 
HETATM    9  C10 UNL     1      -0.419 -14.655  21.794  1.00  0.00     0.097 C 
HETATM   10  N1  UNL     1       0.061 -13.679  22.186  1.00  0.00    -0.192 NA
HETATM   11  C11 UNL     1      -0.228 -16.809  20.761  1.00  0.00     0.059 C 
HETATM   12 CL1  UNL     1       1.492 -16.501  20.677  1.00  0.00    -0.085 Cl
HETATM   13  C12 UNL     1      -0.743 -18.077  20.246  1.00  0.00     0.143 C 
HETATM   14  C13 UNL     1      -0.233 -19.142  21.122  1.00  0.00     0.082 C 
HETATM   15  N2  UNL     1       0.180 -19.980  21.817  1.00  0.00    -0.196 NA
HETATM   16  C14 UNL     1      -0.302 -18.431  18.846  1.00  0.00     0.140 C 
HETATM   17 BR1  UNL     1       1.339 -19.455  18.850  1.00  0.00    -0.066 Br
HETATM   18  C15 UNL     1      -0.135 -17.275  18.005  1.00  0.00     0.084 C 
HETATM   19  N3  UNL     1       0.004 -16.361  17.334  1.00  0.00    -0.195 NA
HETATM   20  C16 UNL     1      -1.416 -19.354  18.389  1.00  0.00     0.073 C 
ENDROOT
BRANCH   4  21
HETATM   21  C5  UNL     1      -2.960 -18.185  22.544  1.00  0.00     0.182 C 
HETATM   22  O1  UNL     1      -2.188 -17.955  23.506  1.00  0.00    -0.647 OA
HETATM   23  O2  UNL     1      -3.825 -19.287  22.711  1.00  0.00    -0.647 OA
ENDBRANCH   4  21
TORSDOF 1
ENDMDL
