MODEL 1
REMARK VINA RESULT: -6.585954917      0.000      0.000
REMARK  5 active torsions:
REMARK  status: ('A' for Active; 'I' for Inactive)
REMARK    1  A    between atoms: S1_2  and  C2_3 
REMARK    2  A    between atoms: C2_3  and  N1_5 
REMARK    3  A    between atoms: N2_8  and  C5_9 
REMARK    4  A    between atoms: C5_9  and  C6_10 
REMARK       I    between atoms: C6_10  and  N3_12 
REMARK       I    between atoms: N4_14  and  C7_16 
REMARK       I    between atoms: C7_16  and  N6_20 
REMARK    5  A    between atoms: N6_20  and  C8_22 
ROOT
HETATM    1  C6  UNL     1       2.094 -20.995  22.842  1.00  0.00     0.254 C 
HETATM    2  O1  UNL     1       1.710 -20.409  23.904  1.00  0.00    -0.270 OA
HETATM    3  N3  UNL     1       2.149 -20.248  21.669  1.00  0.00    -0.254 N 
ATOM      4  H3  UNL     1       2.552 -20.712  20.855  1.00  0.00     0.190 HD
HETATM    5  N4  UNL     1       1.764 -19.081  21.500  1.00  0.00    -0.130 N 
ATOM      6  H4  UNL     1       1.888 -18.698  20.563  1.00  0.00     0.205 HD
HETATM    7  C7  UNL     1       1.180 -18.227  22.440  1.00  0.00     0.686 C 
HETATM    8  N5  UNL     1      -0.068 -18.250  22.767  1.00  0.00    -0.234 N 
ATOM      9  H51 UNL     1      -0.494 -17.627  23.453  1.00  0.00     0.174 HD
ATOM     10  H52 UNL     1      -0.660 -18.938  22.304  1.00  0.00     0.174 HD
HETATM   11  N6  UNL     1       2.006 -17.267  23.088  1.00  0.00    -0.217 N 
ATOM     12  H6  UNL     1       2.478 -17.518  23.956  1.00  0.00     0.178 HD
ENDROOT
BRANCH   1  13
HETATM   13  C5  UNL     1       2.442 -22.430  22.991  1.00  0.00     0.227 C 
BRANCH  13  14
HETATM   14  N2  UNL     1       3.660 -22.670  23.683  1.00  0.00    -0.368 N 
HETATM   15  C4  UNL     1       4.878 -23.001  22.967  1.00  0.00     0.143 C 
HETATM   16  C3  UNL     1       5.992 -23.209  23.979  1.00  0.00     0.144 C 
HETATM   17  N1  UNL     1       6.030 -22.153  24.971  1.00  0.00    -0.359 N 
HETATM   18  C14 UNL     1       4.843 -21.859  25.760  1.00  0.00     0.187 C 
HETATM   19  C12 UNL     1       3.709 -22.596  25.093  1.00  0.00     0.094 C 
HETATM   20  C13 UNL     1       2.816 -23.168  25.881  1.00  0.00     0.291 C 
HETATM   21  F1  UNL     1       2.930 -23.050  27.234  1.00  0.00    -0.171 F 
HETATM   22  F2  UNL     1       1.772 -23.904  25.435  1.00  0.00    -0.171 F 
BRANCH  17  23
HETATM   23  C2  UNL     1       7.220 -21.433  25.150  1.00  0.00     0.136 C 
HETATM   24  S2  UNL     1       8.579 -21.808  24.357  1.00  0.00    -0.053 SA
BRANCH  23  25
HETATM   25  S1  UNL     1       7.236 -20.060  26.290  1.00  0.00    -0.105 SA
HETATM   26  C1  UNL     1       6.588 -18.552  25.479  1.00  0.00     0.098 C 
ENDBRANCH  23  25
ENDBRANCH  17  23
ENDBRANCH  13  14
ENDBRANCH   1  13
BRANCH  11  27
HETATM   27  C8  UNL     1       2.190 -15.933  22.536  1.00  0.00     0.036 C 
HETATM   28  C9  UNL     1       1.791 -15.842  21.095  1.00  0.00     0.038 C 
HETATM   29  C10 UNL     1       1.415 -14.969  23.405  1.00  0.00     0.038 C 
HETATM   30  C11 UNL     1       3.652 -15.570  22.660  1.00  0.00     0.038 C 
ENDBRANCH  11  27
TORSDOF 5
ENDMDL
MODEL 2
REMARK VINA RESULT: -6.488978898      2.092      2.835
REMARK  5 active torsions:
REMARK  status: ('A' for Active; 'I' for Inactive)
REMARK    1  A    between atoms: S1_2  and  C2_3 
REMARK    2  A    between atoms: C2_3  and  N1_5 
REMARK    3  A    between atoms: N2_8  and  C5_9 
REMARK    4  A    between atoms: C5_9  and  C6_10 
REMARK       I    between atoms: C6_10  and  N3_12 
REMARK       I    between atoms: N4_14  and  C7_16 
REMARK       I    between atoms: C7_16  and  N6_20 
REMARK    5  A    between atoms: N6_20  and  C8_22 
ROOT
HETATM    1  C6  UNL     1       1.997 -20.873  23.566  1.00  0.00     0.254 C 
HETATM    2  O1  UNL     1       1.639 -21.274  22.413  1.00  0.00    -0.270 OA
HETATM    3  N3  UNL     1       1.619 -19.592  23.957  1.00  0.00    -0.254 N 
ATOM      4  H3  UNL     1       1.832 -19.331  24.920  1.00  0.00     0.190 HD
HETATM    5  N4  UNL     1       1.052 -18.730  23.268  1.00  0.00    -0.130 N 
ATOM      6  H4  UNL     1       0.853 -17.844  23.732  1.00  0.00     0.205 HD
HETATM    7  C7  UNL     1       0.653 -18.828  21.932  1.00  0.00     0.686 C 
HETATM    8  N5  UNL     1       1.438 -18.654  20.924  1.00  0.00    -0.234 N 
ATOM      9  H51 UNL     1       1.146 -18.725  19.949  1.00  0.00     0.174 HD
ATOM     10  H52 UNL     1       2.412 -18.430  21.124  1.00  0.00     0.174 HD
HETATM   11  N6  UNL     1      -0.707 -19.141  21.653  1.00  0.00    -0.217 N 
ATOM     12  H6  UNL     1      -0.987 -20.117  21.564  1.00  0.00     0.178 HD
ENDROOT
BRANCH   1  13
HETATM   13  C5  UNL     1       2.787 -21.842  24.364  1.00  0.00     0.227 C 
BRANCH  13  14
HETATM   14  N2  UNL     1       4.144 -21.968  23.961  1.00  0.00    -0.368 N 
HETATM   15  C4  UNL     1       4.741 -21.029  23.030  1.00  0.00     0.143 C 
HETATM   16  C3  UNL     1       6.186 -21.437  22.792  1.00  0.00     0.144 C 
HETATM   17  N1  UNL     1       6.879 -21.730  24.031  1.00  0.00    -0.359 N 
HETATM   18  C14 UNL     1       6.342 -22.729  24.942  1.00  0.00     0.187 C 
HETATM   19  C12 UNL     1       4.943 -23.022  24.458  1.00  0.00     0.094 C 
HETATM   20  C13 UNL     1       4.541 -24.279  24.502  1.00  0.00     0.291 C 
HETATM   21  F1  UNL     1       5.370 -25.240  24.998  1.00  0.00    -0.171 F 
HETATM   22  F2  UNL     1       3.336 -24.706  24.059  1.00  0.00    -0.171 F 
BRANCH  17  23
HETATM   23  C2  UNL     1       8.063 -21.038  24.326  1.00  0.00     0.136 C 
HETATM   24  S2  UNL     1       9.466 -21.390  23.603  1.00  0.00    -0.053 SA
BRANCH  23  25
HETATM   25  S1  UNL     1       8.020 -19.730  25.538  1.00  0.00    -0.105 SA
HETATM   26  C1  UNL     1       6.410 -18.860  25.480  1.00  0.00     0.098 C 
ENDBRANCH  23  25
ENDBRANCH  17  23
ENDBRANCH  13  14
ENDBRANCH   1  13
BRANCH  11  27
HETATM   27  C8  UNL     1      -1.705 -18.095  21.492  1.00  0.00     0.036 C 
HETATM   28  C9  UNL     1      -1.270 -16.783  22.068  1.00  0.00     0.038 C 
HETATM   29  C10 UNL     1      -2.025 -17.993  20.017  1.00  0.00     0.038 C 
HETATM   30  C11 UNL     1      -2.970 -18.539  22.193  1.00  0.00     0.038 C 
ENDBRANCH  11  27
TORSDOF 5
ENDMDL
MODEL 3
REMARK VINA RESULT: -6.462436248      0.589      1.144
REMARK  5 active torsions:
REMARK  status: ('A' for Active; 'I' for Inactive)
REMARK    1  A    between atoms: S1_2  and  C2_3 
REMARK    2  A    between atoms: C2_3  and  N1_5 
REMARK    3  A    between atoms: N2_8  and  C5_9 
REMARK    4  A    between atoms: C5_9  and  C6_10 
REMARK       I    between atoms: C6_10  and  N3_12 
REMARK       I    between atoms: N4_14  and  C7_16 
REMARK       I    between atoms: C7_16  and  N6_20 
REMARK    5  A    between atoms: N6_20  and  C8_22 
ROOT
HETATM    1  C6  UNL     1       2.091 -20.983  22.830  1.00  0.00     0.254 C 
HETATM    2  O1  UNL     1       1.716 -20.389  23.891  1.00  0.00    -0.270 OA
HETATM    3  N3  UNL     1       2.135 -20.245  21.650  1.00  0.00    -0.254 N 
ATOM      4  H3  UNL     1       2.532 -20.716  20.837  1.00  0.00     0.190 HD
HETATM    5  N4  UNL     1       1.747 -19.080  21.476  1.00  0.00    -0.130 N 
ATOM      6  H4  UNL     1       1.864 -18.705  20.535  1.00  0.00     0.205 HD
HETATM    7  C7  UNL     1       1.171 -18.220  22.414  1.00  0.00     0.686 C 
HETATM    8  N5  UNL     1      -0.074 -18.240  22.752  1.00  0.00    -0.234 N 
ATOM      9  H51 UNL     1      -0.495 -17.612  23.436  1.00  0.00     0.174 HD
ATOM     10  H52 UNL     1      -0.669 -18.933  22.299  1.00  0.00     0.174 HD
HETATM   11  N6  UNL     1       2.001 -17.254  23.047  1.00  0.00    -0.217 N 
ATOM     12  H6  UNL     1       2.481 -17.497  23.913  1.00  0.00     0.178 HD
ENDROOT
BRANCH   1  13
HETATM   13  C5  UNL     1       2.442 -22.416  22.988  1.00  0.00     0.227 C 
BRANCH  13  14
HETATM   14  N2  UNL     1       3.660 -22.650  23.682  1.00  0.00    -0.368 N 
HETATM   15  C4  UNL     1       4.887 -22.946  22.966  1.00  0.00     0.143 C 
HETATM   16  C3  UNL     1       5.999 -23.156  23.980  1.00  0.00     0.144 C 
HETATM   17  N1  UNL     1       6.014 -22.120  24.993  1.00  0.00    -0.359 N 
HETATM   18  C14 UNL     1       4.818 -21.861  25.781  1.00  0.00     0.187 C 
HETATM   19  C12 UNL     1       3.700 -22.604  25.093  1.00  0.00     0.094 C 
HETATM   20  C13 UNL     1       2.813 -23.207  25.864  1.00  0.00     0.291 C 
HETATM   21  F1  UNL     1       2.917 -23.115  27.220  1.00  0.00    -0.171 F 
HETATM   22  F2  UNL     1       1.784 -23.952  25.398  1.00  0.00    -0.171 F 
BRANCH  17  23
HETATM   23  C2  UNL     1       7.191 -21.384  25.194  1.00  0.00     0.136 C 
HETATM   24  S2  UNL     1       7.261 -20.141  26.227  1.00  0.00    -0.053 SA
BRANCH  23  25
HETATM   25  S1  UNL     1       8.656 -21.831  24.279  1.00  0.00    -0.105 SA
HETATM   26  C1  UNL     1       9.199 -20.436  23.225  1.00  0.00     0.098 C 
ENDBRANCH  23  25
ENDBRANCH  17  23
ENDBRANCH  13  14
ENDBRANCH   1  13
BRANCH  11  27
HETATM   27  C8  UNL     1       2.179 -15.924  22.482  1.00  0.00     0.036 C 
HETATM   28  C9  UNL     1       1.789 -15.850  21.038  1.00  0.00     0.038 C 
HETATM   29  C10 UNL     1       1.391 -14.956  23.336  1.00  0.00     0.038 C 
HETATM   30  C11 UNL     1       3.638 -15.549  22.612  1.00  0.00     0.038 C 
ENDBRANCH  11  27
TORSDOF 5
ENDMDL
MODEL 4
REMARK VINA RESULT: -6.358592711      1.338      1.408
REMARK  5 active torsions:
REMARK  status: ('A' for Active; 'I' for Inactive)
REMARK    1  A    between atoms: S1_2  and  C2_3 
REMARK    2  A    between atoms: C2_3  and  N1_5 
REMARK    3  A    between atoms: N2_8  and  C5_9 
REMARK    4  A    between atoms: C5_9  and  C6_10 
REMARK       I    between atoms: C6_10  and  N3_12 
REMARK       I    between atoms: N4_14  and  C7_16 
REMARK       I    between atoms: C7_16  and  N6_20 
REMARK    5  A    between atoms: N6_20  and  C8_22 
ROOT
HETATM    1  C6  UNL     1       2.056 -20.566  23.436  1.00  0.00     0.254 C 
HETATM    2  O1  UNL     1       1.700 -19.791  24.380  1.00  0.00    -0.270 OA
HETATM    3  N3  UNL     1       1.912 -20.112  22.128  1.00  0.00    -0.254 N 
ATOM      4  H3  UNL     1       2.294 -20.711  21.396  1.00  0.00     0.190 HD
HETATM    5  N4  UNL     1       1.371 -19.061  21.752  1.00  0.00    -0.130 N 
ATOM      6  H4  UNL     1       1.362 -18.897  20.745  1.00  0.00     0.205 HD
HETATM    7  C7  UNL     1       0.773 -18.075  22.541  1.00  0.00     0.686 C 
HETATM    8  N5  UNL     1      -0.428 -18.145  23.008  1.00  0.00    -0.234 N 
ATOM      9  H51 UNL     1      -0.864 -17.425  23.583  1.00  0.00     0.174 HD
ATOM     10  H52 UNL     1      -0.969 -18.978  22.780  1.00  0.00     0.174 HD
HETATM   11  N6  UNL     1       1.529 -16.912  22.859  1.00  0.00    -0.217 N 
ATOM     12  H6  UNL     1       2.105 -16.905  23.700  1.00  0.00     0.178 HD
ENDROOT
BRANCH   1  13
HETATM   13  C5  UNL     1       2.591 -21.885  23.858  1.00  0.00     0.227 C 
BRANCH  13  14
HETATM   14  N2  UNL     1       3.990 -22.040  23.665  1.00  0.00    -0.368 N 
HETATM   15  C4  UNL     1       4.736 -21.136  22.809  1.00  0.00     0.143 C 
HETATM   16  C3  UNL     1       6.193 -21.569  22.800  1.00  0.00     0.144 C 
HETATM   17  N1  UNL     1       6.689 -21.834  24.136  1.00  0.00    -0.359 N 
HETATM   18  C14 UNL     1       6.005 -22.800  24.984  1.00  0.00     0.187 C 
HETATM   19  C12 UNL     1       4.689 -23.088  24.304  1.00  0.00     0.094 C 
HETATM   20  C13 UNL     1       4.263 -24.339  24.321  1.00  0.00     0.291 C 
HETATM   21  F1  UNL     1       4.993 -25.295  24.962  1.00  0.00    -0.171 F 
HETATM   22  F2  UNL     1       3.131 -24.762  23.715  1.00  0.00    -0.171 F 
BRANCH  17  23
HETATM   23  C2  UNL     1       7.827 -21.149  24.585  1.00  0.00     0.136 C 
HETATM   24  S2  UNL     1       9.297 -21.435  23.976  1.00  0.00    -0.053 SA
BRANCH  23  25
HETATM   25  S1  UNL     1       7.647 -19.925  25.871  1.00  0.00    -0.105 SA
HETATM   26  C1  UNL     1       6.435 -18.649  25.370  1.00  0.00     0.098 C 
ENDBRANCH  23  25
ENDBRANCH  17  23
ENDBRANCH  13  14
ENDBRANCH   1  13
BRANCH  11  27
HETATM   27  C8  UNL     1       1.495 -15.732  22.008  1.00  0.00     0.036 C 
HETATM   28  C9  UNL     1       0.878 -16.000  20.670  1.00  0.00     0.038 C 
HETATM   29  C10 UNL     1       0.767 -14.644  22.765  1.00  0.00     0.038 C 
HETATM   30  C11 UNL     1       2.917 -15.259  21.802  1.00  0.00     0.038 C 
ENDBRANCH  11  27
TORSDOF 5
ENDMDL
MODEL 5
REMARK VINA RESULT: -6.252080691      3.411      4.669
REMARK  5 active torsions:
REMARK  status: ('A' for Active; 'I' for Inactive)
REMARK    1  A    between atoms: S1_2  and  C2_3 
REMARK    2  A    between atoms: C2_3  and  N1_5 
REMARK    3  A    between atoms: N2_8  and  C5_9 
REMARK    4  A    between atoms: C5_9  and  C6_10 
REMARK       I    between atoms: C6_10  and  N3_12 
REMARK       I    between atoms: N4_14  and  C7_16 
REMARK       I    between atoms: C7_16  and  N6_20 
REMARK    5  A    between atoms: N6_20  and  C8_22 
ROOT
HETATM    1  C6  UNL     1       4.936 -17.933  24.391  1.00  0.00     0.254 C 
HETATM    2  O1  UNL     1       4.911 -16.916  23.626  1.00  0.00    -0.270 OA
HETATM    3  N3  UNL     1       3.785 -18.710  24.481  1.00  0.00    -0.254 N 
ATOM      4  H3  UNL     1       3.861 -19.571  25.022  1.00  0.00     0.190 HD
HETATM    5  N4  UNL     1       2.676 -18.473  23.978  1.00  0.00    -0.130 N 
ATOM      6  H4  UNL     1       1.947 -19.165  24.154  1.00  0.00     0.205 HD
HETATM    7  C7  UNL     1       2.305 -17.374  23.200  1.00  0.00     0.686 C 
HETATM    8  N5  UNL     1       1.973 -16.222  23.678  1.00  0.00    -0.234 N 
ATOM      9  H51 UNL     1       1.702 -15.421  23.110  1.00  0.00     0.174 HD
ATOM     10  H52 UNL     1       1.984 -16.117  24.692  1.00  0.00     0.174 HD
HETATM   11  N6  UNL     1       2.290 -17.521  21.785  1.00  0.00    -0.217 N 
ATOM     12  H6  UNL     1       3.135 -17.316  21.252  1.00  0.00     0.178 HD
ENDROOT
BRANCH   1  13
HETATM   13  C5  UNL     1       6.216 -18.167  25.104  1.00  0.00     0.227 C 
BRANCH  13  14
HETATM   14  N2  UNL     1       6.723 -19.489  24.985  1.00  0.00    -0.368 N 
HETATM   15  C4  UNL     1       6.320 -20.534  25.907  1.00  0.00     0.143 C 
HETATM   16  C3  UNL     1       7.037 -21.819  25.526  1.00  0.00     0.144 C 
HETATM   17  N1  UNL     1       6.966 -22.079  24.102  1.00  0.00    -0.359 N 
HETATM   18  C14 UNL     1       7.441 -21.077  23.159  1.00  0.00     0.187 C 
HETATM   19  C12 UNL     1       7.639 -19.815  23.960  1.00  0.00     0.094 C 
HETATM   20  C13 UNL     1       8.697 -19.078  23.672  1.00  0.00     0.291 C 
HETATM   21  F1  UNL     1       9.535 -19.457  22.666  1.00  0.00    -0.171 F 
HETATM   22  F2  UNL     1       9.036 -17.947  24.333  1.00  0.00    -0.171 F 
BRANCH  17  23
HETATM   23  C2  UNL     1       6.436 -23.300  23.661  1.00  0.00     0.136 C 
HETATM   24  S2  UNL     1       7.145 -24.174  22.499  1.00  0.00    -0.053 SA
BRANCH  23  25
HETATM   25  S1  UNL     1       4.932 -23.909  24.404  1.00  0.00    -0.105 SA
HETATM   26  C1  UNL     1       3.611 -22.647  24.291  1.00  0.00     0.098 C 
ENDBRANCH  23  25
ENDBRANCH  17  23
ENDBRANCH  13  14
ENDBRANCH   1  13
BRANCH  11  27
HETATM   27  C8  UNL     1       1.092 -17.956  21.083  1.00  0.00     0.036 C 
HETATM   28  C9  UNL     1      -0.101 -18.063  21.982  1.00  0.00     0.038 C 
HETATM   29  C10 UNL     1       0.860 -16.996  19.938  1.00  0.00     0.038 C 
HETATM   30  C11 UNL     1       1.369 -19.314  20.477  1.00  0.00     0.038 C 
ENDBRANCH  11  27
TORSDOF 5
ENDMDL
