MODEL 1
REMARK VINA RESULT: -6.396416208      0.000      0.000
REMARK  5 active torsions:
REMARK  status: ('A' for Active; 'I' for Inactive)
REMARK    1  A    between atoms: N3_6  and  O1_8 
REMARK    2  A    between atoms: O1_8  and  C4_9 
REMARK    3  A    between atoms: C4_9  and  O2_10 
REMARK    4  A    between atoms: C4_9  and  C5_12 
REMARK    5  A    between atoms: C7_15  and  C8_16 
ROOT
HETATM    1  N1  UNL     1      10.716 -16.476  24.940  1.00  0.00    -0.189 NA
HETATM    2  C1  UNL     1       9.971 -17.303  24.624  1.00  0.00     0.131 C 
HETATM    3  C2  UNL     1       9.028 -18.315  24.238  1.00  0.00     0.214 C 
HETATM    4  C3  UNL     1       7.738 -18.326  24.856  1.00  0.00     0.131 C 
HETATM    5  N2  UNL     1       6.704 -18.340  25.352  1.00  0.00    -0.189 NA
HETATM    6  N3  UNL     1       9.390 -19.174  23.344  1.00  0.00    -0.244 N 
ATOM      7  H3  UNL     1      10.327 -19.101  22.948  1.00  0.00     0.196 HD
ENDROOT
BRANCH   6   8
HETATM    8  O1  UNL     1       8.575 -20.174  22.906  1.00  0.00    -0.244 OA
BRANCH   8   9
HETATM    9  C4  UNL     1       8.675 -21.523  23.310  1.00  0.00     0.317 C 
BRANCH   9  10
HETATM   10  O2  UNL     1       9.437 -21.612  24.487  1.00  0.00    -0.367 OA
ATOM     11  H2  UNL     1      10.340 -21.382  24.305  1.00  0.00     0.212 HD
ENDBRANCH   9  10
BRANCH   9  12
HETATM   12  C5  UNL     1       7.310 -22.063  23.593  1.00  0.00     0.253 C 
HETATM   13  C6  UNL     1       6.987 -23.270  22.696  1.00  0.00     0.114 C 
HETATM   14  S1  UNL     1       5.197 -23.396  23.113  1.00  0.00    -0.129 SA
HETATM   15  C7  UNL     1       5.067 -21.753  23.934  1.00  0.00     0.287 C 
HETATM   16  N4  UNL     1       6.253 -21.115  23.420  1.00  0.00    -0.048 N 
ATOM     17  H42 UNL     1       6.445 -20.208  23.843  1.00  0.00     0.279 HD
ATOM     18  H41 UNL     1       6.155 -20.784  22.460  1.00  0.00     0.279 HD
BRANCH  15  19
HETATM   19  C8  UNL     1       3.818 -21.060  23.523  1.00  0.00     0.023 A 
HETATM   20  C9  UNL     1       2.695 -21.543  22.911  1.00  0.00     0.018 A 
HETATM   21  C10 UNL     1       1.709 -20.673  22.659  1.00  0.00     0.008 A 
HETATM   22  C11 UNL     1       1.899 -19.372  23.030  1.00  0.00     0.050 A 
HETATM   23  S2  UNL     1       3.458 -19.404  23.726  1.00  0.00    -0.103 SA
ENDBRANCH  15  19
ENDBRANCH   9  12
ENDBRANCH   8   9
ENDBRANCH   6   8
TORSDOF 5
ENDMDL
MODEL 2
REMARK VINA RESULT: -6.370685380      2.559      3.835
REMARK  5 active torsions:
REMARK  status: ('A' for Active; 'I' for Inactive)
REMARK    1  A    between atoms: N3_6  and  O1_8 
REMARK    2  A    between atoms: O1_8  and  C4_9 
REMARK    3  A    between atoms: C4_9  and  O2_10 
REMARK    4  A    between atoms: C4_9  and  C5_12 
REMARK    5  A    between atoms: C7_15  and  C8_16 
ROOT
HETATM    1  N1  UNL     1      10.543 -17.505  24.481  1.00  0.00    -0.189 NA
HETATM    2  C1  UNL     1       9.500 -17.974  24.656  1.00  0.00     0.131 C 
HETATM    3  C2  UNL     1       8.215 -18.570  24.890  1.00  0.00     0.214 C 
HETATM    4  C3  UNL     1       8.157 -19.914  25.378  1.00  0.00     0.131 C 
HETATM    5  N2  UNL     1       8.108 -20.992  25.767  1.00  0.00    -0.189 NA
HETATM    6  N3  UNL     1       7.162 -17.862  24.647  1.00  0.00    -0.244 N 
ATOM      7  H3  UNL     1       7.284 -16.911  24.301  1.00  0.00     0.196 HD
ENDROOT
BRANCH   6   8
HETATM    8  O1  UNL     1       5.896 -18.330  24.834  1.00  0.00    -0.244 OA
BRANCH   8   9
HETATM    9  C4  UNL     1       4.738 -17.752  24.271  1.00  0.00     0.317 C 
BRANCH   9  10
HETATM   10  O2  UNL     1       5.103 -16.755  23.350  1.00  0.00    -0.367 OA
ATOM     11  H2  UNL     1       4.324 -16.353  22.985  1.00  0.00     0.212 HD
ENDBRANCH   9  10
BRANCH   9  12
HETATM   12  C5  UNL     1       3.958 -18.799  23.543  1.00  0.00     0.253 C 
HETATM   13  C6  UNL     1       2.511 -18.348  23.291  1.00  0.00     0.114 C 
HETATM   14  S1  UNL     1       1.859 -19.972  22.714  1.00  0.00    -0.129 SA
HETATM   15  C7  UNL     1       3.296 -20.976  23.277  1.00  0.00     0.287 C 
HETATM   16  N4  UNL     1       3.895 -20.061  24.216  1.00  0.00    -0.048 N 
ATOM     17  H42 UNL     1       4.795 -20.376  24.577  1.00  0.00     0.279 HD
ATOM     18  H41 UNL     1       3.412 -20.021  25.113  1.00  0.00     0.279 HD
BRANCH  15  19
HETATM   19  C8  UNL     1       2.837 -22.236  23.916  1.00  0.00     0.023 A 
HETATM   20  C9  UNL     1       2.833 -23.519  23.446  1.00  0.00     0.018 A 
HETATM   21  C10 UNL     1       2.352 -24.471  24.256  1.00  0.00     0.008 A 
HETATM   22  C11 UNL     1       1.901 -24.088  25.488  1.00  0.00     0.050 A 
HETATM   23  S2  UNL     1       2.166 -22.401  25.477  1.00  0.00    -0.103 SA
ENDBRANCH  15  19
ENDBRANCH   9  12
ENDBRANCH   8   9
ENDBRANCH   6   8
TORSDOF 5
ENDMDL
MODEL 3
REMARK VINA RESULT: -6.309087005      2.179      3.009
REMARK  5 active torsions:
REMARK  status: ('A' for Active; 'I' for Inactive)
REMARK    1  A    between atoms: N3_6  and  O1_8 
REMARK    2  A    between atoms: O1_8  and  C4_9 
REMARK    3  A    between atoms: C4_9  and  O2_10 
REMARK    4  A    between atoms: C4_9  and  C5_12 
REMARK    5  A    between atoms: C7_15  and  C8_16 
ROOT
HETATM    1  N1  UNL     1      10.753 -16.382  24.666  1.00  0.00    -0.189 NA
HETATM    2  C1  UNL     1      10.714 -17.434  24.184  1.00  0.00     0.131 C 
HETATM    3  C2  UNL     1      10.686 -18.743  23.596  1.00  0.00     0.214 C 
HETATM    4  C3  UNL     1      11.925 -19.423  23.368  1.00  0.00     0.131 C 
HETATM    5  N2  UNL     1      12.916 -19.969  23.181  1.00  0.00    -0.189 NA
HETATM    6  N3  UNL     1       9.537 -19.253  23.299  1.00  0.00    -0.244 N 
ATOM      7  H3  UNL     1       8.697 -18.707  23.492  1.00  0.00     0.196 HD
ENDROOT
BRANCH   6   8
HETATM    8  O1  UNL     1       9.397 -20.486  22.737  1.00  0.00    -0.244 OA
BRANCH   8   9
HETATM    9  C4  UNL     1       8.856 -21.609  23.399  1.00  0.00     0.317 C 
BRANCH   9  10
HETATM   10  O2  UNL     1       9.763 -22.077  24.364  1.00  0.00    -0.367 OA
ATOM     11  H2  UNL     1       9.345 -22.098  25.216  1.00  0.00     0.212 HD
ENDBRANCH   9  10
BRANCH   9  12
HETATM   12  C5  UNL     1       7.591 -21.220  24.093  1.00  0.00     0.253 C 
HETATM   13  C6  UNL     1       7.781 -21.162  25.617  1.00  0.00     0.114 C 
HETATM   14  S1  UNL     1       6.002 -20.990  26.067  1.00  0.00    -0.129 SA
HETATM   15  C7  UNL     1       5.333 -21.442  24.413  1.00  0.00     0.287 C 
HETATM   16  N4  UNL     1       6.486 -22.092  23.840  1.00  0.00    -0.048 N 
ATOM     17  H42 UNL     1       6.372 -22.331  22.854  1.00  0.00     0.279 HD
ATOM     18  H41 UNL     1       6.630 -23.043  24.180  1.00  0.00     0.279 HD
BRANCH  15  19
HETATM   19  C8  UNL     1       4.169 -22.354  24.550  1.00  0.00     0.023 A 
HETATM   20  C9  UNL     1       3.202 -22.421  25.514  1.00  0.00     0.018 A 
HETATM   21  C10 UNL     1       2.258 -23.360  25.377  1.00  0.00     0.008 A 
HETATM   22  C11 UNL     1       2.332 -24.181  24.287  1.00  0.00     0.050 A 
HETATM   23  S2  UNL     1       3.726 -23.609  23.481  1.00  0.00    -0.103 SA
ENDBRANCH  15  19
ENDBRANCH   9  12
ENDBRANCH   8   9
ENDBRANCH   6   8
TORSDOF 5
ENDMDL
MODEL 4
REMARK VINA RESULT: -6.259644653      2.491      3.175
REMARK  5 active torsions:
REMARK  status: ('A' for Active; 'I' for Inactive)
REMARK    1  A    between atoms: N3_6  and  O1_8 
REMARK    2  A    between atoms: O1_8  and  C4_9 
REMARK    3  A    between atoms: C4_9  and  O2_10 
REMARK    4  A    between atoms: C4_9  and  C5_12 
REMARK    5  A    between atoms: C7_15  and  C8_16 
ROOT
HETATM    1  N1  UNL     1      14.148 -19.280  22.615  1.00  0.00    -0.189 NA
HETATM    2  C1  UNL     1      13.080 -19.557  22.966  1.00  0.00     0.131 C 
HETATM    3  C2  UNL     1      11.749 -19.881  23.395  1.00  0.00     0.214 C 
HETATM    4  C3  UNL     1      10.892 -18.823  23.836  1.00  0.00     0.131 C 
HETATM    5  N2  UNL     1      10.203 -17.978  24.192  1.00  0.00    -0.189 NA
HETATM    6  N3  UNL     1      11.383 -21.119  23.363  1.00  0.00    -0.244 N 
ATOM      7  H3  UNL     1      12.050 -21.816  23.035  1.00  0.00     0.196 HD
ENDROOT
BRANCH   6   8
HETATM    8  O1  UNL     1      10.143 -21.534  23.748  1.00  0.00    -0.244 OA
BRANCH   8   9
HETATM    9  C4  UNL     1       9.019 -21.594  22.897  1.00  0.00     0.317 C 
BRANCH   9  10
HETATM   10  O2  UNL     1       8.835 -22.911  22.443  1.00  0.00    -0.367 OA
ATOM     11  H2  UNL     1       8.206 -23.358  22.997  1.00  0.00     0.212 HD
ENDBRANCH   9  10
BRANCH   9  12
HETATM   12  C5  UNL     1       7.797 -21.183  23.653  1.00  0.00     0.253 C 
HETATM   13  C6  UNL     1       8.071 -21.101  25.164  1.00  0.00     0.114 C 
HETATM   14  S1  UNL     1       6.321 -20.907  25.708  1.00  0.00    -0.129 SA
HETATM   15  C7  UNL     1       5.559 -21.383  24.101  1.00  0.00     0.287 C 
HETATM   16  N4  UNL     1       6.674 -22.051  23.477  1.00  0.00    -0.048 N 
ATOM     17  H42 UNL     1       6.505 -22.306  22.504  1.00  0.00     0.279 HD
ATOM     18  H41 UNL     1       6.830 -22.997  23.825  1.00  0.00     0.279 HD
BRANCH  15  19
HETATM   19  C8  UNL     1       4.398 -22.284  24.318  1.00  0.00     0.023 A 
HETATM   20  C9  UNL     1       3.466 -22.305  25.318  1.00  0.00     0.018 A 
HETATM   21  C10 UNL     1       2.516 -23.246  25.254  1.00  0.00     0.008 A 
HETATM   22  C11 UNL     1       2.549 -24.112  24.198  1.00  0.00     0.050 A 
HETATM   23  S2  UNL     1       3.915 -23.582  23.321  1.00  0.00    -0.103 SA
ENDBRANCH  15  19
ENDBRANCH   9  12
ENDBRANCH   8   9
ENDBRANCH   6   8
TORSDOF 5
ENDMDL
MODEL 5
REMARK VINA RESULT: -6.252516010      2.258      2.936
REMARK  5 active torsions:
REMARK  status: ('A' for Active; 'I' for Inactive)
REMARK    1  A    between atoms: N3_6  and  O1_8 
REMARK    2  A    between atoms: O1_8  and  C4_9 
REMARK    3  A    between atoms: C4_9  and  O2_10 
REMARK    4  A    between atoms: C4_9  and  C5_12 
REMARK    5  A    between atoms: C7_15  and  C8_16 
ROOT
HETATM    1  N1  UNL     1      12.697 -18.383  22.540  1.00  0.00    -0.189 NA
HETATM    2  C1  UNL     1      11.663 -18.505  23.046  1.00  0.00     0.131 C 
HETATM    3  C2  UNL     1      10.383 -18.635  23.684  1.00  0.00     0.214 C 
HETATM    4  C3  UNL     1      10.182 -18.015  24.958  1.00  0.00     0.131 C 
HETATM    5  N2  UNL     1      10.019 -17.520  25.980  1.00  0.00    -0.189 NA
HETATM    6  N3  UNL     1       9.466 -19.311  23.076  1.00  0.00    -0.244 N 
ATOM      7  H3  UNL     1       9.684 -19.724  22.170  1.00  0.00     0.196 HD
ENDROOT
BRANCH   6   8
HETATM    8  O1  UNL     1       8.218 -19.497  23.593  1.00  0.00    -0.244 OA
BRANCH   8   9
HETATM    9  C4  UNL     1       7.701 -20.744  24.005  1.00  0.00     0.317 C 
BRANCH   9  10
HETATM   10  O2  UNL     1       7.823 -20.872  25.399  1.00  0.00    -0.367 OA
ATOM     11  H2  UNL     1       8.047 -21.768  25.622  1.00  0.00     0.212 HD
ENDBRANCH   9  10
BRANCH   9  12
HETATM   12  C5  UNL     1       6.251 -20.826  23.651  1.00  0.00     0.253 C 
HETATM   13  C6  UNL     1       5.453 -19.672  24.278  1.00  0.00     0.114 C 
HETATM   14  S1  UNL     1       3.770 -20.316  23.891  1.00  0.00    -0.129 SA
HETATM   15  C7  UNL     1       4.307 -22.019  23.443  1.00  0.00     0.287 C 
HETATM   16  N4  UNL     1       5.614 -22.043  24.050  1.00  0.00    -0.048 N 
ATOM     17  H42 UNL     1       6.154 -22.879  23.824  1.00  0.00     0.279 HD
ATOM     18  H41 UNL     1       5.594 -22.181  25.060  1.00  0.00     0.279 HD
BRANCH  15  19
HETATM   19  C8  UNL     1       3.385 -23.028  24.025  1.00  0.00     0.023 A 
HETATM   20  C9  UNL     1       3.027 -24.268  23.572  1.00  0.00     0.018 A 
HETATM   21  C10 UNL     1       2.163 -24.969  24.316  1.00  0.00     0.008 A 
HETATM   22  C11 UNL     1       1.704 -24.395  25.468  1.00  0.00     0.050 A 
HETATM   23  S2  UNL     1       2.500 -22.884  25.477  1.00  0.00    -0.103 SA
ENDBRANCH  15  19
ENDBRANCH   9  12
ENDBRANCH   8   9
ENDBRANCH   6   8
TORSDOF 5
ENDMDL
