MODEL 1
REMARK VINA RESULT: -6.741745261      0.000      0.000
REMARK  5 active torsions:
REMARK  status: ('A' for Active; 'I' for Inactive)
REMARK    1  A    between atoms: C5_7  and  C6_8 
REMARK    2  A    between atoms: C6_8  and  C7_9 
REMARK    3  A    between atoms: C8_12  and  N2_13 
REMARK    4  A    between atoms: C9_17  and  S2_18 
REMARK    5  A    between atoms: S2_18  and  C10_19 
ROOT
HETATM    1  C10 UNL     1       2.537 -22.893  24.324  1.00  0.00     0.203 C 
HETATM    2  C11 UNL     1       1.921 -24.024  24.992  1.00  0.00     0.069 C 
HETATM    3  N3  UNL     1       1.418 -24.915  25.514  1.00  0.00    -0.197 NA
ENDROOT
BRANCH   1   4
HETATM    4  S2  UNL     1       3.910 -22.268  25.312  1.00  0.00    -0.106 SA
BRANCH   4   5
HETATM    5  C9  UNL     1       5.424 -22.493  24.354  1.00  0.00     0.072 A 
HETATM    6  C7  UNL     1       6.598 -21.804  24.417  1.00  0.00     0.061 A 
HETATM    7  N1  UNL     1       7.553 -22.133  23.579  1.00  0.00    -0.335 N 
HETATM    8  C8  UNL     1       7.329 -23.122  22.716  1.00  0.00     0.143 A 
ATOM      9  H1  UNL     1       8.447 -21.643  23.588  1.00  0.00     0.168 HD
HETATM   10  S1  UNL     1       5.732 -23.605  23.086  1.00  0.00    -0.045 SA
BRANCH   6  11
HETATM   11  C6  UNL     1       6.753 -20.684  25.377  1.00  0.00     0.074 C 
BRANCH  11  12
HETATM   12  C5  UNL     1       7.403 -19.576  25.070  1.00  0.00     0.149 C 
HETATM   13  C4  UNL     1       6.968 -18.334  24.505  1.00  0.00     0.319 C 
HETATM   14  O1  UNL     1       8.097 -17.510  24.391  1.00  0.00    -0.278 OA
HETATM   15  O2  UNL     1       5.800 -18.009  24.168  1.00  0.00    -0.257 OA
HETATM   16  C2  UNL     1       9.220 -18.284  24.722  1.00  0.00     0.172 C 
HETATM   17  C1  UNL     1      10.044 -18.620  23.492  1.00  0.00     0.079 C 
HETATM   18  C3  UNL     1      10.047 -17.572  25.771  1.00  0.00     0.079 C 
HETATM   19  O3  UNL     1       8.778 -19.482  25.288  1.00  0.00    -0.308 OA
ENDBRANCH  11  12
ENDBRANCH   6  11
BRANCH   8  20
HETATM   20  N2  UNL     1       8.133 -23.618  21.795  1.00  0.00    -0.380 N 
ATOM     21  H22 UNL     1       8.709 -24.458  21.852  1.00  0.00     0.158 HD
ATOM     22  H21 UNL     1       8.333 -23.264  20.860  1.00  0.00     0.158 HD
ENDBRANCH   8  20
ENDBRANCH   4   5
ENDBRANCH   1   4
TORSDOF 5
ENDMDL
MODEL 2
REMARK VINA RESULT: -6.731951501      3.479      6.206
REMARK  5 active torsions:
REMARK  status: ('A' for Active; 'I' for Inactive)
REMARK    1  A    between atoms: C5_7  and  C6_8 
REMARK    2  A    between atoms: C6_8  and  C7_9 
REMARK    3  A    between atoms: C8_12  and  N2_13 
REMARK    4  A    between atoms: C9_17  and  S2_18 
REMARK    5  A    between atoms: S2_18  and  C10_19 
ROOT
HETATM    1  C10 UNL     1       7.520 -18.352  26.210  1.00  0.00     0.203 C 
HETATM    2  C11 UNL     1       8.899 -17.915  26.114  1.00  0.00     0.069 C 
HETATM    3  N3  UNL     1       9.989 -17.557  26.051  1.00  0.00    -0.197 NA
ENDROOT
BRANCH   1   4
HETATM    4  S2  UNL     1       6.926 -18.877  24.591  1.00  0.00    -0.106 SA
BRANCH   4   5
HETATM    5  C9  UNL     1       8.004 -20.205  24.013  1.00  0.00     0.072 A 
HETATM    6  C7  UNL     1       7.885 -21.552  24.182  1.00  0.00     0.061 A 
HETATM    7  N1  UNL     1       8.831 -22.322  23.695  1.00  0.00    -0.335 N 
HETATM    8  C8  UNL     1       9.852 -21.750  23.059  1.00  0.00     0.143 A 
ATOM      9  H1  UNL     1       8.785 -23.335  23.801  1.00  0.00     0.168 HD
HETATM   10  S1  UNL     1       9.479 -20.084  23.148  1.00  0.00    -0.045 SA
BRANCH   6  11
HETATM   11  C6  UNL     1       6.740 -22.109  24.943  1.00  0.00     0.074 C 
BRANCH  11  12
HETATM   12  C5  UNL     1       5.711 -22.685  24.348  1.00  0.00     0.149 C 
HETATM   13  C4  UNL     1       5.628 -23.628  23.275  1.00  0.00     0.319 C 
HETATM   14  O1  UNL     1       4.268 -23.888  23.051  1.00  0.00    -0.278 OA
HETATM   15  O2  UNL     1       6.577 -24.149  22.633  1.00  0.00    -0.257 OA
HETATM   16  C2  UNL     1       3.532 -23.003  23.855  1.00  0.00     0.172 C 
HETATM   17  C1  UNL     1       2.877 -21.915  23.025  1.00  0.00     0.079 C 
HETATM   18  C3  UNL     1       2.515 -23.773  24.671  1.00  0.00     0.079 C 
HETATM   19  O3  UNL     1       4.408 -22.393  24.755  1.00  0.00    -0.308 OA
ENDBRANCH  11  12
ENDBRANCH   6  11
BRANCH   8  20
HETATM   20  N2  UNL     1      10.900 -22.317  22.495  1.00  0.00    -0.380 N 
ATOM     21  H22 UNL     1      11.819 -22.485  22.905  1.00  0.00     0.158 HD
ATOM     22  H21 UNL     1      10.995 -22.694  21.552  1.00  0.00     0.158 HD
ENDBRANCH   8  20
ENDBRANCH   4   5
ENDBRANCH   1   4
TORSDOF 5
ENDMDL
MODEL 3
REMARK VINA RESULT: -6.649738897      3.138      6.436
REMARK  5 active torsions:
REMARK  status: ('A' for Active; 'I' for Inactive)
REMARK    1  A    between atoms: C5_7  and  C6_8 
REMARK    2  A    between atoms: C6_8  and  C7_9 
REMARK    3  A    between atoms: C8_12  and  N2_13 
REMARK    4  A    between atoms: C9_17  and  S2_18 
REMARK    5  A    between atoms: S2_18  and  C10_19 
ROOT
HETATM    1  C10 UNL     1       9.078 -17.976  25.819  1.00  0.00     0.203 C 
HETATM    2  C11 UNL     1       9.994 -17.102  25.113  1.00  0.00     0.069 C 
HETATM    3  N3  UNL     1      10.726 -16.403  24.569  1.00  0.00    -0.197 NA
ENDROOT
BRANCH   1   4
HETATM    4  S2  UNL     1       7.611 -18.272  24.813  1.00  0.00    -0.106 SA
BRANCH   4   5
HETATM    5  C9  UNL     1       7.744 -19.934  24.121  1.00  0.00     0.072 A 
HETATM    6  C7  UNL     1       6.881 -20.984  24.219  1.00  0.00     0.061 A 
HETATM    7  N1  UNL     1       7.221 -22.119  23.654  1.00  0.00    -0.335 N 
HETATM    8  C8  UNL     1       8.387 -22.186  23.012  1.00  0.00     0.143 A 
ATOM      9  H1  UNL     1       6.608 -22.932  23.705  1.00  0.00     0.168 HD
HETATM   10  S1  UNL     1       9.027 -20.613  23.208  1.00  0.00    -0.045 SA
BRANCH   6  11
HETATM   11  C6  UNL     1       5.622 -20.843  24.991  1.00  0.00     0.074 C 
BRANCH  11  12
HETATM   12  C5  UNL     1       4.493 -21.413  24.609  1.00  0.00     0.149 C 
HETATM   13  C4  UNL     1       3.357 -20.910  23.898  1.00  0.00     0.319 C 
HETATM   14  O1  UNL     1       2.440 -21.964  23.776  1.00  0.00    -0.278 OA
HETATM   15  O2  UNL     1       3.183 -19.747  23.449  1.00  0.00    -0.257 OA
HETATM   16  C2  UNL     1       2.930 -23.038  24.536  1.00  0.00     0.172 C 
HETATM   17  C1  UNL     1       2.120 -23.234  25.805  1.00  0.00     0.079 C 
HETATM   18  C3  UNL     1       2.960 -24.295  23.693  1.00  0.00     0.079 C 
HETATM   19  O3  UNL     1       4.247 -22.755  24.902  1.00  0.00    -0.308 OA
ENDBRANCH  11  12
ENDBRANCH   6  11
BRANCH   8  20
HETATM   20  N2  UNL     1       8.927 -23.207  22.377  1.00  0.00    -0.380 N 
ATOM     21  H22 UNL     1       9.479 -23.970  22.771  1.00  0.00     0.158 HD
ATOM     22  H21 UNL     1       8.899 -23.432  21.383  1.00  0.00     0.158 HD
ENDBRANCH   8  20
ENDBRANCH   4   5
ENDBRANCH   1   4
TORSDOF 5
ENDMDL
MODEL 4
REMARK VINA RESULT: -6.628436393      3.224      6.119
REMARK  5 active torsions:
REMARK  status: ('A' for Active; 'I' for Inactive)
REMARK    1  A    between atoms: C5_7  and  C6_8 
REMARK    2  A    between atoms: C6_8  and  C7_9 
REMARK    3  A    between atoms: C8_12  and  N2_13 
REMARK    4  A    between atoms: C9_17  and  S2_18 
REMARK    5  A    between atoms: S2_18  and  C10_19 
ROOT
HETATM    1  C10 UNL     1       7.337 -18.326  26.096  1.00  0.00     0.203 C 
HETATM    2  C11 UNL     1       8.718 -18.119  25.704  1.00  0.00     0.069 C 
HETATM    3  N3  UNL     1       9.807 -17.941  25.384  1.00  0.00    -0.197 NA
ENDROOT
BRANCH   1   4
HETATM    4  S2  UNL     1       7.041 -20.078  26.404  1.00  0.00    -0.106 SA
BRANCH   4   5
HETATM    5  C9  UNL     1       7.344 -20.967  24.862  1.00  0.00     0.072 A 
HETATM    6  C7  UNL     1       6.504 -21.190  23.813  1.00  0.00     0.061 A 
HETATM    7  N1  UNL     1       6.948 -21.908  22.807  1.00  0.00    -0.335 N 
HETATM    8  C8  UNL     1       8.194 -22.377  22.862  1.00  0.00     0.143 A 
ATOM      9  H1  UNL     1       6.353 -22.103  22.002  1.00  0.00     0.168 HD
HETATM   10  S1  UNL     1       8.760 -21.797  24.367  1.00  0.00    -0.045 SA
BRANCH   6  11
HETATM   11  C6  UNL     1       5.114 -20.672  23.848  1.00  0.00     0.074 C 
BRANCH  11  12
HETATM   12  C5  UNL     1       4.063 -21.469  23.799  1.00  0.00     0.149 C 
HETATM   13  C4  UNL     1       2.787 -21.337  23.162  1.00  0.00     0.319 C 
HETATM   14  O1  UNL     1       2.053 -22.496  23.453  1.00  0.00    -0.278 OA
HETATM   15  O2  UNL     1       2.372 -20.377  22.463  1.00  0.00    -0.257 OA
HETATM   16  C2  UNL     1       2.797 -23.244  24.380  1.00  0.00     0.172 C 
HETATM   17  C1  UNL     1       2.175 -23.189  25.763  1.00  0.00     0.079 C 
HETATM   18  C3  UNL     1       2.945 -24.669  23.891  1.00  0.00     0.079 C 
HETATM   19  O3  UNL     1       4.079 -22.699  24.459  1.00  0.00    -0.308 OA
ENDBRANCH  11  12
ENDBRANCH   6  11
BRANCH   8  20
HETATM   20  N2  UNL     1       8.844 -23.109  21.979  1.00  0.00    -0.380 N 
ATOM     21  H22 UNL     1       8.520 -23.950  21.501  1.00  0.00     0.158 HD
ATOM     22  H21 UNL     1       9.784 -22.980  21.606  1.00  0.00     0.158 HD
ENDBRANCH   8  20
ENDBRANCH   4   5
ENDBRANCH   1   4
TORSDOF 5
ENDMDL
MODEL 5
REMARK VINA RESULT: -6.610834797      3.120      5.866
REMARK  5 active torsions:
REMARK  status: ('A' for Active; 'I' for Inactive)
REMARK    1  A    between atoms: C5_7  and  C6_8 
REMARK    2  A    between atoms: C6_8  and  C7_9 
REMARK    3  A    between atoms: C8_12  and  N2_13 
REMARK    4  A    between atoms: C9_17  and  S2_18 
REMARK    5  A    between atoms: S2_18  and  C10_19 
ROOT
HETATM    1  C10 UNL     1       7.717 -18.178  24.609  1.00  0.00     0.203 C 
HETATM    2  C11 UNL     1       6.281 -17.974  24.605  1.00  0.00     0.069 C 
HETATM    3  N3  UNL     1       5.147 -17.795  24.601  1.00  0.00    -0.197 NA
ENDROOT
BRANCH   1   4
HETATM    4  S2  UNL     1       8.118 -19.713  25.466  1.00  0.00    -0.106 SA
BRANCH   4   5
HETATM    5  C9  UNL     1       7.827 -21.076  24.318  1.00  0.00     0.072 A 
HETATM    6  C7  UNL     1       6.700 -21.817  24.122  1.00  0.00     0.061 A 
HETATM    7  N1  UNL     1       6.747 -22.793  23.246  1.00  0.00    -0.335 N 
HETATM    8  C8  UNL     1       7.888 -23.007  22.592  1.00  0.00     0.143 A 
ATOM      9  H1  UNL     1       5.928 -23.375  23.069  1.00  0.00     0.168 HD
HETATM   10  S1  UNL     1       8.927 -21.807  23.225  1.00  0.00    -0.045 SA
BRANCH   6  11
HETATM   11  C6  UNL     1       5.481 -21.545  24.924  1.00  0.00     0.074 C 
BRANCH  11  12
HETATM   12  C5  UNL     1       4.298 -22.028  24.593  1.00  0.00     0.149 C 
HETATM   13  C4  UNL     1       3.173 -21.441  23.929  1.00  0.00     0.319 C 
HETATM   14  O1  UNL     1       2.175 -22.423  23.850  1.00  0.00    -0.278 OA
HETATM   15  O2  UNL     1       3.069 -20.269  23.483  1.00  0.00    -0.257 OA
HETATM   16  C2  UNL     1       2.614 -23.531  24.593  1.00  0.00     0.172 C 
HETATM   17  C1  UNL     1       1.847 -23.663  25.896  1.00  0.00     0.079 C 
HETATM   18  C3  UNL     1       2.513 -24.787  23.754  1.00  0.00     0.079 C 
HETATM   19  O3  UNL     1       3.963 -23.348  24.902  1.00  0.00    -0.308 OA
ENDBRANCH  11  12
ENDBRANCH   6  11
BRANCH   8  20
HETATM   20  N2  UNL     1       8.162 -23.917  21.679  1.00  0.00    -0.380 N 
ATOM     21  H22 UNL     1       7.531 -24.606  21.270  1.00  0.00     0.158 HD
ATOM     22  H21 UNL     1       9.047 -24.107  21.209  1.00  0.00     0.158 HD
ENDBRANCH   8  20
ENDBRANCH   4   5
ENDBRANCH   1   4
TORSDOF 5
ENDMDL
