MODEL 1
REMARK VINA RESULT: -6.677354843      0.000      0.000
REMARK  4 active torsions:
REMARK  status: ('A' for Active; 'I' for Inactive)
REMARK    1  A    between atoms: C2_2  and  S1_3 
REMARK    2  A    between atoms: S1_3  and  C3_4 
REMARK    3  A    between atoms: C8_16  and  S2_17 
REMARK    4  A    between atoms: S2_17  and  C9_18 
ROOT
HETATM    1  C3  UNL     1       6.235 -21.575  24.132  1.00  0.00     0.026 A 
HETATM    2  C4  UNL     1       5.325 -22.488  24.304  1.00  0.00     0.126 A 
HETATM    3  C5  UNL     1       4.151 -22.276  25.154  1.00  0.00     0.106 C 
HETATM    4  N1  UNL     1       3.198 -22.153  25.809  1.00  0.00    -0.191 NA
HETATM    5  C6  UNL     1       5.324 -23.830  23.659  1.00  0.00     0.268 A 
HETATM    6  O1  UNL     1       4.420 -24.680  23.862  1.00  0.00    -0.266 OA
HETATM    7  N2  UNL     1       6.399 -24.124  22.793  1.00  0.00    -0.311 N 
ATOM      8  H2  UNL     1       6.460 -25.028  22.323  1.00  0.00     0.170 HD
HETATM    9  C7  UNL     1       7.392 -23.133  22.592  1.00  0.00     0.097 A 
HETATM   10  N3  UNL     1       8.336 -23.425  21.724  1.00  0.00    -0.388 N 
ATOM     11  H31 UNL     1       9.050 -22.712  21.580  1.00  0.00     0.157 HD
ATOM     12  H32 UNL     1       8.292 -24.334  21.263  1.00  0.00     0.157 HD
HETATM   13  C8  UNL     1       7.456 -21.836  23.250  1.00  0.00     0.162 A 
ENDROOT
BRANCH   1  14
HETATM   14  S1  UNL     1       6.190 -19.973  24.884  1.00  0.00    -0.131 SA
BRANCH  14  15
HETATM   15  C2  UNL     1       6.937 -19.642  26.400  1.00  0.00     0.075 C 
HETATM   16  C1  UNL     1       7.905 -18.420  26.211  1.00  0.00     0.016 C 
ENDBRANCH  14  15
ENDBRANCH   1  14
BRANCH  13  17
HETATM   17  S2  UNL     1       8.955 -21.779  24.238  1.00  0.00    -0.099 SA
BRANCH  17  18
HETATM   18  C9  UNL     1      10.111 -20.547  23.623  1.00  0.00     0.043 C 
HETATM   19  N4  UNL     1      11.357 -20.821  23.527  1.00  0.00    -0.388 N 
HETATM   20  C10 UNL     1      12.120 -19.747  23.024  1.00  0.00     0.120 C 
ATOM     21  H4  UNL     1      11.756 -21.723  23.787  1.00  0.00     0.159 HD
HETATM   22  C11 UNL     1      11.116 -18.850  22.323  1.00  0.00     0.026 C 
HETATM   23  C12 UNL     1       9.879 -19.175  23.172  1.00  0.00     0.066 C 
ENDBRANCH  17  18
ENDBRANCH  13  17
TORSDOF 4
ENDMDL
MODEL 2
REMARK VINA RESULT: -6.629840534      2.551      5.676
REMARK  4 active torsions:
REMARK  status: ('A' for Active; 'I' for Inactive)
REMARK    1  A    between atoms: C2_2  and  S1_3 
REMARK    2  A    between atoms: S1_3  and  C3_4 
REMARK    3  A    between atoms: C8_16  and  S2_17 
REMARK    4  A    between atoms: S2_17  and  C9_18 
ROOT
HETATM    1  C3  UNL     1       7.839 -20.880  24.400  1.00  0.00     0.026 A 
HETATM    2  C4  UNL     1       9.007 -20.415  24.069  1.00  0.00     0.126 A 
HETATM    3  C5  UNL     1       9.560 -19.191  24.655  1.00  0.00     0.106 C 
HETATM    4  N1  UNL     1      10.046 -18.232  25.097  1.00  0.00    -0.191 NA
HETATM    5  C6  UNL     1       9.940 -21.052  23.100  1.00  0.00     0.268 A 
HETATM    6  O1  UNL     1      11.060 -20.559  22.811  1.00  0.00    -0.266 OA
HETATM    7  N2  UNL     1       9.516 -22.257  22.500  1.00  0.00    -0.311 N 
ATOM      8  H2  UNL     1      10.107 -22.742  21.825  1.00  0.00     0.170 HD
HETATM    9  C7  UNL     1       8.247 -22.778  22.861  1.00  0.00     0.097 A 
HETATM   10  N3  UNL     1       7.924 -23.937  22.330  1.00  0.00    -0.388 N 
ATOM     11  H31 UNL     1       7.011 -24.311  22.589  1.00  0.00     0.157 HD
ATOM     12  H32 UNL     1       8.597 -24.375  21.701  1.00  0.00     0.157 HD
HETATM   13  C8  UNL     1       7.287 -22.153  23.757  1.00  0.00     0.162 A 
ENDROOT
BRANCH   1  14
HETATM   14  S1  UNL     1       6.765 -20.120  25.585  1.00  0.00    -0.131 SA
BRANCH  14  15
HETATM   15  C2  UNL     1       6.375 -18.444  25.536  1.00  0.00     0.075 C 
HETATM   16  C1  UNL     1       5.246 -18.237  24.464  1.00  0.00     0.016 C 
ENDBRANCH  14  15
ENDBRANCH   1  14
BRANCH  13  17
HETATM   17  S2  UNL     1       5.803 -21.775  22.818  1.00  0.00    -0.099 SA
BRANCH  17  18
HETATM   18  C9  UNL     1       4.337 -22.499  23.568  1.00  0.00     0.043 C 
HETATM   19  N4  UNL     1       3.857 -23.596  23.119  1.00  0.00    -0.388 N 
HETATM   20  C10 UNL     1       2.713 -24.025  23.823  1.00  0.00     0.120 C 
ATOM     21  H4  UNL     1       4.260 -24.108  22.334  1.00  0.00     0.159 HD
HETATM   22  C11 UNL     1       2.774 -23.292  25.151  1.00  0.00     0.026 C 
HETATM   23  C12 UNL     1       3.522 -22.034  24.689  1.00  0.00     0.066 C 
ENDBRANCH  17  18
ENDBRANCH  13  17
TORSDOF 4
ENDMDL
MODEL 3
REMARK VINA RESULT: -6.615395252      2.602      5.728
REMARK  4 active torsions:
REMARK  status: ('A' for Active; 'I' for Inactive)
REMARK    1  A    between atoms: C2_2  and  S1_3 
REMARK    2  A    between atoms: S1_3  and  C3_4 
REMARK    3  A    between atoms: C8_16  and  S2_17 
REMARK    4  A    between atoms: S2_17  and  C9_18 
ROOT
HETATM    1  C3  UNL     1       8.234 -20.463  24.594  1.00  0.00     0.026 A 
HETATM    2  C4  UNL     1       9.305 -19.855  24.177  1.00  0.00     0.126 A 
HETATM    3  C5  UNL     1       9.730 -18.558  24.710  1.00  0.00     0.106 C 
HETATM    4  N1  UNL     1      10.114 -17.536  25.109  1.00  0.00    -0.191 NA
HETATM    5  C6  UNL     1      10.245 -20.381  23.149  1.00  0.00     0.268 A 
HETATM    6  O1  UNL     1      11.267 -19.749  22.777  1.00  0.00    -0.266 OA
HETATM    7  N2  UNL     1       9.943 -21.642  22.592  1.00  0.00    -0.311 N 
ATOM      8  H2  UNL     1      10.545 -22.057  21.880  1.00  0.00     0.170 HD
HETATM    9  C7  UNL     1       8.783 -22.318  23.046  1.00  0.00     0.097 A 
HETATM   10  N3  UNL     1       8.580 -23.519  22.549  1.00  0.00    -0.388 N 
ATOM     11  H31 UNL     1       7.746 -24.005  22.876  1.00  0.00     0.157 HD
ATOM     12  H32 UNL     1       9.261 -23.876  21.878  1.00  0.00     0.157 HD
HETATM   13  C8  UNL     1       7.813 -21.809  24.003  1.00  0.00     0.162 A 
ENDROOT
BRANCH   1  14
HETATM   14  S1  UNL     1       7.154 -19.830  25.845  1.00  0.00    -0.131 SA
BRANCH  14  15
HETATM   15  C2  UNL     1       6.464 -18.255  25.758  1.00  0.00     0.075 C 
HETATM   16  C1  UNL     1       5.459 -18.228  24.552  1.00  0.00     0.016 C 
ENDBRANCH  14  15
ENDBRANCH   1  14
BRANCH  13  17
HETATM   17  S2  UNL     1       6.231 -21.647  23.168  1.00  0.00    -0.099 SA
BRANCH  17  18
HETATM   18  C9  UNL     1       4.911 -22.464  24.076  1.00  0.00     0.043 C 
HETATM   19  N4  UNL     1       4.121 -21.785  24.818  1.00  0.00    -0.388 N 
HETATM   20  C10 UNL     1       3.143 -22.578  25.452  1.00  0.00     0.120 C 
ATOM     21  H4  UNL     1       4.191 -20.775  24.938  1.00  0.00     0.159 HD
HETATM   22  C11 UNL     1       3.085 -23.855  24.633  1.00  0.00     0.026 C 
HETATM   23  C12 UNL     1       4.535 -23.876  24.131  1.00  0.00     0.066 C 
ENDBRANCH  17  18
ENDBRANCH  13  17
TORSDOF 4
ENDMDL
MODEL 4
REMARK VINA RESULT: -6.496652693      3.721      7.006
REMARK  4 active torsions:
REMARK  status: ('A' for Active; 'I' for Inactive)
REMARK    1  A    between atoms: C2_2  and  S1_3 
REMARK    2  A    between atoms: S1_3  and  C3_4 
REMARK    3  A    between atoms: C8_16  and  S2_17 
REMARK    4  A    between atoms: S2_17  and  C9_18 
ROOT
HETATM    1  C3  UNL     1       4.687 -20.388  24.293  1.00  0.00     0.026 A 
HETATM    2  C4  UNL     1       4.966 -19.119  24.334  1.00  0.00     0.126 A 
HETATM    3  C5  UNL     1       6.270 -18.614  24.771  1.00  0.00     0.106 C 
HETATM    4  N1  UNL     1       7.290 -18.166  25.101  1.00  0.00    -0.191 NA
HETATM    5  C6  UNL     1       4.042 -18.025  23.926  1.00  0.00     0.268 A 
HETATM    6  O1  UNL     1       4.359 -16.810  23.988  1.00  0.00    -0.266 OA
HETATM    7  N2  UNL     1       2.766 -18.406  23.457  1.00  0.00    -0.311 N 
ATOM      8  H2  UNL     1       2.085 -17.704  23.165  1.00  0.00     0.170 HD
HETATM    9  C7  UNL     1       2.455 -19.788  23.400  1.00  0.00     0.097 A 
HETATM   10  N3  UNL     1       1.282 -20.098  22.893  1.00  0.00    -0.388 N 
ATOM     11  H31 UNL     1       1.059 -21.092  22.852  1.00  0.00     0.157 HD
ATOM     12  H32 UNL     1       0.683 -19.333  22.581  1.00  0.00     0.157 HD
HETATM   13  C8  UNL     1       3.310 -20.878  23.846  1.00  0.00     0.162 A 
ENDROOT
BRANCH   1  14
HETATM   14  S1  UNL     1       5.819 -21.669  24.750  1.00  0.00    -0.131 SA
BRANCH  14  15
HETATM   15  C2  UNL     1       7.252 -22.000  23.854  1.00  0.00     0.075 C 
HETATM   16  C1  UNL     1       8.486 -21.617  24.747  1.00  0.00     0.016 C 
ENDBRANCH  14  15
ENDBRANCH   1  14
BRANCH  13  17
HETATM   17  S2  UNL     1       2.485 -21.722  25.200  1.00  0.00    -0.099 SA
BRANCH  17  18
HETATM   18  C9  UNL     1       2.350 -23.490  24.899  1.00  0.00     0.043 C 
HETATM   19  N4  UNL     1       1.501 -24.193  25.549  1.00  0.00    -0.388 N 
HETATM   20  C10 UNL     1       1.522 -25.555  25.188  1.00  0.00     0.120 C 
ATOM     21  H4  UNL     1       0.874 -23.807  26.255  1.00  0.00     0.159 HD
HETATM   22  C11 UNL     1       2.188 -25.587  23.824  1.00  0.00     0.026 C 
HETATM   23  C12 UNL     1       3.085 -24.350  23.972  1.00  0.00     0.066 C 
ENDBRANCH  17  18
ENDBRANCH  13  17
TORSDOF 4
ENDMDL
MODEL 5
REMARK VINA RESULT: -6.485665648      1.040      1.071
REMARK  4 active torsions:
REMARK  status: ('A' for Active; 'I' for Inactive)
REMARK    1  A    between atoms: C2_2  and  S1_3 
REMARK    2  A    between atoms: S1_3  and  C3_4 
REMARK    3  A    between atoms: C8_16  and  S2_17 
REMARK    4  A    between atoms: S2_17  and  C9_18 
ROOT
HETATM    1  C3  UNL     1       5.954 -21.553  24.440  1.00  0.00     0.026 A 
HETATM    2  C4  UNL     1       5.095 -22.525  24.532  1.00  0.00     0.126 A 
HETATM    3  C5  UNL     1       3.892 -22.434  25.364  1.00  0.00     0.106 C 
HETATM    4  N1  UNL     1       2.919 -22.406  26.001  1.00  0.00    -0.191 NA
HETATM    5  C6  UNL     1       5.186 -23.822  23.807  1.00  0.00     0.268 A 
HETATM    6  O1  UNL     1       4.328 -24.733  23.935  1.00  0.00    -0.266 OA
HETATM    7  N2  UNL     1       6.295 -24.000  22.952  1.00  0.00    -0.311 N 
ATOM      8  H2  UNL     1       6.418 -24.868  22.429  1.00  0.00     0.170 HD
HETATM    9  C7  UNL     1       7.233 -22.944  22.837  1.00  0.00     0.097 A 
HETATM   10  N3  UNL     1       8.211 -23.128  21.978  1.00  0.00    -0.388 N 
ATOM     11  H31 UNL     1       8.885 -22.368  21.895  1.00  0.00     0.157 HD
ATOM     12  H32 UNL     1       8.229 -24.008  21.461  1.00  0.00     0.157 HD
HETATM   13  C8  UNL     1       7.206 -21.690  23.575  1.00  0.00     0.162 A 
ENDROOT
BRANCH   1  14
HETATM   14  S1  UNL     1       5.800 -20.007  25.287  1.00  0.00    -0.131 SA
BRANCH  14  15
HETATM   15  C2  UNL     1       6.152 -18.500  24.531  1.00  0.00     0.075 C 
HETATM   16  C1  UNL     1       4.793 -17.760  24.261  1.00  0.00     0.016 C 
ENDBRANCH  14  15
ENDBRANCH   1  14
BRANCH  13  17
HETATM   17  S2  UNL     1       8.678 -21.610  24.602  1.00  0.00    -0.099 SA
BRANCH  17  18
HETATM   18  C9  UNL     1       9.936 -20.545  23.883  1.00  0.00     0.043 C 
HETATM   19  N4  UNL     1      11.047 -21.037  23.483  1.00  0.00    -0.388 N 
HETATM   20  C10 UNL     1      11.915 -20.067  22.942  1.00  0.00     0.120 C 
ATOM     21  H4  UNL     1      11.280 -22.028  23.550  1.00  0.00     0.159 HD
HETATM   22  C11 UNL     1      11.019 -18.897  22.582  1.00  0.00     0.026 C 
HETATM   23  C12 UNL     1       9.929 -19.102  23.644  1.00  0.00     0.066 C 
ENDBRANCH  17  18
ENDBRANCH  13  17
TORSDOF 4
ENDMDL
