MODEL 1
REMARK VINA RESULT: -4.649760482      0.000      0.000
REMARK  3 active torsions:
REMARK  status: ('A' for Active; 'I' for Inactive)
REMARK    1  A    between atoms: N1_1  and  C1_4 
REMARK    2  A    between atoms: C2_7  and  C3_8 
REMARK       I    between atoms: C3_8  and  N3_10 
REMARK    3  A    between atoms: N3_10  and  N4_12 
ROOT
HETATM    1  C1  UNL     1      12.683   8.077  26.791  1.00  0.00     0.681 A 
HETATM    2  N2  UNL     1      11.557   8.533  26.210  1.00  0.00    -0.171 N 
ATOM      3  H2  UNL     1      10.858   9.001  26.788  1.00  0.00     0.186 HD
HETATM    4  C2  UNL     1      11.324   8.391  24.883  1.00  0.00     0.195 A 
HETATM    5  N5  UNL     1      12.226   7.784  24.123  1.00  0.00    -0.289 N 
ATOM      6  H5  UNL     1      12.067   7.668  23.122  1.00  0.00     0.172 HD
HETATM    7  C4  UNL     1      13.354   7.324  24.696  1.00  0.00     0.340 A 
HETATM    8  O2  UNL     1      14.200   6.750  23.961  1.00  0.00    -0.246 OA
HETATM    9  N6  UNL     1      13.593   7.464  26.030  1.00  0.00    -0.141 N 
ATOM     10  H6  UNL     1      14.455   7.107  26.441  1.00  0.00     0.189 HD
ENDROOT
BRANCH   4  11
HETATM   11  C3  UNL     1      10.075   8.912  24.309  1.00  0.00     0.304 C 
HETATM   12  O1  UNL     1       9.557   8.339  23.322  1.00  0.00    -0.263 OA
HETATM   13  N3  UNL     1       9.480  10.060  24.894  1.00  0.00    -0.270 N 
ATOM     14  H3  UNL     1       9.912  10.515  25.698  1.00  0.00     0.189 HD
BRANCH  13  15
HETATM   15  N4  UNL     1       8.293  10.556  24.352  1.00  0.00    -0.342 N 
ATOM     16  H42 UNL     1       7.504  10.757  24.966  1.00  0.00     0.176 HD
ATOM     17  H41 UNL     1       8.236  10.710  23.345  1.00  0.00     0.176 HD
ENDBRANCH  13  15
ENDBRANCH   4  11
BRANCH   1  18
HETATM   18  N1  UNL     1      12.852   8.241  28.060  1.00  0.00    -0.234 N 
ATOM     19  H12 UNL     1      13.556   8.878  28.432  1.00  0.00     0.174 HD
ATOM     20  H11 UNL     1      12.268   7.720  28.714  1.00  0.00     0.174 HD
ENDBRANCH   1  18
TORSDOF 3
ENDMDL
MODEL 2
REMARK VINA RESULT: -4.282215153      2.284      4.989
REMARK  3 active torsions:
REMARK  status: ('A' for Active; 'I' for Inactive)
REMARK    1  A    between atoms: N1_1  and  C1_4 
REMARK    2  A    between atoms: C2_7  and  C3_8 
REMARK       I    between atoms: C3_8  and  N3_10 
REMARK    3  A    between atoms: N3_10  and  N4_12 
ROOT
HETATM    1  C1  UNL     1      12.821   7.860  26.940  1.00  0.00     0.681 A 
HETATM    2  N2  UNL     1      14.043   7.367  26.668  1.00  0.00    -0.171 N 
ATOM      3  H2  UNL     1      14.681   7.174  27.441  1.00  0.00     0.186 HD
HETATM    4  C2  UNL     1      14.454   7.120  25.400  1.00  0.00     0.195 A 
HETATM    5  N5  UNL     1      13.634   7.369  24.388  1.00  0.00    -0.289 N 
ATOM      6  H5  UNL     1      13.925   7.189  23.428  1.00  0.00     0.172 HD
HETATM    7  C4  UNL     1      12.409   7.863  24.651  1.00  0.00     0.340 A 
HETATM    8  O2  UNL     1      11.643   8.094  23.680  1.00  0.00    -0.246 OA
HETATM    9  N6  UNL     1      11.992   8.114  25.924  1.00  0.00    -0.141 N 
ATOM     10  H6  UNL     1      11.060   8.489  26.098  1.00  0.00     0.189 HD
ENDROOT
BRANCH   4  11
HETATM   11  C3  UNL     1      15.801   6.580  25.169  1.00  0.00     0.304 C 
HETATM   12  O1  UNL     1      16.186   5.572  25.807  1.00  0.00    -0.263 OA
HETATM   13  N3  UNL     1      16.641   7.220  24.220  1.00  0.00    -0.270 N 
ATOM     14  H3  UNL     1      16.315   8.039  23.708  1.00  0.00     0.189 HD
BRANCH  13  15
HETATM   15  N4  UNL     1      17.922   6.710  23.999  1.00  0.00    -0.342 N 
ATOM     16  H42 UNL     1      18.030   5.778  23.597  1.00  0.00     0.176 HD
ATOM     17  H41 UNL     1      18.730   7.280  24.246  1.00  0.00     0.176 HD
ENDBRANCH  13  15
ENDBRANCH   4  11
BRANCH   1  18
HETATM   18  N1  UNL     1      12.484   8.076  28.167  1.00  0.00    -0.234 N 
ATOM     19  H12 UNL     1      13.016   7.694  28.948  1.00  0.00     0.174 HD
ATOM     20  H11 UNL     1      11.660   8.643  28.367  1.00  0.00     0.174 HD
ENDBRANCH   1  18
TORSDOF 3
ENDMDL
MODEL 3
REMARK VINA RESULT: -4.242553473      1.179      4.238
REMARK  3 active torsions:
REMARK  status: ('A' for Active; 'I' for Inactive)
REMARK    1  A    between atoms: N1_1  and  C1_4 
REMARK    2  A    between atoms: C2_7  and  C3_8 
REMARK       I    between atoms: C3_8  and  N3_10 
REMARK    3  A    between atoms: N3_10  and  N4_12 
ROOT
HETATM    1  C1  UNL     1      10.576   9.492  26.215  1.00  0.00     0.681 A 
HETATM    2  N2  UNL     1      11.750   8.835  26.207  1.00  0.00    -0.171 N 
ATOM      3  H2  UNL     1      12.374   8.930  27.009  1.00  0.00     0.186 HD
HETATM    4  C2  UNL     1      12.130   8.053  25.167  1.00  0.00     0.195 A 
HETATM    5  N5  UNL     1      11.327   7.925  24.120  1.00  0.00    -0.289 N 
ATOM      6  H5  UNL     1      11.597   7.340  23.329  1.00  0.00     0.172 HD
HETATM    7  C4  UNL     1      10.151   8.579  24.119  1.00  0.00     0.340 A 
HETATM    8  O2  UNL     1       9.400   8.446  23.118  1.00  0.00    -0.246 OA
HETATM    9  N6  UNL     1       9.764   9.366  25.162  1.00  0.00    -0.141 N 
ATOM     10  H6  UNL     1       8.868   9.853  25.138  1.00  0.00     0.189 HD
ENDROOT
BRANCH   4  11
HETATM   11  C3  UNL     1      13.426   7.362  25.220  1.00  0.00     0.304 C 
HETATM   12  O1  UNL     1      13.923   6.890  24.169  1.00  0.00    -0.263 OA
HETATM   13  N3  UNL     1      14.090   7.246  26.469  1.00  0.00    -0.270 N 
ATOM     14  H3  UNL     1      13.674   7.635  27.315  1.00  0.00     0.189 HD
BRANCH  13  15
HETATM   15  N4  UNL     1      15.321   6.590  26.521  1.00  0.00    -0.342 N 
ATOM     16  H42 UNL     1      15.713   6.326  27.426  1.00  0.00     0.176 HD
ATOM     17  H41 UNL     1      15.810   6.387  25.650  1.00  0.00     0.176 HD
ENDBRANCH  13  15
ENDBRANCH   4  11
BRANCH   1  18
HETATM   18  N1  UNL     1      10.265  10.223  27.233  1.00  0.00    -0.234 N 
ATOM     19  H12 UNL     1      10.549  11.200  27.302  1.00  0.00     0.174 HD
ATOM     20  H11 UNL     1       9.722   9.816  27.994  1.00  0.00     0.174 HD
ENDBRANCH   1  18
TORSDOF 3
ENDMDL
MODEL 4
REMARK VINA RESULT: -4.199819153      1.567      4.262
REMARK  3 active torsions:
REMARK  status: ('A' for Active; 'I' for Inactive)
REMARK    1  A    between atoms: N1_1  and  C1_4 
REMARK    2  A    between atoms: C2_7  and  C3_8 
REMARK       I    between atoms: C3_8  and  N3_10 
REMARK    3  A    between atoms: N3_10  and  N4_12 
ROOT
HETATM    1  C1  UNL     1      10.624   9.391  26.195  1.00  0.00     0.681 A 
HETATM    2  N2  UNL     1      11.814   8.765  26.158  1.00  0.00    -0.171 N 
ATOM      3  H2  UNL     1      12.449   8.864  26.950  1.00  0.00     0.186 HD
HETATM    4  C2  UNL     1      12.196   8.008  25.100  1.00  0.00     0.195 A 
HETATM    5  N5  UNL     1      11.379   7.874  24.064  1.00  0.00    -0.289 N 
ATOM      6  H5  UNL     1      11.650   7.309  23.260  1.00  0.00     0.172 HD
HETATM    7  C4  UNL     1      10.187   8.498  24.093  1.00  0.00     0.340 A 
HETATM    8  O2  UNL     1       9.423   8.361  23.102  1.00  0.00    -0.246 OA
HETATM    9  N6  UNL     1       9.797   9.260  25.154  1.00  0.00    -0.141 N 
ATOM     10  H6  UNL     1       8.889   9.724  25.152  1.00  0.00     0.189 HD
ENDROOT
BRANCH   4  11
HETATM   11  C3  UNL     1      13.510   7.350  25.120  1.00  0.00     0.304 C 
HETATM   12  O1  UNL     1      13.896   6.762  26.159  1.00  0.00    -0.263 OA
HETATM   13  N3  UNL     1      14.317   7.395  23.953  1.00  0.00    -0.270 N 
ATOM     14  H3  UNL     1      13.989   7.877  23.116  1.00  0.00     0.189 HD
BRANCH  13  15
HETATM   15  N4  UNL     1      15.565   6.771  23.970  1.00  0.00    -0.342 N 
ATOM     16  H42 UNL     1      15.683   5.869  23.507  1.00  0.00     0.176 HD
ATOM     17  H41 UNL     1      16.341   7.230  24.447  1.00  0.00     0.176 HD
ENDBRANCH  13  15
ENDBRANCH   4  11
BRANCH   1  18
HETATM   18  N1  UNL     1      10.312  10.098  27.229  1.00  0.00    -0.234 N 
ATOM     19  H12 UNL     1      10.581  11.079  27.313  1.00  0.00     0.174 HD
ATOM     20  H11 UNL     1       9.783   9.669  27.988  1.00  0.00     0.174 HD
ENDBRANCH   1  18
TORSDOF 3
ENDMDL
MODEL 5
REMARK VINA RESULT: -4.199693092      1.467      2.307
REMARK  3 active torsions:
REMARK  status: ('A' for Active; 'I' for Inactive)
REMARK    1  A    between atoms: N1_1  and  C1_4 
REMARK    2  A    between atoms: C2_7  and  C3_8 
REMARK       I    between atoms: C3_8  and  N3_10 
REMARK    3  A    between atoms: N3_10  and  N4_12 
ROOT
HETATM    1  C1  UNL     1      13.696   7.370  24.586  1.00  0.00     0.681 A 
HETATM    2  N2  UNL     1      12.524   7.830  24.109  1.00  0.00    -0.171 N 
ATOM      3  H2  UNL     1      12.378   7.854  23.099  1.00  0.00     0.186 HD
HETATM    4  C2  UNL     1      11.533   8.261  24.927  1.00  0.00     0.195 A 
HETATM    5  N5  UNL     1      11.714   8.234  26.240  1.00  0.00    -0.289 N 
ATOM      6  H5  UNL     1      10.979   8.555  26.871  1.00  0.00     0.172 HD
HETATM    7  C4  UNL     1      12.882   7.777  26.726  1.00  0.00     0.340 A 
HETATM    8  O2  UNL     1      13.038   7.757  27.975  1.00  0.00    -0.246 OA
HETATM    9  N6  UNL     1      13.882   7.342  25.908  1.00  0.00    -0.141 N 
ATOM     10  H6  UNL     1      14.760   7.000  26.300  1.00  0.00     0.189 HD
ENDROOT
BRANCH   4  11
HETATM   11  C3  UNL     1      10.277   8.751  24.343  1.00  0.00     0.304 C 
HETATM   12  O1  UNL     1       9.757   8.139  23.381  1.00  0.00    -0.263 OA
HETATM   13  N3  UNL     1       9.678   9.917  24.889  1.00  0.00    -0.270 N 
ATOM     14  H3  UNL     1      10.112  10.404  25.672  1.00  0.00     0.189 HD
BRANCH  13  15
HETATM   15  N4  UNL     1       8.484  10.385  24.336  1.00  0.00    -0.342 N 
ATOM     16  H42 UNL     1       8.283  10.209  23.352  1.00  0.00     0.176 HD
ATOM     17  H41 UNL     1       7.832  10.897  24.930  1.00  0.00     0.176 HD
ENDBRANCH  13  15
ENDBRANCH   4  11
BRANCH   1  18
HETATM   18  N1  UNL     1      14.604   6.971  23.760  1.00  0.00    -0.234 N 
ATOM     19  H12 UNL     1      14.601   6.029  23.369  1.00  0.00     0.174 HD
ATOM     20  H11 UNL     1      15.349   7.612  23.487  1.00  0.00     0.174 HD
ENDBRANCH   1  18
TORSDOF 3
ENDMDL
