MODEL 1
REMARK VINA RESULT: -6.524735834      0.000      0.000
REMARK  13 active torsions:
REMARK  status: ('A' for Active; 'I' for Inactive)
REMARK    1  A    between atoms: C4_4  and  N1_5 
REMARK    2  A    between atoms: N1_5  and  C5_7 
REMARK    3  A    between atoms: C5_7  and  C6_8 
REMARK    4  A    between atoms: C6_8  and  C7_9 
REMARK    5  A    between atoms: C7_9  and  N2_10 
REMARK    6  A    between atoms: N2_10  and  C8_13 
REMARK    7  A    between atoms: C8_13  and  C9_14 
REMARK    8  A    between atoms: C9_14  and  C10_15 
REMARK    9  A    between atoms: C10_15  and  C11_16 
REMARK   10  A    between atoms: C11_16  and  C12_17 
REMARK   11  A    between atoms: C12_17  and  C13_18 
REMARK   12  A    between atoms: C13_18  and  N3_19 
REMARK   13  A    between atoms: C16_25  and  N4_26 
ROOT
HETATM    1  C5  UNL     1     113.343  42.594  49.686  1.00  0.00     0.121 C 
ENDROOT
BRANCH   1   2
HETATM    2  N1  UNL     1     112.947  42.612  51.077  1.00  0.00    -0.390 N 
ATOM      3  H1  UNL     1     112.072  42.177  51.372  1.00  0.00     0.159 HD
BRANCH   2   4
HETATM    4  C4  UNL     1     113.708  43.179  51.928  1.00  0.00     0.029 C 
HETATM    5  C3  UNL     1     114.524  42.377  52.691  1.00  0.00     0.053 C 
HETATM    6  C2  UNL     1     115.217  42.683  53.870  1.00  0.00     0.009 C 
HETATM    7  C1  UNL     1     115.459  41.585  54.835  1.00  0.00     0.068 C 
HETATM    8  N5  UNL     1     115.700  43.903  54.231  1.00  0.00    -0.347 N 
HETATM    9  C16 UNL     1     115.426  45.135  53.714  1.00  0.00     0.098 C 
ATOM     10  H5  UNL     1     116.366  43.895  55.004  1.00  0.00     0.167 HD
HETATM   11  C15 UNL     1     114.512  45.414  52.722  1.00  0.00     0.050 C 
HETATM   12  C14 UNL     1     113.655  44.568  52.016  1.00  0.00     0.033 C 
BRANCH   9  13
HETATM   13  N4  UNL     1     116.106  46.115  54.229  1.00  0.00    -0.385 N 
ATOM     14  H42 UNL     1     115.573  46.963  54.416  1.00  0.00     0.157 HD
ATOM     15  H41 UNL     1     117.102  45.979  54.406  1.00  0.00     0.157 HD
ENDBRANCH   9  13
ENDBRANCH   2   4
ENDBRANCH   1   2
BRANCH   1  16
HETATM   16  C6  UNL     1     114.061  41.300  49.341  1.00  0.00     0.047 C 
BRANCH  16  17
HETATM   17  C7  UNL     1     114.956  41.584  48.158  1.00  0.00     0.234 C 
BRANCH  17  18
HETATM   18  N2  UNL     1     115.893  42.658  48.410  1.00  0.00    -0.075 N 
ATOM     19  H22 UNL     1     115.432  43.563  48.497  1.00  0.00     0.277 HD
ATOM     20  H21 UNL     1     116.293  42.611  49.347  1.00  0.00     0.277 HD
BRANCH  18  21
HETATM   21  C8  UNL     1     116.903  42.653  47.380  1.00  0.00     0.232 C 
BRANCH  21  22
HETATM   22  C9  UNL     1     117.186  41.251  46.959  1.00  0.00     0.027 C 
BRANCH  22  23
HETATM   23  C10 UNL     1     117.629  41.186  45.543  1.00  0.00     0.002 C 
BRANCH  23  24
HETATM   24  C11 UNL     1     117.064  42.386  44.784  1.00  0.00     0.002 C 
BRANCH  24  25
HETATM   25  C12 UNL     1     116.132  41.884  43.694  1.00  0.00     0.027 C 
BRANCH  25  26
HETATM   26  C13 UNL     1     114.719  41.907  44.256  1.00  0.00     0.229 C 
BRANCH  26  27
HETATM   27  N3  UNL     1     114.395  43.253  44.678  1.00  0.00    -0.079 N 
ATOM     28  H33 UNL     1     114.523  43.386  45.681  1.00  0.00     0.274 HD
ATOM     29  H32 UNL     1     115.080  43.936  44.353  1.00  0.00     0.274 HD
ATOM     30  H31 UNL     1     113.448  43.481  44.376  1.00  0.00     0.274 HD
ENDBRANCH  26  27
ENDBRANCH  25  26
ENDBRANCH  24  25
ENDBRANCH  23  24
ENDBRANCH  22  23
ENDBRANCH  21  22
ENDBRANCH  18  21
ENDBRANCH  17  18
ENDBRANCH  16  17
ENDBRANCH   1  16
TORSDOF 13
ENDMDL
MODEL 2
REMARK VINA RESULT: -6.208202493      1.348      1.834
REMARK  13 active torsions:
REMARK  status: ('A' for Active; 'I' for Inactive)
REMARK    1  A    between atoms: C4_4  and  N1_5 
REMARK    2  A    between atoms: N1_5  and  C5_7 
REMARK    3  A    between atoms: C5_7  and  C6_8 
REMARK    4  A    between atoms: C6_8  and  C7_9 
REMARK    5  A    between atoms: C7_9  and  N2_10 
REMARK    6  A    between atoms: N2_10  and  C8_13 
REMARK    7  A    between atoms: C8_13  and  C9_14 
REMARK    8  A    between atoms: C9_14  and  C10_15 
REMARK    9  A    between atoms: C10_15  and  C11_16 
REMARK   10  A    between atoms: C11_16  and  C12_17 
REMARK   11  A    between atoms: C12_17  and  C13_18 
REMARK   12  A    between atoms: C13_18  and  N3_19 
REMARK   13  A    between atoms: C16_25  and  N4_26 
ROOT
HETATM    1  C5  UNL     1     114.004  44.121  50.585  1.00  0.00     0.121 C 
ENDROOT
BRANCH   1   2
HETATM    2  N1  UNL     1     113.547  44.631  51.858  1.00  0.00    -0.390 N 
ATOM      3  H1  UNL     1     112.551  44.742  52.044  1.00  0.00     0.159 HD
BRANCH   2   4
HETATM    4  C4  UNL     1     114.410  44.939  52.745  1.00  0.00     0.029 C 
HETATM    5  C3  UNL     1     114.598  44.062  53.787  1.00  0.00     0.053 C 
HETATM    6  C2  UNL     1     115.235  44.271  55.018  1.00  0.00     0.009 C 
HETATM    7  C1  UNL     1     114.763  43.485  56.182  1.00  0.00     0.068 C 
HETATM    8  N5  UNL     1     116.257  45.135  55.264  1.00  0.00    -0.347 N 
HETATM    9  C16 UNL     1     116.731  46.162  54.502  1.00  0.00     0.098 C 
ATOM     10  H5  UNL     1     116.741  44.994  56.151  1.00  0.00     0.167 HD
HETATM   11  C15 UNL     1     116.203  46.596  53.306  1.00  0.00     0.050 C 
HETATM   12  C14 UNL     1     115.097  46.140  52.586  1.00  0.00     0.033 C 
BRANCH   9  13
HETATM   13  N4  UNL     1     117.777  46.767  54.978  1.00  0.00    -0.385 N 
ATOM     14  H42 UNL     1     117.979  47.677  54.564  1.00  0.00     0.157 HD
ATOM     15  H41 UNL     1     118.316  46.308  55.713  1.00  0.00     0.157 HD
ENDBRANCH   9  13
ENDBRANCH   2   4
ENDBRANCH   1   2
BRANCH   1  16
HETATM   16  C6  UNL     1     113.283  42.832  50.224  1.00  0.00     0.047 C 
BRANCH  16  17
HETATM   17  C7  UNL     1     114.310  41.892  49.637  1.00  0.00     0.234 C 
BRANCH  17  18
HETATM   18  N2  UNL     1     114.395  41.986  48.195  1.00  0.00    -0.075 N 
ATOM     19  H22 UNL     1     113.499  42.218  47.768  1.00  0.00     0.277 HD
ATOM     20  H21 UNL     1     114.916  42.809  47.890  1.00  0.00     0.277 HD
BRANCH  18  21
HETATM   21  C8  UNL     1     114.951  40.760  47.676  1.00  0.00     0.232 C 
BRANCH  21  22
HETATM   22  C9  UNL     1     116.440  40.831  47.701  1.00  0.00     0.027 C 
BRANCH  22  23
HETATM   23  C10 UNL     1     116.940  42.018  46.962  1.00  0.00     0.002 C 
BRANCH  23  24
HETATM   24  C11 UNL     1     117.351  41.596  45.552  1.00  0.00     0.002 C 
BRANCH  24  25
HETATM   25  C12 UNL     1     116.752  42.571  44.552  1.00  0.00     0.027 C 
BRANCH  25  26
HETATM   26  C13 UNL     1     115.348  42.086  44.228  1.00  0.00     0.229 C 
BRANCH  26  27
HETATM   27  N3  UNL     1     114.390  43.092  44.630  1.00  0.00    -0.079 N 
ATOM     28  H33 UNL     1     114.652  44.025  44.312  1.00  0.00     0.274 HD
ATOM     29  H32 UNL     1     113.507  43.010  44.125  1.00  0.00     0.274 HD
ATOM     30  H31 UNL     1     114.262  43.050  45.641  1.00  0.00     0.274 HD
ENDBRANCH  26  27
ENDBRANCH  25  26
ENDBRANCH  24  25
ENDBRANCH  23  24
ENDBRANCH  22  23
ENDBRANCH  21  22
ENDBRANCH  18  21
ENDBRANCH  17  18
ENDBRANCH  16  17
ENDBRANCH   1  16
TORSDOF 13
ENDMDL
MODEL 3
REMARK VINA RESULT: -6.197147634      1.397      2.413
REMARK  13 active torsions:
REMARK  status: ('A' for Active; 'I' for Inactive)
REMARK    1  A    between atoms: C4_4  and  N1_5 
REMARK    2  A    between atoms: N1_5  and  C5_7 
REMARK    3  A    between atoms: C5_7  and  C6_8 
REMARK    4  A    between atoms: C6_8  and  C7_9 
REMARK    5  A    between atoms: C7_9  and  N2_10 
REMARK    6  A    between atoms: N2_10  and  C8_13 
REMARK    7  A    between atoms: C8_13  and  C9_14 
REMARK    8  A    between atoms: C9_14  and  C10_15 
REMARK    9  A    between atoms: C10_15  and  C11_16 
REMARK   10  A    between atoms: C11_16  and  C12_17 
REMARK   11  A    between atoms: C12_17  and  C13_18 
REMARK   12  A    between atoms: C13_18  and  N3_19 
REMARK   13  A    between atoms: C16_25  and  N4_26 
ROOT
HETATM    1  C5  UNL     1     114.361  43.827  50.395  1.00  0.00     0.121 C 
ENDROOT
BRANCH   1   2
HETATM    2  N1  UNL     1     113.813  44.698  51.410  1.00  0.00    -0.390 N 
ATOM      3  H1  UNL     1     112.916  45.161  51.267  1.00  0.00     0.159 HD
BRANCH   2   4
HETATM    4  C4  UNL     1     114.470  44.878  52.488  1.00  0.00     0.029 C 
HETATM    5  C3  UNL     1     115.158  46.060  52.628  1.00  0.00     0.053 C 
HETATM    6  C2  UNL     1     116.173  46.394  53.537  1.00  0.00     0.009 C 
HETATM    7  C1  UNL     1     117.183  47.390  53.109  1.00  0.00     0.068 C 
HETATM    8  N5  UNL     1     116.332  45.891  54.790  1.00  0.00    -0.347 N 
HETATM    9  C16 UNL     1     115.755  44.801  55.371  1.00  0.00     0.098 C 
ATOM     10  H5  UNL     1     116.981  46.406  55.385  1.00  0.00     0.167 HD
HETATM   11  C15 UNL     1     114.906  43.908  54.756  1.00  0.00     0.050 C 
HETATM   12  C14 UNL     1     114.435  43.864  53.442  1.00  0.00     0.033 C 
BRANCH   9  13
HETATM   13  N4  UNL     1     116.055  44.616  56.621  1.00  0.00    -0.385 N 
ATOM     14  H42 UNL     1     115.694  43.755  57.032  1.00  0.00     0.157 HD
ATOM     15  H41 UNL     1     116.616  45.321  57.100  1.00  0.00     0.157 HD
ENDBRANCH   9  13
ENDBRANCH   2   4
ENDBRANCH   1   2
BRANCH   1  16
HETATM   16  C6  UNL     1     113.378  42.725  50.034  1.00  0.00     0.047 C 
BRANCH  16  17
HETATM   17  C7  UNL     1     114.170  41.608  49.396  1.00  0.00     0.234 C 
BRANCH  17  18
HETATM   18  N2  UNL     1     114.546  41.899  48.029  1.00  0.00    -0.075 N 
ATOM     19  H22 UNL     1     113.898  41.494  47.354  1.00  0.00     0.277 HD
ATOM     20  H21 UNL     1     114.408  42.881  47.789  1.00  0.00     0.277 HD
BRANCH  18  21
HETATM   21  C8  UNL     1     115.906  41.466  47.813  1.00  0.00     0.232 C 
BRANCH  21  22
HETATM   22  C9  UNL     1     116.742  42.625  47.388  1.00  0.00     0.027 C 
BRANCH  22  23
HETATM   23  C10 UNL     1     117.762  42.222  46.386  1.00  0.00     0.002 C 
BRANCH  23  24
HETATM   24  C11 UNL     1     117.106  41.331  45.332  1.00  0.00     0.002 C 
BRANCH  24  25
HETATM   25  C12 UNL     1     116.588  42.205  44.202  1.00  0.00     0.027 C 
BRANCH  25  26
HETATM   26  C13 UNL     1     115.087  41.981  44.105  1.00  0.00     0.229 C 
BRANCH  26  27
HETATM   27  N3  UNL     1     114.397  43.129  44.655  1.00  0.00    -0.079 N 
ATOM     28  H33 UNL     1     113.680  42.862  45.330  1.00  0.00     0.274 HD
ATOM     29  H32 UNL     1     114.991  43.672  45.282  1.00  0.00     0.274 HD
ATOM     30  H31 UNL     1     114.021  43.692  43.893  1.00  0.00     0.274 HD
ENDBRANCH  26  27
ENDBRANCH  25  26
ENDBRANCH  24  25
ENDBRANCH  23  24
ENDBRANCH  22  23
ENDBRANCH  21  22
ENDBRANCH  18  21
ENDBRANCH  17  18
ENDBRANCH  16  17
ENDBRANCH   1  16
TORSDOF 13
ENDMDL
MODEL 4
REMARK VINA RESULT: -6.186182015      2.009      2.429
REMARK  13 active torsions:
REMARK  status: ('A' for Active; 'I' for Inactive)
REMARK    1  A    between atoms: C4_4  and  N1_5 
REMARK    2  A    between atoms: N1_5  and  C5_7 
REMARK    3  A    between atoms: C5_7  and  C6_8 
REMARK    4  A    between atoms: C6_8  and  C7_9 
REMARK    5  A    between atoms: C7_9  and  N2_10 
REMARK    6  A    between atoms: N2_10  and  C8_13 
REMARK    7  A    between atoms: C8_13  and  C9_14 
REMARK    8  A    between atoms: C9_14  and  C10_15 
REMARK    9  A    between atoms: C10_15  and  C11_16 
REMARK   10  A    between atoms: C11_16  and  C12_17 
REMARK   11  A    between atoms: C12_17  and  C13_18 
REMARK   12  A    between atoms: C13_18  and  N3_19 
REMARK   13  A    between atoms: C16_25  and  N4_26 
ROOT
HETATM    1  C5  UNL     1     114.334  41.579  48.912  1.00  0.00     0.121 C 
ENDROOT
BRANCH   1   2
HETATM    2  N1  UNL     1     114.876  41.442  50.246  1.00  0.00    -0.390 N 
ATOM      3  H1  UNL     1     115.210  40.538  50.579  1.00  0.00     0.159 HD
BRANCH   2   4
HETATM    4  C4  UNL     1     114.929  42.470  50.998  1.00  0.00     0.029 C 
HETATM    5  C3  UNL     1     115.224  42.275  52.327  1.00  0.00     0.053 C 
HETATM    6  C2  UNL     1     115.059  43.150  53.410  1.00  0.00     0.009 C 
HETATM    7  C1  UNL     1     114.806  42.557  54.745  1.00  0.00     0.068 C 
HETATM    8  N5  UNL     1     115.105  44.509  53.366  1.00  0.00    -0.347 N 
HETATM    9  C16 UNL     1     115.056  45.347  52.292  1.00  0.00     0.098 C 
ATOM     10  H5  UNL     1     115.189  44.969  54.273  1.00  0.00     0.167 HD
HETATM   11  C15 UNL     1     114.872  44.974  50.979  1.00  0.00     0.050 C 
HETATM   12  C14 UNL     1     114.686  43.711  50.414  1.00  0.00     0.033 C 
BRANCH   9  13
HETATM   13  N4  UNL     1     115.197  46.609  52.568  1.00  0.00    -0.385 N 
ATOM     14  H42 UNL     1     116.088  47.018  52.287  1.00  0.00     0.157 HD
ATOM     15  H41 UNL     1     114.432  47.096  53.035  1.00  0.00     0.157 HD
ENDBRANCH   9  13
ENDBRANCH   2   4
ENDBRANCH   1   2
BRANCH   1  16
HETATM   16  C6  UNL     1     115.070  40.680  47.931  1.00  0.00     0.047 C 
BRANCH  16  17
HETATM   17  C7  UNL     1     115.654  41.569  46.858  1.00  0.00     0.234 C 
BRANCH  17  18
HETATM   18  N2  UNL     1     114.662  42.022  45.906  1.00  0.00    -0.075 N 
ATOM     19  H22 UNL     1     113.946  41.319  45.728  1.00  0.00     0.277 HD
ATOM     20  H21 UNL     1     114.057  42.748  46.291  1.00  0.00     0.277 HD
BRANCH  18  21
HETATM   21  C8  UNL     1     115.329  42.446  44.698  1.00  0.00     0.232 C 
BRANCH  21  22
HETATM   22  C9  UNL     1     116.644  41.753  44.580  1.00  0.00     0.027 C 
BRANCH  22  23
HETATM   23  C10 UNL     1     116.702  40.898  43.366  1.00  0.00     0.002 C 
BRANCH  23  24
HETATM   24  C11 UNL     1     115.396  41.045  42.586  1.00  0.00     0.002 C 
BRANCH  24  25
HETATM   25  C12 UNL     1     115.357  39.993  41.489  1.00  0.00     0.027 C 
BRANCH  25  26
HETATM   26  C13 UNL     1     113.949  39.988  40.914  1.00  0.00     0.229 C 
BRANCH  26  27
HETATM   27  N3  UNL     1     113.065  39.286  41.819  1.00  0.00    -0.079 N 
ATOM     28  H33 UNL     1     113.446  39.226  42.763  1.00  0.00     0.274 HD
ATOM     29  H32 UNL     1     112.227  39.825  42.036  1.00  0.00     0.274 HD
ATOM     30  H31 UNL     1     112.846  38.369  41.431  1.00  0.00     0.274 HD
ENDBRANCH  26  27
ENDBRANCH  25  26
ENDBRANCH  24  25
ENDBRANCH  23  24
ENDBRANCH  22  23
ENDBRANCH  21  22
ENDBRANCH  18  21
ENDBRANCH  17  18
ENDBRANCH  16  17
ENDBRANCH   1  16
TORSDOF 13
ENDMDL
MODEL 5
REMARK VINA RESULT: -6.153850723      0.961      2.041
REMARK  13 active torsions:
REMARK  status: ('A' for Active; 'I' for Inactive)
REMARK    1  A    between atoms: C4_4  and  N1_5 
REMARK    2  A    between atoms: N1_5  and  C5_7 
REMARK    3  A    between atoms: C5_7  and  C6_8 
REMARK    4  A    between atoms: C6_8  and  C7_9 
REMARK    5  A    between atoms: C7_9  and  N2_10 
REMARK    6  A    between atoms: N2_10  and  C8_13 
REMARK    7  A    between atoms: C8_13  and  C9_14 
REMARK    8  A    between atoms: C9_14  and  C10_15 
REMARK    9  A    between atoms: C10_15  and  C11_16 
REMARK   10  A    between atoms: C11_16  and  C12_17 
REMARK   11  A    between atoms: C12_17  and  C13_18 
REMARK   12  A    between atoms: C13_18  and  N3_19 
REMARK   13  A    between atoms: C16_25  and  N4_26 
ROOT
HETATM    1  C5  UNL     1     113.368  42.362  50.071  1.00  0.00     0.121 C 
ENDROOT
BRANCH   1   2
HETATM    2  N1  UNL     1     113.186  43.507  50.935  1.00  0.00    -0.390 N 
ATOM      3  H1  UNL     1     112.515  44.236  50.694  1.00  0.00     0.159 HD
BRANCH   2   4
HETATM    4  C4  UNL     1     113.878  43.591  52.002  1.00  0.00     0.029 C 
HETATM    5  C3  UNL     1     114.237  44.844  52.435  1.00  0.00     0.053 C 
HETATM    6  C2  UNL     1     115.214  45.215  53.371  1.00  0.00     0.009 C 
HETATM    7  C1  UNL     1     115.872  46.531  53.200  1.00  0.00     0.068 C 
HETATM    8  N5  UNL     1     115.630  44.481  54.438  1.00  0.00    -0.347 N 
HETATM    9  C16 UNL     1     115.428  43.162  54.720  1.00  0.00     0.098 C 
ATOM     10  H5  UNL     1     116.176  44.993  55.131  1.00  0.00     0.167 HD
HETATM   11  C15 UNL     1     114.789  42.248  53.911  1.00  0.00     0.050 C 
HETATM   12  C14 UNL     1     114.214  42.403  52.648  1.00  0.00     0.033 C 
BRANCH   9  13
HETATM   13  N4  UNL     1     115.894  42.763  55.864  1.00  0.00    -0.385 N 
ATOM     14  H42 UNL     1     116.908  42.812  55.962  1.00  0.00     0.157 HD
ATOM     15  H41 UNL     1     115.237  42.433  56.572  1.00  0.00     0.157 HD
ENDBRANCH   9  13
ENDBRANCH   2   4
ENDBRANCH   1   2
BRANCH   1  16
HETATM   16  C6  UNL     1     114.638  42.499  49.246  1.00  0.00     0.047 C 
BRANCH  16  17
HETATM   17  C7  UNL     1     115.016  41.115  48.772  1.00  0.00     0.234 C 
BRANCH  17  18
HETATM   18  N2  UNL     1     116.314  41.079  48.131  1.00  0.00    -0.075 N 
ATOM     19  H22 UNL     1     117.037  40.696  48.740  1.00  0.00     0.277 HD
ATOM     20  H21 UNL     1     116.362  40.377  47.393  1.00  0.00     0.277 HD
BRANCH  18  21
HETATM   21  C8  UNL     1     116.640  42.402  47.654  1.00  0.00     0.232 C 
BRANCH  21  22
HETATM   22  C9  UNL     1     117.506  42.302  46.445  1.00  0.00     0.027 C 
BRANCH  22  23
HETATM   23  C10 UNL     1     117.475  40.934  45.865  1.00  0.00     0.002 C 
BRANCH  23  24
HETATM   24  C11 UNL     1     117.374  41.037  44.343  1.00  0.00     0.002 C 
BRANCH  24  25
HETATM   25  C12 UNL     1     116.567  42.275  43.987  1.00  0.00     0.027 C 
BRANCH  25  26
HETATM   26  C13 UNL     1     115.098  41.883  44.008  1.00  0.00     0.229 C 
BRANCH  26  27
HETATM   27  N3  UNL     1     114.346  42.888  44.727  1.00  0.00    -0.079 N 
ATOM     28  H33 UNL     1     113.548  43.231  44.191  1.00  0.00     0.274 HD
ATOM     29  H32 UNL     1     113.832  42.496  45.516  1.00  0.00     0.274 HD
ATOM     30  H31 UNL     1     114.974  43.640  45.010  1.00  0.00     0.274 HD
ENDBRANCH  26  27
ENDBRANCH  25  26
ENDBRANCH  24  25
ENDBRANCH  23  24
ENDBRANCH  22  23
ENDBRANCH  21  22
ENDBRANCH  18  21
ENDBRANCH  17  18
ENDBRANCH  16  17
ENDBRANCH   1  16
TORSDOF 13
ENDMDL
