MODEL 1
REMARK VINA RESULT: -6.390910510      0.000      0.000
REMARK  12 active torsions:
REMARK  status: ('A' for Active; 'I' for Inactive)
REMARK    1  A    between atoms: N1_1  and  C1_4 
REMARK    2  A    between atoms: N2_7  and  C4_8 
REMARK    3  A    between atoms: C4_8  and  C5_9 
REMARK    4  A    between atoms: C5_9  and  N3_10 
REMARK    5  A    between atoms: N3_10  and  C6_12 
REMARK    6  A    between atoms: C6_12  and  C7_13 
REMARK    7  A    between atoms: C7_13  and  C8_14 
REMARK    8  A    between atoms: C8_14  and  N4_15 
REMARK    9  A    between atoms: N4_15  and  C9_18 
REMARK   10  A    between atoms: C9_18  and  C10_19 
REMARK   11  A    between atoms: C10_19  and  C11_20 
REMARK   12  A    between atoms: C11_20  and  N5_21 
ROOT
HETATM    1  C5  UNL     1     114.044  41.533  49.037  1.00  0.00     0.080 C 
ENDROOT
BRANCH   1   2
HETATM    2  C4  UNL     1     114.679  41.614  50.366  1.00  0.00     0.172 C 
BRANCH   2   3
HETATM    3  N2  UNL     1     114.784  42.901  50.979  1.00  0.00    -0.351 N 
HETATM    4  C3  UNL     1     114.840  44.033  50.236  1.00  0.00     0.094 A 
HETATM    5  C2  UNL     1     114.997  45.284  50.754  1.00  0.00     0.047 A 
HETATM    6  C1  UNL     1     115.110  45.461  52.118  1.00  0.00     0.039 A 
HETATM    7  C17 UNL     1     115.051  44.311  52.874  1.00  0.00     0.017 A 
HETATM    8  C12 UNL     1     114.889  43.041  52.296  1.00  0.00     0.047 A 
HETATM    9  C16 UNL     1     115.137  44.454  54.251  1.00  0.00     0.016 A 
HETATM   10  C13 UNL     1     114.823  42.000  53.197  1.00  0.00     0.030 A 
HETATM   11  C14 UNL     1     114.906  42.125  54.563  1.00  0.00     0.002 A 
HETATM   12  C15 UNL     1     115.065  43.378  55.089  1.00  0.00     0.001 A 
BRANCH   6  13
HETATM   13  N1  UNL     1     115.262  46.630  52.644  1.00  0.00    -0.398 N 
ATOM     14  H12 UNL     1     116.107  46.899  53.148  1.00  0.00     0.156 HD
ATOM     15  H11 UNL     1     114.540  47.347  52.581  1.00  0.00     0.156 HD
ENDBRANCH   6  13
ENDBRANCH   2   3
ENDBRANCH   1   2
BRANCH   1  16
HETATM   16  N3  UNL     1     114.729  41.523  47.840  1.00  0.00    -0.381 N 
ATOM     17  H3  UNL     1     114.196  41.663  46.981  1.00  0.00     0.164 HD
BRANCH  16  18
HETATM   18  C6  UNL     1     116.111  41.333  47.737  1.00  0.00     0.062 C 
BRANCH  18  19
HETATM   19  C7  UNL     1     116.900  42.577  47.363  1.00  0.00     0.072 C 
BRANCH  19  20
HETATM   20  C8  UNL     1     117.780  42.161  46.201  1.00  0.00     0.237 C 
BRANCH  20  21
HETATM   21  N4  UNL     1     117.442  40.901  45.624  1.00  0.00    -0.075 N 
ATOM     22  H42 UNL     1     118.136  40.192  45.863  1.00  0.00     0.277 HD
ATOM     23  H41 UNL     1     116.626  40.497  46.084  1.00  0.00     0.277 HD
BRANCH  21  24
HETATM   24  C9  UNL     1     117.246  40.969  44.190  1.00  0.00     0.233 C 
BRANCH  24  25
HETATM   25  C10 UNL     1     116.415  42.179  43.852  1.00  0.00     0.055 C 
BRANCH  25  26
HETATM   26  C11 UNL     1     114.948  41.949  44.165  1.00  0.00     0.231 C 
BRANCH  26  27
HETATM   27  N5  UNL     1     114.309  43.128  44.691  1.00  0.00    -0.079 N 
ATOM     28  H53 UNL     1     113.605  42.884  45.387  1.00  0.00     0.274 HD
ATOM     29  H52 UNL     1     114.948  43.659  45.283  1.00  0.00     0.274 HD
ATOM     30  H51 UNL     1     113.914  43.715  43.956  1.00  0.00     0.274 HD
ENDBRANCH  26  27
ENDBRANCH  25  26
ENDBRANCH  24  25
ENDBRANCH  21  24
ENDBRANCH  20  21
ENDBRANCH  19  20
ENDBRANCH  18  19
ENDBRANCH  16  18
ENDBRANCH   1  16
TORSDOF 12
ENDMDL
MODEL 2
REMARK VINA RESULT: -6.293188813      1.137      1.387
REMARK  12 active torsions:
REMARK  status: ('A' for Active; 'I' for Inactive)
REMARK    1  A    between atoms: N1_1  and  C1_4 
REMARK    2  A    between atoms: N2_7  and  C4_8 
REMARK    3  A    between atoms: C4_8  and  C5_9 
REMARK    4  A    between atoms: C5_9  and  N3_10 
REMARK    5  A    between atoms: N3_10  and  C6_12 
REMARK    6  A    between atoms: C6_12  and  C7_13 
REMARK    7  A    between atoms: C7_13  and  C8_14 
REMARK    8  A    between atoms: C8_14  and  N4_15 
REMARK    9  A    between atoms: N4_15  and  C9_18 
REMARK   10  A    between atoms: C9_18  and  C10_19 
REMARK   11  A    between atoms: C10_19  and  C11_20 
REMARK   12  A    between atoms: C11_20  and  N5_21 
ROOT
HETATM    1  C5  UNL     1     115.130  41.173  48.884  1.00  0.00     0.080 C 
ENDROOT
BRANCH   1   2
HETATM    2  C4  UNL     1     114.769  41.315  50.307  1.00  0.00     0.172 C 
BRANCH   2   3
HETATM    3  N2  UNL     1     114.800  42.626  50.877  1.00  0.00    -0.351 N 
HETATM    4  C3  UNL     1     114.786  43.733  50.098  1.00  0.00     0.094 A 
HETATM    5  C2  UNL     1     114.869  45.008  50.573  1.00  0.00     0.047 A 
HETATM    6  C1  UNL     1     114.977  45.236  51.931  1.00  0.00     0.039 A 
HETATM    7  C17 UNL     1     114.990  44.110  52.724  1.00  0.00     0.017 A 
HETATM    8  C12 UNL     1     114.901  42.815  52.188  1.00  0.00     0.047 A 
HETATM    9  C16 UNL     1     115.073  44.303  54.094  1.00  0.00     0.016 A 
HETATM   10  C13 UNL     1     114.901  41.801  53.123  1.00  0.00     0.030 A 
HETATM   11  C14 UNL     1     114.981  41.976  54.483  1.00  0.00     0.002 A 
HETATM   12  C15 UNL     1     115.068  43.253  54.968  1.00  0.00     0.001 A 
BRANCH   6  13
HETATM   13  N1  UNL     1     115.061  46.429  52.417  1.00  0.00    -0.398 N 
ATOM     14  H12 UNL     1     115.779  47.091  52.124  1.00  0.00     0.156 HD
ATOM     15  H11 UNL     1     114.409  46.769  53.124  1.00  0.00     0.156 HD
ENDBRANCH   6  13
ENDBRANCH   2   3
ENDBRANCH   1   2
BRANCH   1  16
HETATM   16  N3  UNL     1     116.290  40.587  48.423  1.00  0.00    -0.381 N 
ATOM     17  H3  UNL     1     116.673  39.801  48.949  1.00  0.00     0.164 HD
BRANCH  16  18
HETATM   18  C6  UNL     1     116.972  41.009  47.278  1.00  0.00     0.062 C 
BRANCH  18  19
HETATM   19  C7  UNL     1     117.084  42.517  47.120  1.00  0.00     0.072 C 
BRANCH  19  20
HETATM   20  C8  UNL     1     116.713  42.799  45.678  1.00  0.00     0.237 C 
BRANCH  20  21
HETATM   21  N4  UNL     1     115.310  42.883  45.433  1.00  0.00    -0.075 N 
ATOM     22  H42 UNL     1     114.780  42.705  46.287  1.00  0.00     0.277 HD
ATOM     23  H41 UNL     1     115.028  43.848  45.259  1.00  0.00     0.277 HD
BRANCH  21  24
HETATM   24  C9  UNL     1     114.869  42.014  44.360  1.00  0.00     0.233 C 
BRANCH  24  25
HETATM   25  C10 UNL     1     116.047  41.642  43.498  1.00  0.00     0.055 C 
BRANCH  25  26
HETATM   26  C11 UNL     1     115.634  40.727  42.360  1.00  0.00     0.231 C 
BRANCH  26  27
HETATM   27  N5  UNL     1     114.205  40.584  42.265  1.00  0.00    -0.079 N 
ATOM     28  H53 UNL     1     113.953  39.797  41.666  1.00  0.00     0.274 HD
ATOM     29  H52 UNL     1     113.809  40.252  43.145  1.00  0.00     0.274 HD
ATOM     30  H51 UNL     1     113.749  41.443  41.956  1.00  0.00     0.274 HD
ENDBRANCH  26  27
ENDBRANCH  25  26
ENDBRANCH  24  25
ENDBRANCH  21  24
ENDBRANCH  20  21
ENDBRANCH  19  20
ENDBRANCH  18  19
ENDBRANCH  16  18
ENDBRANCH   1  16
TORSDOF 12
ENDMDL
MODEL 3
REMARK VINA RESULT: -6.170029051      1.296      1.621
REMARK  12 active torsions:
REMARK  status: ('A' for Active; 'I' for Inactive)
REMARK    1  A    between atoms: N1_1  and  C1_4 
REMARK    2  A    between atoms: N2_7  and  C4_8 
REMARK    3  A    between atoms: C4_8  and  C5_9 
REMARK    4  A    between atoms: C5_9  and  N3_10 
REMARK    5  A    between atoms: N3_10  and  C6_12 
REMARK    6  A    between atoms: C6_12  and  C7_13 
REMARK    7  A    between atoms: C7_13  and  C8_14 
REMARK    8  A    between atoms: C8_14  and  N4_15 
REMARK    9  A    between atoms: N4_15  and  C9_18 
REMARK   10  A    between atoms: C9_18  and  C10_19 
REMARK   11  A    between atoms: C10_19  and  C11_20 
REMARK   12  A    between atoms: C11_20  and  N5_21 
ROOT
HETATM    1  C5  UNL     1     113.322  42.709  49.643  1.00  0.00     0.080 C 
ENDROOT
BRANCH   1   2
HETATM    2  C4  UNL     1     113.383  42.322  51.065  1.00  0.00     0.172 C 
BRANCH   2   3
HETATM    3  N2  UNL     1     114.069  43.194  51.966  1.00  0.00    -0.351 N 
HETATM    4  C3  UNL     1     113.812  44.524  51.992  1.00  0.00     0.094 A 
HETATM    5  C2  UNL     1     114.467  45.418  52.786  1.00  0.00     0.047 A 
HETATM    6  C1  UNL     1     115.467  44.988  53.635  1.00  0.00     0.039 A 
HETATM    7  C17 UNL     1     115.728  43.635  53.610  1.00  0.00     0.017 A 
HETATM    8  C12 UNL     1     115.025  42.751  52.775  1.00  0.00     0.047 A 
HETATM    9  C16 UNL     1     116.710  43.165  54.469  1.00  0.00     0.016 A 
HETATM   10  C13 UNL     1     115.392  41.428  52.895  1.00  0.00     0.030 A 
HETATM   11  C14 UNL     1     116.362  40.946  53.741  1.00  0.00     0.002 A 
HETATM   12  C15 UNL     1     117.026  41.838  54.538  1.00  0.00     0.001 A 
BRANCH   6  13
HETATM   13  N1  UNL     1     116.112  45.804  54.399  1.00  0.00    -0.398 N 
ATOM     14  H12 UNL     1     116.993  46.235  54.120  1.00  0.00     0.156 HD
ATOM     15  H11 UNL     1     115.769  46.061  55.325  1.00  0.00     0.156 HD
ENDBRANCH   6  13
ENDBRANCH   2   3
ENDBRANCH   1   2
BRANCH   1  16
HETATM   16  N3  UNL     1     114.008  42.077  48.627  1.00  0.00    -0.381 N 
ATOM     17  H3  UNL     1     113.891  42.428  47.677  1.00  0.00     0.164 HD
BRANCH  16  18
HETATM   18  C6  UNL     1     114.854  40.981  48.826  1.00  0.00     0.062 C 
BRANCH  18  19
HETATM   19  C7  UNL     1     116.028  40.898  47.864  1.00  0.00     0.072 C 
BRANCH  19  20
HETATM   20  C8  UNL     1     116.465  42.331  47.637  1.00  0.00     0.237 C 
BRANCH  20  21
HETATM   21  N4  UNL     1     117.429  42.498  46.598  1.00  0.00    -0.075 N 
ATOM     22  H42 UNL     1     117.430  43.458  46.253  1.00  0.00     0.277 HD
ATOM     23  H41 UNL     1     118.377  42.454  46.971  1.00  0.00     0.277 HD
BRANCH  21  24
HETATM   24  C9  UNL     1     117.257  41.558  45.509  1.00  0.00     0.233 C 
BRANCH  24  25
HETATM   25  C10 UNL     1     116.669  42.268  44.318  1.00  0.00     0.055 C 
BRANCH  25  26
HETATM   26  C11 UNL     1     115.184  41.988  44.182  1.00  0.00     0.231 C 
BRANCH  26  27
HETATM   27  N5  UNL     1     114.375  43.064  44.692  1.00  0.00    -0.079 N 
ATOM     28  H53 UNL     1     114.767  43.443  45.553  1.00  0.00     0.274 HD
ATOM     29  H52 UNL     1     114.450  43.892  44.101  1.00  0.00     0.274 HD
ATOM     30  H51 UNL     1     113.400  42.789  44.820  1.00  0.00     0.274 HD
ENDBRANCH  26  27
ENDBRANCH  25  26
ENDBRANCH  24  25
ENDBRANCH  21  24
ENDBRANCH  20  21
ENDBRANCH  19  20
ENDBRANCH  18  19
ENDBRANCH  16  18
ENDBRANCH   1  16
TORSDOF 12
ENDMDL
MODEL 4
REMARK VINA RESULT: -6.099416686      1.463      2.611
REMARK  12 active torsions:
REMARK  status: ('A' for Active; 'I' for Inactive)
REMARK    1  A    between atoms: N1_1  and  C1_4 
REMARK    2  A    between atoms: N2_7  and  C4_8 
REMARK    3  A    between atoms: C4_8  and  C5_9 
REMARK    4  A    between atoms: C5_9  and  N3_10 
REMARK    5  A    between atoms: N3_10  and  C6_12 
REMARK    6  A    between atoms: C6_12  and  C7_13 
REMARK    7  A    between atoms: C7_13  and  C8_14 
REMARK    8  A    between atoms: C8_14  and  N4_15 
REMARK    9  A    between atoms: N4_15  and  C9_18 
REMARK   10  A    between atoms: C9_18  and  C10_19 
REMARK   11  A    between atoms: C10_19  and  C11_20 
REMARK   12  A    between atoms: C11_20  and  N5_21 
ROOT
HETATM    1  C5  UNL     1     113.313  42.704  49.767  1.00  0.00     0.080 C 
ENDROOT
BRANCH   1   2
HETATM    2  C4  UNL     1     113.773  43.787  50.658  1.00  0.00     0.172 C 
BRANCH   2   3
HETATM    3  N2  UNL     1     114.348  43.419  51.914  1.00  0.00    -0.351 N 
HETATM    4  C3  UNL     1     114.220  42.164  52.408  1.00  0.00     0.094 A 
HETATM    5  C2  UNL     1     114.695  41.764  53.621  1.00  0.00     0.047 A 
HETATM    6  C1  UNL     1     115.357  42.660  54.436  1.00  0.00     0.039 A 
HETATM    7  C17 UNL     1     115.489  43.936  53.934  1.00  0.00     0.017 A 
HETATM    8  C12 UNL     1     114.983  44.302  52.676  1.00  0.00     0.047 A 
HETATM    9  C16 UNL     1     116.171  44.856  54.716  1.00  0.00     0.016 A 
HETATM   10  C13 UNL     1     115.227  45.611  52.314  1.00  0.00     0.030 A 
HETATM   11  C14 UNL     1     115.900  46.534  53.077  1.00  0.00     0.002 A 
HETATM   12  C15 UNL     1     116.377  46.140  54.298  1.00  0.00     0.001 A 
BRANCH   6  13
HETATM   13  N1  UNL     1     115.818  42.318  55.592  1.00  0.00    -0.398 N 
ATOM     14  H12 UNL     1     116.785  42.027  55.733  1.00  0.00     0.156 HD
ATOM     15  H11 UNL     1     115.233  42.325  56.428  1.00  0.00     0.156 HD
ENDBRANCH   6  13
ENDBRANCH   2   3
ENDBRANCH   1   2
BRANCH   1  16
HETATM   16  N3  UNL     1     114.041  42.191  48.715  1.00  0.00    -0.381 N 
ATOM     17  H3  UNL     1     114.060  42.718  47.842  1.00  0.00     0.164 HD
BRANCH  16  18
HETATM   18  C6  UNL     1     114.754  40.989  48.777  1.00  0.00     0.062 C 
BRANCH  18  19
HETATM   19  C7  UNL     1     115.969  40.920  47.866  1.00  0.00     0.072 C 
BRANCH  19  20
HETATM   20  C8  UNL     1     116.448  42.350  47.724  1.00  0.00     0.237 C 
BRANCH  20  21
HETATM   21  N4  UNL     1     117.337  42.571  46.630  1.00  0.00    -0.075 N 
ATOM     22  H42 UNL     1     117.241  43.520  46.268  1.00  0.00     0.277 HD
ATOM     23  H41 UNL     1     118.305  42.612  46.949  1.00  0.00     0.277 HD
BRANCH  21  24
HETATM   24  C9  UNL     1     117.183  41.595  45.570  1.00  0.00     0.233 C 
BRANCH  24  25
HETATM   25  C10 UNL     1     116.594  42.261  44.354  1.00  0.00     0.055 C 
BRANCH  25  26
HETATM   26  C11 UNL     1     115.099  42.016  44.257  1.00  0.00     0.231 C 
BRANCH  26  27
HETATM   27  N5  UNL     1     114.330  43.151  44.695  1.00  0.00    -0.079 N 
ATOM     28  H53 UNL     1     114.163  43.116  45.700  1.00  0.00     0.274 HD
ATOM     29  H52 UNL     1     114.881  44.008  44.650  1.00  0.00     0.274 HD
ATOM     30  H51 UNL     1     113.454  43.248  44.179  1.00  0.00     0.274 HD
ENDBRANCH  26  27
ENDBRANCH  25  26
ENDBRANCH  24  25
ENDBRANCH  21  24
ENDBRANCH  20  21
ENDBRANCH  19  20
ENDBRANCH  18  19
ENDBRANCH  16  18
ENDBRANCH   1  16
TORSDOF 12
ENDMDL
MODEL 5
REMARK VINA RESULT: -6.085825647      1.029      1.329
REMARK  12 active torsions:
REMARK  status: ('A' for Active; 'I' for Inactive)
REMARK    1  A    between atoms: N1_1  and  C1_4 
REMARK    2  A    between atoms: N2_7  and  C4_8 
REMARK    3  A    between atoms: C4_8  and  C5_9 
REMARK    4  A    between atoms: C5_9  and  N3_10 
REMARK    5  A    between atoms: N3_10  and  C6_12 
REMARK    6  A    between atoms: C6_12  and  C7_13 
REMARK    7  A    between atoms: C7_13  and  C8_14 
REMARK    8  A    between atoms: C8_14  and  N4_15 
REMARK    9  A    between atoms: N4_15  and  C9_18 
REMARK   10  A    between atoms: C9_18  and  C10_19 
REMARK   11  A    between atoms: C10_19  and  C11_20 
REMARK   12  A    between atoms: C11_20  and  N5_21 
ROOT
HETATM    1  C5  UNL     1     113.539  42.548  50.189  1.00  0.00     0.080 C 
ENDROOT
BRANCH   1   2
HETATM    2  C4  UNL     1     114.532  42.330  51.259  1.00  0.00     0.172 C 
BRANCH   2   3
HETATM    3  N2  UNL     1     114.932  43.459  52.039  1.00  0.00    -0.351 N 
HETATM    4  C3  UNL     1     115.227  44.648  51.459  1.00  0.00     0.094 A 
HETATM    5  C2  UNL     1     115.667  45.745  52.137  1.00  0.00     0.047 A 
HETATM    6  C1  UNL     1     115.838  45.691  53.506  1.00  0.00     0.039 A 
HETATM    7  C17 UNL     1     115.537  44.483  54.097  1.00  0.00     0.017 A 
HETATM    8  C12 UNL     1     115.085  43.379  53.355  1.00  0.00     0.047 A 
HETATM    9  C16 UNL     1     115.674  44.401  55.474  1.00  0.00     0.016 A 
HETATM   10  C13 UNL     1     114.803  42.257  54.105  1.00  0.00     0.030 A 
HETATM   11  C14 UNL     1     114.934  42.159  55.469  1.00  0.00     0.002 A 
HETATM   12  C15 UNL     1     115.377  43.256  56.157  1.00  0.00     0.001 A 
BRANCH   6  13
HETATM   13  N1  UNL     1     116.255  46.709  54.182  1.00  0.00    -0.398 N 
ATOM     14  H12 UNL     1     116.947  46.626  54.927  1.00  0.00     0.156 HD
ATOM     15  H11 UNL     1     115.912  47.652  54.003  1.00  0.00     0.156 HD
ENDBRANCH   6  13
ENDBRANCH   2   3
ENDBRANCH   1   2
BRANCH   1  16
HETATM   16  N3  UNL     1     113.771  42.333  48.847  1.00  0.00    -0.381 N 
ATOM     17  H3  UNL     1     113.262  42.905  48.174  1.00  0.00     0.164 HD
BRANCH  16  18
HETATM   18  C6  UNL     1     114.664  41.375  48.357  1.00  0.00     0.062 C 
BRANCH  18  19
HETATM   19  C7  UNL     1     116.006  41.925  47.902  1.00  0.00     0.072 C 
BRANCH  19  20
HETATM   20  C8  UNL     1     116.765  40.735  47.352  1.00  0.00     0.237 C 
BRANCH  20  21
HETATM   21  N4  UNL     1     117.339  40.944  46.062  1.00  0.00    -0.075 N 
ATOM     22  H42 UNL     1     118.314  40.647  46.045  1.00  0.00     0.277 HD
ATOM     23  H41 UNL     1     116.953  40.290  45.382  1.00  0.00     0.277 HD
BRANCH  21  24
HETATM   24  C9  UNL     1     117.206  42.310  45.598  1.00  0.00     0.233 C 
BRANCH  24  25
HETATM   25  C10 UNL     1     116.630  42.316  44.206  1.00  0.00     0.055 C 
BRANCH  25  26
HETATM   26  C11 UNL     1     115.145  42.006  44.220  1.00  0.00     0.231 C 
BRANCH  26  27
HETATM   27  N5  UNL     1     114.360  43.107  44.713  1.00  0.00    -0.079 N 
ATOM     28  H53 UNL     1     113.450  43.144  44.256  1.00  0.00     0.274 HD
ATOM     29  H52 UNL     1     114.054  42.940  45.672  1.00  0.00     0.274 HD
ATOM     30  H51 UNL     1     114.850  43.999  44.632  1.00  0.00     0.274 HD
ENDBRANCH  26  27
ENDBRANCH  25  26
ENDBRANCH  24  25
ENDBRANCH  21  24
ENDBRANCH  20  21
ENDBRANCH  19  20
ENDBRANCH  18  19
ENDBRANCH  16  18
ENDBRANCH   1  16
TORSDOF 12
ENDMDL
