MODEL 1
REMARK VINA RESULT: -6.643839264      0.000      0.000
REMARK  13 active torsions:
REMARK  status: ('A' for Active; 'I' for Inactive)
REMARK    1  A    between atoms: N1_1  and  C1_5 
REMARK    2  A    between atoms: C1_5  and  C2_6 
REMARK    3  A    between atoms: C2_6  and  C3_7 
REMARK    4  A    between atoms: C3_7  and  C4_8 
REMARK    5  A    between atoms: C4_8  and  C5_9 
REMARK    6  A    between atoms: C5_9  and  N2_10 
REMARK    7  A    between atoms: N2_10  and  C6_13 
REMARK    8  A    between atoms: C6_13  and  C7_14 
REMARK    9  A    between atoms: C7_14  and  C8_15 
REMARK   10  A    between atoms: C8_15  and  C9_16 
REMARK   11  A    between atoms: C9_16  and  N3_17 
REMARK   12  A    between atoms: N3_17  and  C10_20 
REMARK   13  A    between atoms: C16_26  and  N4_27 
ROOT
HETATM    1  C8  UNL     1     114.983  41.316  49.428  1.00  0.00     0.029 C 
ENDROOT
BRANCH   1   2
HETATM    2  C7  UNL     1     114.753  42.794  49.611  1.00  0.00     0.029 C 
BRANCH   2   3
HETATM    3  C6  UNL     1     113.420  43.128  50.197  1.00  0.00     0.232 C 
BRANCH   3   4
HETATM    4  N2  UNL     1     113.477  44.515  50.664  1.00  0.00    -0.075 N 
ATOM      5  H22 UNL     1     112.769  44.699  51.374  1.00  0.00     0.277 HD
ATOM      6  H21 UNL     1     113.153  45.163  49.946  1.00  0.00     0.277 HD
BRANCH   4   7
HETATM    7  C5  UNL     1     114.791  44.861  51.130  1.00  0.00     0.232 C 
BRANCH   7   8
HETATM    8  C4  UNL     1     114.748  45.331  52.589  1.00  0.00     0.027 C 
BRANCH   8   9
HETATM    9  C3  UNL     1     114.735  44.196  53.561  1.00  0.00     0.003 C 
BRANCH   9  10
HETATM   10  C2  UNL     1     115.778  43.192  53.205  1.00  0.00     0.027 C 
BRANCH  10  11
HETATM   11  C1  UNL     1     115.208  41.805  53.244  1.00  0.00     0.229 C 
BRANCH  11  12
HETATM   12  N1  UNL     1     116.203  40.816  52.847  1.00  0.00    -0.079 N 
ATOM     13  H13 UNL     1     116.936  41.231  52.271  1.00  0.00     0.274 HD
ATOM     14  H12 UNL     1     116.775  40.521  53.638  1.00  0.00     0.274 HD
ATOM     15  H11 UNL     1     115.767  40.020  52.381  1.00  0.00     0.274 HD
ENDBRANCH  11  12
ENDBRANCH  10  11
ENDBRANCH   9  10
ENDBRANCH   8   9
ENDBRANCH   7   8
ENDBRANCH   4   7
ENDBRANCH   3   4
ENDBRANCH   2   3
ENDBRANCH   1   2
BRANCH   1  16
HETATM   16  C9  UNL     1     114.448  40.890  48.082  1.00  0.00     0.233 C 
BRANCH  16  17
HETATM   17  N3  UNL     1     114.644  41.942  47.095  1.00  0.00    -0.068 N 
ATOM     18  H32 UNL     1     113.760  42.294  46.727  1.00  0.00     0.277 HD
ATOM     19  H31 UNL     1     114.982  42.807  47.517  1.00  0.00     0.277 HD
BRANCH  17  20
HETATM   20  C10 UNL     1     115.498  41.479  46.074  1.00  0.00     0.224 C 
HETATM   21  C11 UNL     1     116.942  41.827  46.172  1.00  0.00     0.041 C 
HETATM   22  C12 UNL     1     117.669  40.832  45.336  1.00  0.00    -0.023 C 
HETATM   23  C15 UNL     1     116.983  43.037  45.214  1.00  0.00     0.021 C 
HETATM   24  C13 UNL     1     117.318  41.088  44.079  1.00  0.00    -0.023 C 
HETATM   25  C14 UNL     1     116.367  42.238  44.050  1.00  0.00     0.041 C 
HETATM   26  C16 UNL     1     115.036  41.913  44.674  1.00  0.00     0.222 C 
BRANCH  26  27
HETATM   27  N4  UNL     1     114.277  43.146  44.731  1.00  0.00    -0.072 N 
ATOM     28  H43 UNL     1     113.281  42.968  44.861  1.00  0.00     0.274 HD
ATOM     29  H42 UNL     1     114.457  43.658  45.595  1.00  0.00     0.274 HD
ATOM     30  H41 UNL     1     114.450  43.725  43.909  1.00  0.00     0.274 HD
ENDBRANCH  26  27
ENDBRANCH  17  20
ENDBRANCH  16  17
ENDBRANCH   1  16
TORSDOF 13
ENDMDL
MODEL 2
REMARK VINA RESULT: -6.464234784      1.444      1.859
REMARK  13 active torsions:
REMARK  status: ('A' for Active; 'I' for Inactive)
REMARK    1  A    between atoms: N1_1  and  C1_5 
REMARK    2  A    between atoms: C1_5  and  C2_6 
REMARK    3  A    between atoms: C2_6  and  C3_7 
REMARK    4  A    between atoms: C3_7  and  C4_8 
REMARK    5  A    between atoms: C4_8  and  C5_9 
REMARK    6  A    between atoms: C5_9  and  N2_10 
REMARK    7  A    between atoms: N2_10  and  C6_13 
REMARK    8  A    between atoms: C6_13  and  C7_14 
REMARK    9  A    between atoms: C7_14  and  C8_15 
REMARK   10  A    between atoms: C8_15  and  C9_16 
REMARK   11  A    between atoms: C9_16  and  N3_17 
REMARK   12  A    between atoms: N3_17  and  C10_20 
REMARK   13  A    between atoms: C16_26  and  N4_27 
ROOT
HETATM    1  C8  UNL     1     115.168  41.136  49.275  1.00  0.00     0.029 C 
ENDROOT
BRANCH   1   2
HETATM    2  C7  UNL     1     114.908  42.549  49.727  1.00  0.00     0.029 C 
BRANCH   2   3
HETATM    3  C6  UNL     1     113.517  42.777  50.222  1.00  0.00     0.232 C 
BRANCH   3   4
HETATM    4  N2  UNL     1     113.316  44.223  50.328  1.00  0.00    -0.075 N 
ATOM      5  H22 UNL     1     112.433  44.445  50.786  1.00  0.00     0.277 HD
ATOM      6  H21 UNL     1     113.131  44.641  49.416  1.00  0.00     0.277 HD
BRANCH   4   7
HETATM    7  C5  UNL     1     114.423  44.863  50.983  1.00  0.00     0.232 C 
BRANCH   7   8
HETATM    8  C4  UNL     1     114.186  44.951  52.496  1.00  0.00     0.027 C 
BRANCH   8   9
HETATM    9  C3  UNL     1     115.458  44.937  53.281  1.00  0.00     0.003 C 
BRANCH   9  10
HETATM   10  C2  UNL     1     116.626  44.721  52.380  1.00  0.00     0.027 C 
BRANCH  10  11
HETATM   11  C1  UNL     1     117.670  45.774  52.610  1.00  0.00     0.229 C 
BRANCH  11  12
HETATM   12  N1  UNL     1     117.188  47.090  52.205  1.00  0.00    -0.079 N 
ATOM     13  H13 UNL     1     117.785  47.835  52.565  1.00  0.00     0.274 HD
ATOM     14  H12 UNL     1     117.326  47.248  51.207  1.00  0.00     0.274 HD
ATOM     15  H11 UNL     1     116.214  47.225  52.476  1.00  0.00     0.274 HD
ENDBRANCH  11  12
ENDBRANCH  10  11
ENDBRANCH   9  10
ENDBRANCH   8   9
ENDBRANCH   7   8
ENDBRANCH   4   7
ENDBRANCH   3   4
ENDBRANCH   2   3
ENDBRANCH   1   2
BRANCH   1  16
HETATM   16  C9  UNL     1     114.419  40.876  47.990  1.00  0.00     0.233 C 
BRANCH  16  17
HETATM   17  N3  UNL     1     114.658  41.946  47.032  1.00  0.00    -0.068 N 
ATOM     18  H32 UNL     1     113.789  42.344  46.675  1.00  0.00     0.277 HD
ATOM     19  H31 UNL     1     115.031  42.785  47.477  1.00  0.00     0.277 HD
BRANCH  17  20
HETATM   20  C10 UNL     1     115.492  41.476  45.997  1.00  0.00     0.224 C 
HETATM   21  C11 UNL     1     116.946  41.778  46.094  1.00  0.00     0.041 C 
HETATM   22  C12 UNL     1     117.638  40.777  45.235  1.00  0.00    -0.023 C 
HETATM   23  C15 UNL     1     117.019  43.004  45.158  1.00  0.00     0.021 C 
HETATM   24  C13 UNL     1     117.289  41.067  43.985  1.00  0.00    -0.023 C 
HETATM   25  C14 UNL     1     116.373  42.246  43.983  1.00  0.00     0.041 C 
HETATM   26  C16 UNL     1     115.036  41.950  44.608  1.00  0.00     0.222 C 
BRANCH  26  27
HETATM   27  N4  UNL     1     114.315  43.204  44.693  1.00  0.00    -0.072 N 
ATOM     28  H43 UNL     1     114.256  43.539  45.654  1.00  0.00     0.274 HD
ATOM     29  H42 UNL     1     114.851  43.974  44.292  1.00  0.00     0.274 HD
ATOM     30  H41 UNL     1     113.392  43.128  44.265  1.00  0.00     0.274 HD
ENDBRANCH  26  27
ENDBRANCH  17  20
ENDBRANCH  16  17
ENDBRANCH   1  16
TORSDOF 13
ENDMDL
MODEL 3
REMARK VINA RESULT: -6.428378120      1.451      1.566
REMARK  13 active torsions:
REMARK  status: ('A' for Active; 'I' for Inactive)
REMARK    1  A    between atoms: N1_1  and  C1_5 
REMARK    2  A    between atoms: C1_5  and  C2_6 
REMARK    3  A    between atoms: C2_6  and  C3_7 
REMARK    4  A    between atoms: C3_7  and  C4_8 
REMARK    5  A    between atoms: C4_8  and  C5_9 
REMARK    6  A    between atoms: C5_9  and  N2_10 
REMARK    7  A    between atoms: N2_10  and  C6_13 
REMARK    8  A    between atoms: C6_13  and  C7_14 
REMARK    9  A    between atoms: C7_14  and  C8_15 
REMARK   10  A    between atoms: C8_15  and  C9_16 
REMARK   11  A    between atoms: C9_16  and  N3_17 
REMARK   12  A    between atoms: N3_17  and  C10_20 
REMARK   13  A    between atoms: C16_26  and  N4_27 
ROOT
HETATM    1  C8  UNL     1     113.812  41.942  49.477  1.00  0.00     0.029 C 
ENDROOT
BRANCH   1   2
HETATM    2  C7  UNL     1     114.844  42.618  50.343  1.00  0.00     0.029 C 
BRANCH   2   3
HETATM    3  C6  UNL     1     114.835  44.108  50.239  1.00  0.00     0.232 C 
BRANCH   3   4
HETATM    4  N2  UNL     1     113.543  44.579  50.742  1.00  0.00    -0.075 N 
ATOM      5  H22 UNL     1     112.779  43.989  50.416  1.00  0.00     0.277 HD
ATOM      6  H21 UNL     1     113.267  45.455  50.298  1.00  0.00     0.277 HD
BRANCH   4   7
HETATM    7  C5  UNL     1     113.545  44.693  52.174  1.00  0.00     0.232 C 
BRANCH   7   8
HETATM    8  C4  UNL     1     114.677  45.613  52.649  1.00  0.00     0.027 C 
BRANCH   8   9
HETATM    9  C3  UNL     1     115.491  45.007  53.746  1.00  0.00     0.003 C 
BRANCH   9  10
HETATM   10  C2  UNL     1     114.895  43.713  54.184  1.00  0.00     0.027 C 
BRANCH  10  11
HETATM   11  C1  UNL     1     115.249  43.429  55.615  1.00  0.00     0.229 C 
BRANCH  11  12
HETATM   12  N1  UNL     1     114.480  44.271  56.524  1.00  0.00    -0.079 N 
ATOM     13  H13 UNL     1     114.531  43.931  57.484  1.00  0.00     0.274 HD
ATOM     14  H12 UNL     1     114.923  45.180  56.657  1.00  0.00     0.274 HD
ATOM     15  H11 UNL     1     113.515  44.366  56.210  1.00  0.00     0.274 HD
ENDBRANCH  11  12
ENDBRANCH  10  11
ENDBRANCH   9  10
ENDBRANCH   8   9
ENDBRANCH   7   8
ENDBRANCH   4   7
ENDBRANCH   3   4
ENDBRANCH   2   3
ENDBRANCH   1   2
BRANCH   1  16
HETATM   16  C9  UNL     1     114.506  41.189  48.368  1.00  0.00     0.233 C 
BRANCH  16  17
HETATM   17  N3  UNL     1     114.342  41.882  47.098  1.00  0.00    -0.068 N 
ATOM     18  H32 UNL     1     113.401  41.775  46.719  1.00  0.00     0.277 HD
ATOM     19  H31 UNL     1     114.340  42.896  47.210  1.00  0.00     0.277 HD
BRANCH  17  20
HETATM   20  C10 UNL     1     115.332  41.448  46.192  1.00  0.00     0.224 C 
HETATM   21  C11 UNL     1     116.746  41.801  46.496  1.00  0.00     0.041 C 
HETATM   22  C12 UNL     1     117.589  40.830  45.744  1.00  0.00    -0.023 C 
HETATM   23  C15 UNL     1     116.907  43.034  45.581  1.00  0.00     0.021 C 
HETATM   24  C13 UNL     1     117.411  41.115  44.457  1.00  0.00    -0.023 C 
HETATM   25  C14 UNL     1     116.463  42.260  44.325  1.00  0.00     0.041 C 
HETATM   26  C16 UNL     1     115.063  41.914  44.753  1.00  0.00     0.222 C 
BRANCH  26  27
HETATM   27  N4  UNL     1     114.292  43.142  44.735  1.00  0.00    -0.072 N 
ATOM     28  H43 UNL     1     113.431  43.036  44.198  1.00  0.00     0.274 HD
ATOM     29  H42 UNL     1     113.884  43.342  45.647  1.00  0.00     0.274 HD
ATOM     30  H41 UNL     1     114.852  43.923  44.394  1.00  0.00     0.274 HD
ENDBRANCH  26  27
ENDBRANCH  17  20
ENDBRANCH  16  17
ENDBRANCH   1  16
TORSDOF 13
ENDMDL
MODEL 4
REMARK VINA RESULT: -6.288715710      0.889      2.053
REMARK  13 active torsions:
REMARK  status: ('A' for Active; 'I' for Inactive)
REMARK    1  A    between atoms: N1_1  and  C1_5 
REMARK    2  A    between atoms: C1_5  and  C2_6 
REMARK    3  A    between atoms: C2_6  and  C3_7 
REMARK    4  A    between atoms: C3_7  and  C4_8 
REMARK    5  A    between atoms: C4_8  and  C5_9 
REMARK    6  A    between atoms: C5_9  and  N2_10 
REMARK    7  A    between atoms: N2_10  and  C6_13 
REMARK    8  A    between atoms: C6_13  and  C7_14 
REMARK    9  A    between atoms: C7_14  and  C8_15 
REMARK   10  A    between atoms: C8_15  and  C9_16 
REMARK   11  A    between atoms: C9_16  and  N3_17 
REMARK   12  A    between atoms: N3_17  and  C10_20 
REMARK   13  A    between atoms: C16_26  and  N4_27 
ROOT
HETATM    1  C8  UNL     1     114.796  42.205  49.486  1.00  0.00     0.029 C 
ENDROOT
BRANCH   1   2
HETATM    2  C7  UNL     1     113.444  42.560  50.050  1.00  0.00     0.029 C 
BRANCH   2   3
HETATM    3  C6  UNL     1     113.319  42.309  51.518  1.00  0.00     0.232 C 
BRANCH   3   4
HETATM    4  N2  UNL     1     114.650  41.964  52.022  1.00  0.00    -0.075 N 
ATOM      5  H22 UNL     1     115.376  42.511  51.562  1.00  0.00     0.277 HD
ATOM      6  H21 UNL     1     114.934  41.034  51.715  1.00  0.00     0.277 HD
BRANCH   4   7
HETATM    7  C5  UNL     1     114.722  42.091  53.451  1.00  0.00     0.232 C 
BRANCH   7   8
HETATM    8  C4  UNL     1     115.563  43.310  53.849  1.00  0.00     0.027 C 
BRANCH   8   9
HETATM    9  C3  UNL     1     114.756  44.566  53.936  1.00  0.00     0.003 C 
BRANCH   9  10
HETATM   10  C2  UNL     1     115.465  45.690  53.261  1.00  0.00     0.027 C 
BRANCH  10  11
HETATM   11  C1  UNL     1     115.945  45.268  51.904  1.00  0.00     0.229 C 
BRANCH  11  12
HETATM   12  N1  UNL     1     114.970  45.604  50.873  1.00  0.00    -0.079 N 
ATOM     13  H13 UNL     1     114.381  46.388  51.154  1.00  0.00     0.274 HD
ATOM     14  H12 UNL     1     115.414  46.027  50.059  1.00  0.00     0.274 HD
ATOM     15  H11 UNL     1     114.411  44.790  50.615  1.00  0.00     0.274 HD
ENDBRANCH  11  12
ENDBRANCH  10  11
ENDBRANCH   9  10
ENDBRANCH   8   9
ENDBRANCH   7   8
ENDBRANCH   4   7
ENDBRANCH   3   4
ENDBRANCH   2   3
ENDBRANCH   1   2
BRANCH   1  16
HETATM   16  C9  UNL     1     114.624  41.209  48.366  1.00  0.00     0.233 C 
BRANCH  16  17
HETATM   17  N3  UNL     1     114.414  41.894  47.098  1.00  0.00    -0.068 N 
ATOM     18  H32 UNL     1     113.461  41.780  46.752  1.00  0.00     0.277 HD
ATOM     19  H31 UNL     1     114.411  42.908  47.205  1.00  0.00     0.277 HD
BRANCH  17  20
HETATM   20  C10 UNL     1     115.375  41.460  46.162  1.00  0.00     0.224 C 
HETATM   21  C11 UNL     1     116.796  41.827  46.412  1.00  0.00     0.041 C 
HETATM   22  C12 UNL     1     117.620  40.856  45.639  1.00  0.00    -0.023 C 
HETATM   23  C15 UNL     1     116.915  43.053  45.483  1.00  0.00     0.021 C 
HETATM   24  C13 UNL     1     117.394  41.129  44.357  1.00  0.00    -0.023 C 
HETATM   25  C14 UNL     1     116.433  42.266  44.250  1.00  0.00     0.041 C 
HETATM   26  C16 UNL     1     115.051  41.912  44.729  1.00  0.00     0.222 C 
BRANCH  26  27
HETATM   27  N4  UNL     1     114.270  43.133  44.728  1.00  0.00    -0.072 N 
ATOM     28  H43 UNL     1     113.287  42.950  44.931  1.00  0.00     0.274 HD
ATOM     29  H42 UNL     1     114.489  43.719  45.534  1.00  0.00     0.274 HD
ATOM     30  H41 UNL     1     114.384  43.642  43.851  1.00  0.00     0.274 HD
ENDBRANCH  26  27
ENDBRANCH  17  20
ENDBRANCH  16  17
ENDBRANCH   1  16
TORSDOF 13
ENDMDL
MODEL 5
REMARK VINA RESULT: -6.196185689      1.468      7.176
REMARK  13 active torsions:
REMARK  status: ('A' for Active; 'I' for Inactive)
REMARK    1  A    between atoms: N1_1  and  C1_5 
REMARK    2  A    between atoms: C1_5  and  C2_6 
REMARK    3  A    between atoms: C2_6  and  C3_7 
REMARK    4  A    between atoms: C3_7  and  C4_8 
REMARK    5  A    between atoms: C4_8  and  C5_9 
REMARK    6  A    between atoms: C5_9  and  N2_10 
REMARK    7  A    between atoms: N2_10  and  C6_13 
REMARK    8  A    between atoms: C6_13  and  C7_14 
REMARK    9  A    between atoms: C7_14  and  C8_15 
REMARK   10  A    between atoms: C8_15  and  C9_16 
REMARK   11  A    between atoms: C9_16  and  N3_17 
REMARK   12  A    between atoms: N3_17  and  C10_20 
REMARK   13  A    between atoms: C16_26  and  N4_27 
ROOT
HETATM    1  C8  UNL     1     114.697  41.998  49.429  1.00  0.00     0.029 C 
ENDROOT
BRANCH   1   2
HETATM    2  C7  UNL     1     114.437  41.277  48.131  1.00  0.00     0.029 C 
BRANCH   2   3
HETATM    3  C6  UNL     1     115.398  40.166  47.857  1.00  0.00     0.232 C 
BRANCH   3   4
HETATM    4  N2  UNL     1     116.750  40.727  47.918  1.00  0.00    -0.075 N 
ATOM      5  H22 UNL     1     117.305  40.281  48.649  1.00  0.00     0.277 HD
ATOM      6  H21 UNL     1     116.742  41.678  48.284  1.00  0.00     0.277 HD
BRANCH   4   7
HETATM    7  C5  UNL     1     117.408  40.659  46.644  1.00  0.00     0.232 C 
BRANCH   7   8
HETATM    8  C4  UNL     1     117.945  42.034  46.231  1.00  0.00     0.027 C 
BRANCH   8   9
HETATM    9  C3  UNL     1     116.912  42.879  45.557  1.00  0.00     0.003 C 
BRANCH   9  10
HETATM   10  C2  UNL     1     116.539  42.293  44.238  1.00  0.00     0.027 C 
BRANCH  10  11
HETATM   11  C1  UNL     1     115.064  42.021  44.182  1.00  0.00     0.229 C 
BRANCH  11  12
HETATM   12  N1  UNL     1     114.301  43.148  44.704  1.00  0.00    -0.079 N 
ATOM     13  H13 UNL     1     114.805  44.028  44.590  1.00  0.00     0.274 HD
ATOM     14  H12 UNL     1     113.492  43.356  44.119  1.00  0.00     0.274 HD
ATOM     15  H11 UNL     1     114.032  42.993  45.675  1.00  0.00     0.274 HD
ENDBRANCH  11  12
ENDBRANCH  10  11
ENDBRANCH   9  10
ENDBRANCH   8   9
ENDBRANCH   7   8
ENDBRANCH   4   7
ENDBRANCH   3   4
ENDBRANCH   2   3
ENDBRANCH   1   2
BRANCH   1  16
HETATM   16  C9  UNL     1     113.439  42.709  49.866  1.00  0.00     0.233 C 
BRANCH  16  17
HETATM   17  N3  UNL     1     113.760  43.821  50.749  1.00  0.00    -0.068 N 
ATOM     18  H32 UNL     1     113.938  44.683  50.234  1.00  0.00     0.277 HD
ATOM     19  H31 UNL     1     112.948  44.135  51.283  1.00  0.00     0.277 HD
BRANCH  17  20
HETATM   20  C10 UNL     1     114.840  43.467  51.582  1.00  0.00     0.224 C 
HETATM   21  C11 UNL     1     114.525  43.015  52.965  1.00  0.00     0.041 C 
HETATM   22  C12 UNL     1     115.704  42.229  53.426  1.00  0.00    -0.023 C 
HETATM   23  C15 UNL     1     114.784  44.329  53.732  1.00  0.00     0.021 C 
HETATM   24  C13 UNL     1     116.698  43.104  53.547  1.00  0.00    -0.023 C 
HETATM   25  C14 UNL     1     116.214  44.466  53.176  1.00  0.00     0.041 C 
HETATM   26  C16 UNL     1     115.880  44.591  51.714  1.00  0.00     0.222 C 
BRANCH  26  27
HETATM   27  N4  UNL     1     115.271  45.893  51.522  1.00  0.00    -0.072 N 
ATOM     28  H43 UNL     1     115.970  46.636  51.515  1.00  0.00     0.274 HD
ATOM     29  H42 UNL     1     114.916  46.005  50.573  1.00  0.00     0.274 HD
ATOM     30  H41 UNL     1     114.546  46.066  52.217  1.00  0.00     0.274 HD
ENDBRANCH  26  27
ENDBRANCH  17  20
ENDBRANCH  16  17
ENDBRANCH   1  16
TORSDOF 13
ENDMDL
