MODEL 1
REMARK VINA RESULT: -6.343552347      0.000      0.000
REMARK  10 active torsions:
REMARK  status: ('A' for Active; 'I' for Inactive)
REMARK    1  A    between atoms: C2_2  and  C3_3 
REMARK    2  A    between atoms: C3_3  and  C4_4 
REMARK    3  A    between atoms: C4_4  and  C5_5 
REMARK    4  A    between atoms: C5_5  and  C6_6 
REMARK    5  A    between atoms: C6_6  and  N1_7 
REMARK    6  A    between atoms: C10_16  and  C11_17 
REMARK    7  A    between atoms: C11_17  and  C12_18 
REMARK    8  A    between atoms: C12_18  and  N4_19 
REMARK    9  A    between atoms: N4_19  and  C13_22 
REMARK   10  A    between atoms: C13_22  and  C14_23 
ROOT
HETATM    1  N1  UNL     1     115.015  42.534  51.905  1.00  0.00     0.102 N 
HETATM    2  C7  UNL     1     114.759  43.853  52.378  1.00  0.00     0.293 C 
HETATM    3  C8  UNL     1     115.138  44.838  51.294  1.00  0.00     0.151 C 
HETATM    4  N2  UNL     1     114.139  44.640  50.232  1.00  0.00    -0.377 N 
ATOM      5  H2  UNL     1     113.841  45.396  49.614  1.00  0.00     0.160 HD
HETATM    6  C9  UNL     1     113.625  43.331  50.128  1.00  0.00     0.104 C 
HETATM    7  N3  UNL     1     112.494  43.131  49.572  1.00  0.00    -0.387 N 
ATOM      8  H31 UNL     1     112.122  42.184  49.497  1.00  0.00     0.157 HD
ATOM      9  H32 UNL     1     111.957  43.915  49.204  1.00  0.00     0.157 HD
HETATM   10  C10 UNL     1     114.402  42.195  50.662  1.00  0.00     0.290 C 
ENDROOT
BRANCH  10  11
HETATM   11  C11 UNL     1     115.492  41.911  49.654  1.00  0.00     0.071 C 
BRANCH  11  12
HETATM   12  C12 UNL     1     115.125  40.868  48.638  1.00  0.00     0.235 C 
BRANCH  12  13
HETATM   13  N4  UNL     1     114.886  41.564  47.373  1.00  0.00    -0.075 N 
ATOM     14  H42 UNL     1     114.356  40.992  46.717  1.00  0.00     0.277 HD
ATOM     15  H41 UNL     1     114.219  42.329  47.478  1.00  0.00     0.277 HD
BRANCH  13  16
HETATM   16  C13 UNL     1     116.131  42.009  46.813  1.00  0.00     0.240 C 
BRANCH  16  17
HETATM   17  C14 UNL     1     116.053  42.441  45.397  1.00  0.00     0.062 C 
HETATM   18  C15 UNL     1     116.709  41.613  44.351  1.00  0.00     0.240 C 
HETATM   19  N5  UNL     1     115.570  41.843  43.482  1.00  0.00    -0.074 N 
HETATM   20  C16 UNL     1     114.786  42.175  44.657  1.00  0.00     0.240 C 
ATOM     21  H52 UNL     1     115.637  42.494  42.701  1.00  0.00     0.277 HD
ATOM     22  H51 UNL     1     115.256  41.120  42.835  1.00  0.00     0.277 HD
ENDBRANCH  16  17
ENDBRANCH  13  16
ENDBRANCH  12  13
ENDBRANCH  11  12
ENDBRANCH  10  11
BRANCH   1  23
HETATM   23  C6  UNL     1     114.899  41.516  52.917  1.00  0.00     0.273 C 
BRANCH  23  24
HETATM   24  C5  UNL     1     116.210  41.199  53.601  1.00  0.00     0.030 C 
BRANCH  24  25
HETATM   25  C4  UNL     1     116.628  39.820  53.135  1.00  0.00     0.002 C 
BRANCH  25  26
HETATM   26  C3  UNL     1     116.251  38.755  54.139  1.00  0.00    -0.000 C 
BRANCH  26  27
HETATM   27  C2  UNL     1     117.413  38.446  55.055  1.00  0.00    -0.005 C 
HETATM   28  C1  UNL     1     116.994  38.717  56.483  1.00  0.00     0.005 C 
ENDBRANCH  26  27
ENDBRANCH  25  26
ENDBRANCH  24  25
ENDBRANCH  23  24
ENDBRANCH   1  23
TORSDOF 10
ENDMDL
MODEL 2
REMARK VINA RESULT: -6.290375074      1.104      1.446
REMARK  10 active torsions:
REMARK  status: ('A' for Active; 'I' for Inactive)
REMARK    1  A    between atoms: C2_2  and  C3_3 
REMARK    2  A    between atoms: C3_3  and  C4_4 
REMARK    3  A    between atoms: C4_4  and  C5_5 
REMARK    4  A    between atoms: C5_5  and  C6_6 
REMARK    5  A    between atoms: C6_6  and  N1_7 
REMARK    6  A    between atoms: C10_16  and  C11_17 
REMARK    7  A    between atoms: C11_17  and  C12_18 
REMARK    8  A    between atoms: C12_18  and  N4_19 
REMARK    9  A    between atoms: N4_19  and  C13_22 
REMARK   10  A    between atoms: C13_22  and  C14_23 
ROOT
HETATM    1  N1  UNL     1     114.915  42.584  51.990  1.00  0.00     0.102 N 
HETATM    2  C7  UNL     1     114.617  43.908  52.423  1.00  0.00     0.293 C 
HETATM    3  C8  UNL     1     115.028  44.876  51.335  1.00  0.00     0.151 C 
HETATM    4  N2  UNL     1     114.081  44.639  50.234  1.00  0.00    -0.377 N 
ATOM      5  H2  UNL     1     113.798  45.376  49.587  1.00  0.00     0.160 HD
HETATM    6  C9  UNL     1     113.593  43.319  50.136  1.00  0.00     0.104 C 
HETATM    7  N3  UNL     1     112.492  43.088  49.536  1.00  0.00    -0.387 N 
ATOM      8  H31 UNL     1     112.138  42.133  49.465  1.00  0.00     0.157 HD
ATOM      9  H32 UNL     1     111.959  43.855  49.127  1.00  0.00     0.157 HD
HETATM   10  C10 UNL     1     114.364  42.208  50.729  1.00  0.00     0.290 C 
ENDROOT
BRANCH  10  11
HETATM   11  C11 UNL     1     115.502  41.922  49.777  1.00  0.00     0.071 C 
BRANCH  11  12
HETATM   12  C12 UNL     1     115.123  41.037  48.624  1.00  0.00     0.235 C 
BRANCH  12  13
HETATM   13  N4  UNL     1     115.218  41.848  47.409  1.00  0.00    -0.075 N 
ATOM     14  H42 UNL     1     114.999  41.308  46.572  1.00  0.00     0.277 HD
ATOM     15  H41 UNL     1     114.464  42.532  47.348  1.00  0.00     0.277 HD
BRANCH  13  16
HETATM   16  C13 UNL     1     116.512  42.464  47.328  1.00  0.00     0.240 C 
BRANCH  16  17
HETATM   17  C14 UNL     1     117.202  42.284  46.029  1.00  0.00     0.062 C 
HETATM   18  C15 UNL     1     117.523  40.909  45.565  1.00  0.00     0.240 C 
HETATM   19  N5  UNL     1     117.145  41.295  44.218  1.00  0.00    -0.074 N 
HETATM   20  C16 UNL     1     116.387  42.394  44.785  1.00  0.00     0.240 C 
ATOM     21  H52 UNL     1     117.857  41.467  43.509  1.00  0.00     0.277 HD
ATOM     22  H51 UNL     1     116.700  40.626  43.591  1.00  0.00     0.277 HD
ENDBRANCH  16  17
ENDBRANCH  13  16
ENDBRANCH  12  13
ENDBRANCH  11  12
ENDBRANCH  10  11
BRANCH   1  23
HETATM   23  C6  UNL     1     114.770  41.586  53.018  1.00  0.00     0.273 C 
BRANCH  23  24
HETATM   24  C5  UNL     1     116.065  41.272  53.734  1.00  0.00     0.030 C 
BRANCH  24  25
HETATM   25  C4  UNL     1     116.198  39.764  53.763  1.00  0.00     0.002 C 
BRANCH  25  26
HETATM   26  C3  UNL     1     117.373  39.292  52.939  1.00  0.00    -0.000 C 
BRANCH  26  27
HETATM   27  C2  UNL     1     118.676  39.766  53.544  1.00  0.00    -0.005 C 
HETATM   28  C1  UNL     1     119.808  39.400  52.610  1.00  0.00     0.005 C 
ENDBRANCH  26  27
ENDBRANCH  25  26
ENDBRANCH  24  25
ENDBRANCH  23  24
ENDBRANCH   1  23
TORSDOF 10
ENDMDL
MODEL 3
REMARK VINA RESULT: -6.073103766      1.240      2.110
REMARK  10 active torsions:
REMARK  status: ('A' for Active; 'I' for Inactive)
REMARK    1  A    between atoms: C2_2  and  C3_3 
REMARK    2  A    between atoms: C3_3  and  C4_4 
REMARK    3  A    between atoms: C4_4  and  C5_5 
REMARK    4  A    between atoms: C5_5  and  C6_6 
REMARK    5  A    between atoms: C6_6  and  N1_7 
REMARK    6  A    between atoms: C10_16  and  C11_17 
REMARK    7  A    between atoms: C11_17  and  C12_18 
REMARK    8  A    between atoms: C12_18  and  N4_19 
REMARK    9  A    between atoms: N4_19  and  C13_22 
REMARK   10  A    between atoms: C13_22  and  C14_23 
ROOT
HETATM    1  N1  UNL     1     114.983  42.588  51.921  1.00  0.00     0.102 N 
HETATM    2  C7  UNL     1     114.693  43.903  52.385  1.00  0.00     0.293 C 
HETATM    3  C8  UNL     1     115.070  44.891  51.303  1.00  0.00     0.151 C 
HETATM    4  N2  UNL     1     114.093  44.669  50.225  1.00  0.00    -0.377 N 
ATOM      5  H2  UNL     1     113.790  45.416  49.599  1.00  0.00     0.160 HD
HETATM    6  C9  UNL     1     113.607  43.349  50.118  1.00  0.00     0.104 C 
HETATM    7  N3  UNL     1     112.490  43.124  49.545  1.00  0.00    -0.387 N 
ATOM      8  H31 UNL     1     112.138  42.169  49.468  1.00  0.00     0.157 HD
ATOM      9  H32 UNL     1     111.943  43.896  49.164  1.00  0.00     0.157 HD
HETATM   10  C10 UNL     1     114.398  42.231  50.670  1.00  0.00     0.290 C 
ENDROOT
BRANCH  10  11
HETATM   11  C11 UNL     1     115.510  41.966  49.681  1.00  0.00     0.071 C 
BRANCH  11  12
HETATM   12  C12 UNL     1     115.180  40.913  48.662  1.00  0.00     0.235 C 
BRANCH  12  13
HETATM   13  N4  UNL     1     114.928  41.602  47.397  1.00  0.00    -0.075 N 
ATOM     14  H42 UNL     1     114.348  41.047  46.769  1.00  0.00     0.277 HD
ATOM     15  H41 UNL     1     114.302  42.399  47.514  1.00  0.00     0.277 HD
BRANCH  13  16
HETATM   16  C13 UNL     1     116.171  41.980  46.786  1.00  0.00     0.240 C 
BRANCH  16  17
HETATM   17  C14 UNL     1     116.056  42.430  45.378  1.00  0.00     0.062 C 
HETATM   18  C15 UNL     1     116.712  41.633  44.309  1.00  0.00     0.240 C 
HETATM   19  N5  UNL     1     115.552  41.847  43.463  1.00  0.00    -0.074 N 
HETATM   20  C16 UNL     1     114.782  42.144  44.657  1.00  0.00     0.240 C 
ATOM     21  H52 UNL     1     115.589  42.511  42.690  1.00  0.00     0.277 HD
ATOM     22  H51 UNL     1     115.244  41.126  42.812  1.00  0.00     0.277 HD
ENDBRANCH  16  17
ENDBRANCH  13  16
ENDBRANCH  12  13
ENDBRANCH  11  12
ENDBRANCH  10  11
BRANCH   1  23
HETATM   23  C6  UNL     1     114.871  41.572  52.935  1.00  0.00     0.273 C 
BRANCH  23  24
HETATM   24  C5  UNL     1     115.535  41.952  54.240  1.00  0.00     0.030 C 
BRANCH  24  25
HETATM   25  C4  UNL     1     116.906  41.308  54.240  1.00  0.00     0.002 C 
BRANCH  25  26
HETATM   26  C3  UNL     1     118.003  42.333  54.070  1.00  0.00    -0.000 C 
BRANCH  26  27
HETATM   27  C2  UNL     1     117.590  43.662  54.660  1.00  0.00    -0.005 C 
HETATM   28  C1  UNL     1     118.096  44.771  53.764  1.00  0.00     0.005 C 
ENDBRANCH  26  27
ENDBRANCH  25  26
ENDBRANCH  24  25
ENDBRANCH  23  24
ENDBRANCH   1  23
TORSDOF 10
ENDMDL
MODEL 4
REMARK VINA RESULT: -6.052941941      1.654      1.938
REMARK  10 active torsions:
REMARK  status: ('A' for Active; 'I' for Inactive)
REMARK    1  A    between atoms: C2_2  and  C3_3 
REMARK    2  A    between atoms: C3_3  and  C4_4 
REMARK    3  A    between atoms: C4_4  and  C5_5 
REMARK    4  A    between atoms: C5_5  and  C6_6 
REMARK    5  A    between atoms: C6_6  and  N1_7 
REMARK    6  A    between atoms: C10_16  and  C11_17 
REMARK    7  A    between atoms: C11_17  and  C12_18 
REMARK    8  A    between atoms: C12_18  and  N4_19 
REMARK    9  A    between atoms: N4_19  and  C13_22 
REMARK   10  A    between atoms: C13_22  and  C14_23 
ROOT
HETATM    1  N1  UNL     1     115.103  42.647  51.864  1.00  0.00     0.102 N 
HETATM    2  C7  UNL     1     114.732  43.919  52.385  1.00  0.00     0.293 C 
HETATM    3  C8  UNL     1     115.002  44.971  51.332  1.00  0.00     0.151 C 
HETATM    4  N2  UNL     1     114.010  44.716  50.275  1.00  0.00    -0.377 N 
ATOM      5  H2  UNL     1     113.633  45.461  49.687  1.00  0.00     0.160 HD
HETATM    6  C9  UNL     1     113.619  43.369  50.131  1.00  0.00     0.104 C 
HETATM    7  N3  UNL     1     112.504  43.082  49.582  1.00  0.00    -0.387 N 
ATOM      8  H31 UNL     1     112.220  42.108  49.479  1.00  0.00     0.157 HD
ATOM      9  H32 UNL     1     111.890  43.825  49.247  1.00  0.00     0.157 HD
HETATM   10  C10 UNL     1     114.507  42.293  50.617  1.00  0.00     0.290 C 
ENDROOT
BRANCH  10  11
HETATM   11  C11 UNL     1     115.603  42.147  49.587  1.00  0.00     0.071 C 
BRANCH  11  12
HETATM   12  C12 UNL     1     115.260  41.214  48.461  1.00  0.00     0.235 C 
BRANCH  12  13
HETATM   13  N4  UNL     1     115.341  41.986  47.222  1.00  0.00    -0.075 N 
ATOM     14  H42 UNL     1     115.089  41.428  46.407  1.00  0.00     0.277 HD
ATOM     15  H41 UNL     1     114.601  42.685  47.159  1.00  0.00     0.277 HD
BRANCH  13  16
HETATM   16  C13 UNL     1     116.645  42.572  47.090  1.00  0.00     0.240 C 
BRANCH  16  17
HETATM   17  C14 UNL     1     117.355  42.224  45.835  1.00  0.00     0.062 C 
HETATM   18  C15 UNL     1     117.596  40.794  45.512  1.00  0.00     0.240 C 
HETATM   19  N5  UNL     1     117.278  41.073  44.124  1.00  0.00    -0.074 N 
HETATM   20  C16 UNL     1     116.579  42.267  44.562  1.00  0.00     0.240 C 
ATOM     21  H52 UNL     1     118.017  41.131  43.424  1.00  0.00     0.277 HD
ATOM     22  H51 UNL     1     116.805  40.376  43.549  1.00  0.00     0.277 HD
ENDBRANCH  16  17
ENDBRANCH  13  16
ENDBRANCH  12  13
ENDBRANCH  11  12
ENDBRANCH  10  11
BRANCH   1  23
HETATM   23  C6  UNL     1     115.097  41.589  52.841  1.00  0.00     0.273 C 
BRANCH  23  24
HETATM   24  C5  UNL     1     115.143  42.092  54.267  1.00  0.00     0.030 C 
BRANCH  24  25
HETATM   25  C4  UNL     1     115.962  41.094  55.059  1.00  0.00     0.002 C 
BRANCH  25  26
HETATM   26  C3  UNL     1     115.711  41.221  56.543  1.00  0.00    -0.000 C 
BRANCH  26  27
HETATM   27  C2  UNL     1     114.485  42.065  56.809  1.00  0.00    -0.005 C 
HETATM   28  C1  UNL     1     113.727  41.469  57.975  1.00  0.00     0.005 C 
ENDBRANCH  26  27
ENDBRANCH  25  26
ENDBRANCH  24  25
ENDBRANCH  23  24
ENDBRANCH   1  23
TORSDOF 10
ENDMDL
MODEL 5
REMARK VINA RESULT: -5.684334254      2.062      3.342
REMARK  10 active torsions:
REMARK  status: ('A' for Active; 'I' for Inactive)
REMARK    1  A    between atoms: C2_2  and  C3_3 
REMARK    2  A    between atoms: C3_3  and  C4_4 
REMARK    3  A    between atoms: C4_4  and  C5_5 
REMARK    4  A    between atoms: C5_5  and  C6_6 
REMARK    5  A    between atoms: C6_6  and  N1_7 
REMARK    6  A    between atoms: C10_16  and  C11_17 
REMARK    7  A    between atoms: C11_17  and  C12_18 
REMARK    8  A    between atoms: C12_18  and  N4_19 
REMARK    9  A    between atoms: N4_19  and  C13_22 
REMARK   10  A    between atoms: C13_22  and  C14_23 
ROOT
HETATM    1  N1  UNL     1     115.520  43.370  52.601  1.00  0.00     0.102 N 
HETATM    2  C7  UNL     1     114.767  44.257  53.422  1.00  0.00     0.293 C 
HETATM    3  C8  UNL     1     114.166  45.334  52.546  1.00  0.00     0.151 C 
HETATM    4  N2  UNL     1     113.146  44.645  51.739  1.00  0.00    -0.377 N 
ATOM      5  H2  UNL     1     112.301  45.112  51.409  1.00  0.00     0.160 HD
HETATM    6  C9  UNL     1     113.422  43.291  51.452  1.00  0.00     0.104 C 
HETATM    7  N3  UNL     1     112.472  42.495  51.153  1.00  0.00    -0.387 N 
ATOM      8  H31 UNL     1     112.671  41.516  50.946  1.00  0.00     0.157 HD
ATOM      9  H32 UNL     1     111.510  42.832  51.122  1.00  0.00     0.157 HD
HETATM   10  C10 UNL     1     114.815  42.803  51.497  1.00  0.00     0.290 C 
ENDROOT
BRANCH  10  11
HETATM   11  C11 UNL     1     115.473  43.270  50.220  1.00  0.00     0.071 C 
BRANCH  11  12
HETATM   12  C12 UNL     1     115.318  42.315  49.071  1.00  0.00     0.235 C 
BRANCH  12  13
HETATM   13  N4  UNL     1     116.264  42.730  48.035  1.00  0.00    -0.075 N 
ATOM     14  H42 UNL     1     116.077  43.676  47.705  1.00  0.00     0.277 HD
ATOM     15  H41 UNL     1     117.199  42.884  48.412  1.00  0.00     0.277 HD
BRANCH  13  16
HETATM   16  C13 UNL     1     116.268  41.777  46.961  1.00  0.00     0.240 C 
BRANCH  16  17
HETATM   17  C14 UNL     1     116.059  42.361  45.615  1.00  0.00     0.062 C 
HETATM   18  C15 UNL     1     116.692  41.712  44.438  1.00  0.00     0.240 C 
HETATM   19  N5  UNL     1     115.481  41.953  43.676  1.00  0.00    -0.074 N 
HETATM   20  C16 UNL     1     114.763  42.088  44.930  1.00  0.00     0.240 C 
ATOM     21  H52 UNL     1     115.448  42.693  42.976  1.00  0.00     0.277 HD
ATOM     22  H51 UNL     1     115.171  41.287  42.969  1.00  0.00     0.277 HD
ENDBRANCH  16  17
ENDBRANCH  13  16
ENDBRANCH  12  13
ENDBRANCH  11  12
ENDBRANCH  10  11
BRANCH   1  23
HETATM   23  C6  UNL     1     116.318  42.425  53.338  1.00  0.00     0.273 C 
BRANCH  23  24
HETATM   24  C5  UNL     1     116.968  43.021  54.568  1.00  0.00     0.030 C 
BRANCH  24  25
HETATM   25  C4  UNL     1     118.291  43.608  54.126  1.00  0.00     0.002 C 
BRANCH  25  26
HETATM   26  C3  UNL     1     118.288  45.117  54.213  1.00  0.00    -0.000 C 
BRANCH  26  27
HETATM   27  C2  UNL     1     118.284  45.734  52.833  1.00  0.00    -0.005 C 
HETATM   28  C1  UNL     1     117.471  47.009  52.872  1.00  0.00     0.005 C 
ENDBRANCH  26  27
ENDBRANCH  25  26
ENDBRANCH  24  25
ENDBRANCH  23  24
ENDBRANCH   1  23
TORSDOF 10
ENDMDL
