MODEL 1
REMARK VINA RESULT: -8.669135587      0.000      0.000
REMARK  6 active torsions:
REMARK  status: ('A' for Active; 'I' for Inactive)
REMARK    1  A    between atoms: C11_12  and  C13_14 
REMARK       I    between atoms: C13_14  and  N2_16 
REMARK    2  A    between atoms: N2_16  and  C14_18 
REMARK    3  A    between atoms: C14_18  and  C15_19 
REMARK    4  A    between atoms: C21_27  and  N3_28 
REMARK       I    between atoms: N3_28  and  C22_30 
REMARK    5  A    between atoms: C22_30  and  C23_32 
REMARK    6  A    between atoms: C23_32  and  C24_33 
ROOT
HETATM    1  C1  UNL     1     -46.349 -52.064  -8.036  1.00  0.00     0.022 C 
HETATM    2  C2  UNL     1     -45.270 -51.367  -8.901  1.00  0.00     0.008 C 
HETATM    3  C3  UNL     1     -44.095 -52.380  -8.868  1.00  0.00     0.016 C 
HETATM    4  C4  UNL     1     -42.946 -51.452  -9.158  1.00  0.00     0.012 C 
HETATM    5  C5  UNL     1     -43.417 -50.100  -8.910  1.00  0.00     0.053 C 
HETATM    6  C6  UNL     1     -44.001 -49.258  -9.998  1.00  0.00    -0.019 C 
HETATM    7  C7  UNL     1     -43.688 -47.918  -9.552  1.00  0.00     0.076 C 
HETATM    8  C8  UNL     1     -44.466 -47.844  -8.214  1.00  0.00     0.245 C 
HETATM    9  N1  UNL     1     -45.146 -49.054  -7.828  1.00  0.00     0.101 N 
HETATM   10  C9  UNL     1     -45.216 -48.874  -6.363  1.00  0.00     0.275 C 
HETATM   11  C10 UNL     1     -43.866 -48.229  -6.007  1.00  0.00     0.051 C 
HETATM   12  C11 UNL     1     -43.798 -47.195  -7.102  1.00  0.00     0.070 C 
HETATM   13  C12 UNL     1     -44.638 -46.024  -6.530  1.00  0.00     0.028 C 
HETATM   14  C19 UNL     1     -44.699 -50.328  -8.085  1.00  0.00     0.243 C 
HETATM   15  C20 UNL     1     -43.920 -49.962 -11.207  1.00  0.00     0.201 C 
HETATM   16  O3  UNL     1     -43.141 -49.799 -12.103  1.00  0.00    -0.286 OA
HETATM   17  C21 UNL     1     -44.935 -51.091 -11.461  1.00  0.00     0.082 C 
HETATM   18  C25 UNL     1     -45.775 -51.373 -10.238  1.00  0.00     0.018 C 
ENDROOT
BRANCH  12  19
HETATM   19  C13 UNL     1     -42.480 -46.605  -7.301  1.00  0.00     0.228 C 
HETATM   20  O1  UNL     1     -41.417 -47.220  -7.039  1.00  0.00    -0.273 OA
HETATM   21  N2  UNL     1     -42.402 -45.268  -7.819  1.00  0.00    -0.358 N 
ATOM     22  H2  UNL     1     -43.265 -44.767  -8.033  1.00  0.00     0.162 HD
BRANCH  21  23
HETATM   23  C14 UNL     1     -41.133 -44.614  -8.044  1.00  0.00     0.154 C 
BRANCH  23  24
HETATM   24  C15 UNL     1     -40.824 -44.573  -9.500  1.00  0.00     0.139 C 
HETATM   25  C16 UNL     1     -39.669 -45.436  -9.900  1.00  0.00     0.035 C 
HETATM   26  C17 UNL     1     -39.887 -45.576 -11.402  1.00  0.00     0.029 C 
HETATM   27  C18 UNL     1     -41.328 -45.190 -11.547  1.00  0.00     0.168 C 
HETATM   28  O2  UNL     1     -41.866 -45.104 -10.266  1.00  0.00    -0.384 OA
ENDBRANCH  23  24
ENDBRANCH  21  23
ENDBRANCH  12  19
BRANCH  17  29
HETATM   29  N3  UNL     1     -44.444 -52.127 -12.218  1.00  0.00    -0.324 N 
HETATM   30  C22 UNL     1     -45.083 -53.425 -12.254  1.00  0.00     0.232 C 
HETATM   31  O4  UNL     1     -46.113 -53.597 -11.574  1.00  0.00    -0.273 OA
ATOM     32  H3  UNL     1     -43.601 -51.976 -12.772  1.00  0.00     0.169 HD
BRANCH  30  33
HETATM   33  C23 UNL     1     -44.539 -54.520 -13.072  1.00  0.00     0.216 C 
BRANCH  33  34
HETATM   34  C24 UNL     1     -43.151 -54.844 -12.690  1.00  0.00     0.181 C 
HETATM   35  O5  UNL     1     -42.899 -55.918 -12.024  1.00  0.00    -0.648 OA
HETATM   36  O6  UNL     1     -42.107 -54.008 -13.038  1.00  0.00    -0.648 OA
ENDBRANCH  33  34
ENDBRANCH  30  33
ENDBRANCH  17  29
TORSDOF 6
ENDMDL
MODEL 2
REMARK VINA RESULT: -8.593015264      2.759      7.959
REMARK  6 active torsions:
REMARK  status: ('A' for Active; 'I' for Inactive)
REMARK    1  A    between atoms: C11_12  and  C13_14 
REMARK       I    between atoms: C13_14  and  N2_16 
REMARK    2  A    between atoms: N2_16  and  C14_18 
REMARK    3  A    between atoms: C14_18  and  C15_19 
REMARK    4  A    between atoms: C21_27  and  N3_28 
REMARK       I    between atoms: N3_28  and  C22_30 
REMARK    5  A    between atoms: C22_30  and  C23_32 
REMARK    6  A    between atoms: C23_32  and  C24_33 
ROOT
HETATM    1  C1  UNL     1     -40.922 -44.721  -9.569  1.00  0.00     0.022 C 
HETATM    2  C2  UNL     1     -41.939 -45.840  -9.234  1.00  0.00     0.008 C 
HETATM    3  C3  UNL     1     -41.520 -46.269  -7.803  1.00  0.00     0.016 C 
HETATM    4  C4  UNL     1     -42.075 -47.668  -7.780  1.00  0.00     0.012 C 
HETATM    5  C5  UNL     1     -42.325 -48.050  -9.159  1.00  0.00     0.053 C 
HETATM    6  C6  UNL     1     -43.655 -47.837  -9.806  1.00  0.00    -0.019 C 
HETATM    7  C7  UNL     1     -43.691 -48.893 -10.793  1.00  0.00     0.076 C 
HETATM    8  C8  UNL     1     -42.487 -48.518 -11.695  1.00  0.00     0.245 C 
HETATM    9  N1  UNL     1     -41.729 -47.370 -11.266  1.00  0.00     0.101 N 
HETATM   10  C9  UNL     1     -40.420 -47.659 -11.887  1.00  0.00     0.275 C 
HETATM   11  C10 UNL     1     -40.265 -49.181 -11.729  1.00  0.00     0.051 C 
HETATM   12  C11 UNL     1     -41.646 -49.608 -12.154  1.00  0.00     0.070 C 
HETATM   13  C12 UNL     1     -41.543 -49.643 -13.700  1.00  0.00     0.028 C 
HETATM   14  C19 UNL     1     -41.514 -47.010  -9.957  1.00  0.00     0.243 C 
HETATM   15  C20 UNL     1     -44.543 -47.319  -8.853  1.00  0.00     0.201 C 
HETATM   16  O3  UNL     1     -45.414 -47.898  -8.267  1.00  0.00    -0.286 OA
HETATM   17  C21 UNL     1     -44.424 -45.830  -8.481  1.00  0.00     0.082 C 
HETATM   18  C25 UNL     1     -43.207 -45.193  -9.109  1.00  0.00     0.018 C 
ENDROOT
BRANCH  12  19
HETATM   19  C13 UNL     1     -41.994 -50.980 -11.802  1.00  0.00     0.228 C 
HETATM   20  O1  UNL     1     -41.192 -51.756 -11.229  1.00  0.00    -0.273 OA
HETATM   21  N2  UNL     1     -43.310 -51.454 -12.128  1.00  0.00    -0.358 N 
ATOM     22  H2  UNL     1     -43.964 -50.825 -12.594  1.00  0.00     0.162 HD
BRANCH  21  23
HETATM   23  C14 UNL     1     -43.731 -52.801 -11.814  1.00  0.00     0.154 C 
BRANCH  23  24
HETATM   24  C15 UNL     1     -44.729 -52.785 -10.709  1.00  0.00     0.139 C 
HETATM   25  C16 UNL     1     -44.148 -52.454  -9.371  1.00  0.00     0.035 C 
HETATM   26  C17 UNL     1     -45.387 -52.046  -8.582  1.00  0.00     0.029 C 
HETATM   27  C18 UNL     1     -46.374 -51.760  -9.675  1.00  0.00     0.168 C 
HETATM   28  O2  UNL     1     -45.674 -51.769 -10.879  1.00  0.00    -0.384 OA
ENDBRANCH  23  24
ENDBRANCH  21  23
ENDBRANCH  12  19
BRANCH  17  29
HETATM   29  N3  UNL     1     -44.759 -45.549  -7.179  1.00  0.00    -0.324 N 
HETATM   30  C22 UNL     1     -45.638 -44.454  -6.828  1.00  0.00     0.232 C 
HETATM   31  O4  UNL     1     -46.101 -43.750  -7.747  1.00  0.00    -0.273 OA
ATOM     32  H3  UNL     1     -44.375 -46.131  -6.434  1.00  0.00     0.169 HD
BRANCH  30  33
HETATM   33  C23 UNL     1     -45.983 -44.171  -5.427  1.00  0.00     0.216 C 
BRANCH  33  34
HETATM   34  C24 UNL     1     -46.730 -45.286  -4.817  1.00  0.00     0.181 C 
HETATM   35  O5  UNL     1     -47.944 -45.109  -4.420  1.00  0.00    -0.648 OA
HETATM   36  O6  UNL     1     -46.148 -46.529  -4.661  1.00  0.00    -0.648 OA
ENDBRANCH  33  34
ENDBRANCH  30  33
ENDBRANCH  17  29
TORSDOF 6
ENDMDL
MODEL 3
REMARK VINA RESULT: -8.462131483      2.842      4.334
REMARK  6 active torsions:
REMARK  status: ('A' for Active; 'I' for Inactive)
REMARK    1  A    between atoms: C11_12  and  C13_14 
REMARK       I    between atoms: C13_14  and  N2_16 
REMARK    2  A    between atoms: N2_16  and  C14_18 
REMARK    3  A    between atoms: C14_18  and  C15_19 
REMARK    4  A    between atoms: C21_27  and  N3_28 
REMARK       I    between atoms: N3_28  and  C22_30 
REMARK    5  A    between atoms: C22_30  and  C23_32 
REMARK    6  A    between atoms: C23_32  and  C24_33 
ROOT
HETATM    1  C1  UNL     1     -41.267 -50.299 -11.526  1.00  0.00     0.022 C 
HETATM    2  C2  UNL     1     -42.599 -50.203 -10.741  1.00  0.00     0.008 C 
HETATM    3  C3  UNL     1     -43.666 -50.261 -11.866  1.00  0.00     0.016 C 
HETATM    4  C4  UNL     1     -44.811 -49.575 -11.171  1.00  0.00     0.012 C 
HETATM    5  C5  UNL     1     -44.255 -48.862 -10.034  1.00  0.00     0.053 C 
HETATM    6  C6  UNL     1     -44.175 -49.484  -8.677  1.00  0.00    -0.019 C 
HETATM    7  C7  UNL     1     -44.243 -48.332  -7.805  1.00  0.00     0.076 C 
HETATM    8  C8  UNL     1     -42.967 -47.554  -8.216  1.00  0.00     0.245 C 
HETATM    9  N1  UNL     1     -42.210 -48.135  -9.295  1.00  0.00     0.101 N 
HETATM   10  C9  UNL     1     -41.519 -46.940  -9.820  1.00  0.00     0.275 C 
HETATM   11  C10 UNL     1     -42.577 -45.827  -9.715  1.00  0.00     0.051 C 
HETATM   12  C11 UNL     1     -43.085 -46.112  -8.325  1.00  0.00     0.070 C 
HETATM   13  C12 UNL     1     -42.061 -45.381  -7.420  1.00  0.00     0.028 C 
HETATM   14  C19 UNL     1     -42.748 -48.823 -10.356  1.00  0.00     0.243 C 
HETATM   15  C20 UNL     1     -44.777 -50.749  -8.723  1.00  0.00     0.201 C 
HETATM   16  O3  UNL     1     -45.860 -51.063  -8.320  1.00  0.00    -0.286 OA
HETATM   17  C21 UNL     1     -43.988 -51.907  -9.361  1.00  0.00     0.082 C 
HETATM   18  C25 UNL     1     -42.713 -51.424 -10.009  1.00  0.00     0.018 C 
ENDROOT
BRANCH  12  19
HETATM   19  C13 UNL     1     -44.352 -45.468  -7.997  1.00  0.00     0.228 C 
HETATM   20  O1  UNL     1     -45.325 -45.447  -8.789  1.00  0.00    -0.273 OA
HETATM   21  N2  UNL     1     -44.483 -44.835  -6.714  1.00  0.00    -0.358 N 
ATOM     22  H2  UNL     1     -43.693 -44.851  -6.069  1.00  0.00     0.162 HD
BRANCH  21  23
HETATM   23  C14 UNL     1     -45.705 -44.175  -6.315  1.00  0.00     0.154 C 
BRANCH  23  24
HETATM   24  C15 UNL     1     -45.684 -42.748  -6.740  1.00  0.00     0.139 C 
HETATM   25  C16 UNL     1     -46.784 -42.380  -7.686  1.00  0.00     0.035 C 
HETATM   26  C17 UNL     1     -46.810 -40.861  -7.562  1.00  0.00     0.029 C 
HETATM   27  C18 UNL     1     -46.083 -40.639  -6.269  1.00  0.00     0.168 C 
HETATM   28  O2  UNL     1     -45.919 -41.884  -5.666  1.00  0.00    -0.384 OA
ENDBRANCH  23  24
ENDBRANCH  21  23
ENDBRANCH  12  19
BRANCH  17  29
HETATM   29  N3  UNL     1     -44.775 -52.841  -9.991  1.00  0.00    -0.324 N 
HETATM   30  C22 UNL     1     -44.915 -54.192  -9.492  1.00  0.00     0.232 C 
HETATM   31  O4  UNL     1     -44.299 -54.507  -8.455  1.00  0.00    -0.273 OA
ATOM     32  H3  UNL     1     -45.276 -52.573 -10.838  1.00  0.00     0.169 HD
BRANCH  30  33
HETATM   33  C23 UNL     1     -45.763 -55.176 -10.183  1.00  0.00     0.216 C 
BRANCH  33  34
HETATM   34  C24 UNL     1     -45.178 -55.584 -11.474  1.00  0.00     0.181 C 
HETATM   35  O5  UNL     1     -45.846 -56.343 -12.274  1.00  0.00    -0.648 OA
HETATM   36  O6  UNL     1     -43.915 -55.163 -11.845  1.00  0.00    -0.648 OA
ENDBRANCH  33  34
ENDBRANCH  30  33
ENDBRANCH  17  29
TORSDOF 6
ENDMDL
MODEL 4
REMARK VINA RESULT: -8.449463417      3.103      7.805
REMARK  6 active torsions:
REMARK  status: ('A' for Active; 'I' for Inactive)
REMARK    1  A    between atoms: C11_12  and  C13_14 
REMARK       I    between atoms: C13_14  and  N2_16 
REMARK    2  A    between atoms: N2_16  and  C14_18 
REMARK    3  A    between atoms: C14_18  and  C15_19 
REMARK    4  A    between atoms: C21_27  and  N3_28 
REMARK       I    between atoms: N3_28  and  C22_30 
REMARK    5  A    between atoms: C22_30  and  C23_32 
REMARK    6  A    between atoms: C23_32  and  C24_33 
ROOT
HETATM    1  C1  UNL     1     -42.627 -45.127  -7.366  1.00  0.00     0.022 C 
HETATM    2  C2  UNL     1     -42.933 -46.646  -7.362  1.00  0.00     0.008 C 
HETATM    3  C3  UNL     1     -41.929 -47.197  -6.315  1.00  0.00     0.016 C 
HETATM    4  C4  UNL     1     -41.832 -48.625  -6.779  1.00  0.00     0.012 C 
HETATM    5  C5  UNL     1     -42.347 -48.670  -8.136  1.00  0.00     0.053 C 
HETATM    6  C6  UNL     1     -43.782 -48.972  -8.424  1.00  0.00    -0.019 C 
HETATM    7  C7  UNL     1     -43.713 -49.573  -9.738  1.00  0.00     0.076 C 
HETATM    8  C8  UNL     1     -43.135 -48.410 -10.583  1.00  0.00     0.245 C 
HETATM    9  N1  UNL     1     -42.809 -47.215  -9.847  1.00  0.00     0.101 N 
HETATM   10  C9  UNL     1     -41.781 -46.623 -10.728  1.00  0.00     0.275 C 
HETATM   11  C10 UNL     1     -40.983 -47.838 -11.231  1.00  0.00     0.051 C 
HETATM   12  C11 UNL     1     -42.130 -48.754 -11.572  1.00  0.00     0.070 C 
HETATM   13  C12 UNL     1     -42.539 -48.290 -12.993  1.00  0.00     0.028 C 
HETATM   14  C19 UNL     1     -42.339 -47.186  -8.556  1.00  0.00     0.243 C 
HETATM   15  C20 UNL     1     -44.434 -49.261  -7.217  1.00  0.00     0.201 C 
HETATM   16  O3  UNL     1     -44.750 -50.335  -6.791  1.00  0.00    -0.286 OA
HETATM   17  C21 UNL     1     -44.809 -48.088  -6.293  1.00  0.00     0.082 C 
HETATM   18  C25 UNL     1     -44.235 -46.782  -6.788  1.00  0.00     0.018 C 
ENDROOT
BRANCH  12  19
HETATM   19  C13 UNL     1     -41.758 -50.151 -11.761  1.00  0.00     0.228 C 
HETATM   20  O1  UNL     1     -40.831 -50.698 -11.116  1.00  0.00    -0.273 OA
HETATM   21  N2  UNL     1     -42.486 -50.925 -12.727  1.00  0.00    -0.358 N 
ATOM     22  H2  UNL     1     -43.240 -50.483 -13.252  1.00  0.00     0.162 HD
BRANCH  21  23
HETATM   23  C14 UNL     1     -42.178 -52.315 -12.973  1.00  0.00     0.154 C 
BRANCH  23  24
HETATM   24  C15 UNL     1     -43.265 -53.187 -12.449  1.00  0.00     0.139 C 
HETATM   25  C16 UNL     1     -44.565 -52.475 -12.237  1.00  0.00     0.035 C 
HETATM   26  C17 UNL     1     -45.553 -53.635 -12.181  1.00  0.00     0.029 C 
HETATM   27  C18 UNL     1     -44.770 -54.744 -12.817  1.00  0.00     0.168 C 
HETATM   28  O2  UNL     1     -43.621 -54.180 -13.366  1.00  0.00    -0.384 OA
ENDBRANCH  23  24
ENDBRANCH  21  23
ENDBRANCH  12  19
BRANCH  17  29
HETATM   29  N3  UNL     1     -44.778 -48.396  -4.955  1.00  0.00    -0.324 N 
HETATM   30  C22 UNL     1     -45.985 -48.549  -4.172  1.00  0.00     0.232 C 
HETATM   31  O4  UNL     1     -47.083 -48.396  -4.740  1.00  0.00    -0.273 OA
ATOM     32  H3  UNL     1     -43.874 -48.521  -4.499  1.00  0.00     0.169 HD
BRANCH  30  33
HETATM   33  C23 UNL     1     -45.928 -48.879  -2.739  1.00  0.00     0.216 C 
BRANCH  33  34
HETATM   34  C24 UNL     1     -46.935 -48.128  -1.969  1.00  0.00     0.181 C 
HETATM   35  O5  UNL     1     -46.678 -46.930  -1.565  1.00  0.00    -0.648 OA
HETATM   36  O6  UNL     1     -48.163 -48.687  -1.670  1.00  0.00    -0.648 OA
ENDBRANCH  33  34
ENDBRANCH  30  33
ENDBRANCH  17  29
TORSDOF 6
ENDMDL
MODEL 5
REMARK VINA RESULT: -8.417076565      2.886      5.275
REMARK  6 active torsions:
REMARK  status: ('A' for Active; 'I' for Inactive)
REMARK    1  A    between atoms: C11_12  and  C13_14 
REMARK       I    between atoms: C13_14  and  N2_16 
REMARK    2  A    between atoms: N2_16  and  C14_18 
REMARK    3  A    between atoms: C14_18  and  C15_19 
REMARK    4  A    between atoms: C21_27  and  N3_28 
REMARK       I    between atoms: N3_28  and  C22_30 
REMARK    5  A    between atoms: C22_30  and  C23_32 
REMARK    6  A    between atoms: C23_32  and  C24_33 
ROOT
HETATM    1  C1  UNL     1     -44.047 -53.799 -10.824  1.00  0.00     0.022 C 
HETATM    2  C2  UNL     1     -44.267 -52.377 -10.251  1.00  0.00     0.008 C 
HETATM    3  C3  UNL     1     -45.701 -52.031 -10.730  1.00  0.00     0.016 C 
HETATM    4  C4  UNL     1     -45.627 -50.528 -10.702  1.00  0.00     0.012 C 
HETATM    5  C5  UNL     1     -44.220 -50.171 -10.665  1.00  0.00     0.053 C 
HETATM    6  C6  UNL     1     -43.498 -49.947  -9.375  1.00  0.00    -0.019 C 
HETATM    7  C7  UNL     1     -42.466 -49.011  -9.758  1.00  0.00     0.076 C 
HETATM    8  C8  UNL     1     -41.661 -49.838 -10.792  1.00  0.00     0.245 C 
HETATM    9  N1  UNL     1     -42.187 -51.148 -11.078  1.00  0.00     0.101 N 
HETATM   10  C9  UNL     1     -41.639 -51.374 -12.431  1.00  0.00     0.275 C 
HETATM   11  C10 UNL     1     -41.741 -49.995 -13.105  1.00  0.00     0.051 C 
HETATM   12  C11 UNL     1     -41.210 -49.141 -11.982  1.00  0.00     0.070 C 
HETATM   13  C12 UNL     1     -39.673 -49.242 -12.160  1.00  0.00     0.028 C 
HETATM   14  C19 UNL     1     -43.521 -51.477 -11.093  1.00  0.00     0.243 C 
HETATM   15  C20 UNL     1     -44.414 -50.062  -8.320  1.00  0.00     0.201 C 
HETATM   16  O3  UNL     1     -44.917 -49.180  -7.683  1.00  0.00    -0.286 OA
HETATM   17  C21 UNL     1     -44.858 -51.472  -7.891  1.00  0.00     0.082 C 
HETATM   18  C25 UNL     1     -44.338 -52.532  -8.833  1.00  0.00     0.018 C 
ENDROOT
BRANCH  12  19
HETATM   19  C13 UNL     1     -41.478 -47.715 -12.123  1.00  0.00     0.228 C 
HETATM   20  O1  UNL     1     -42.533 -47.272 -12.640  1.00  0.00    -0.273 OA
HETATM   21  N2  UNL     1     -40.490 -46.785 -11.650  1.00  0.00    -0.358 N 
ATOM     22  H2  UNL     1     -39.633 -47.143 -11.230  1.00  0.00     0.162 HD
BRANCH  21  23
HETATM   23  C14 UNL     1     -40.681 -45.357 -11.755  1.00  0.00     0.154 C 
BRANCH  23  24
HETATM   24  C15 UNL     1     -40.787 -44.749 -10.400  1.00  0.00     0.139 C 
HETATM   25  C16 UNL     1     -41.722 -45.470  -9.482  1.00  0.00     0.035 C 
HETATM   26  C17 UNL     1     -41.278 -44.961  -8.115  1.00  0.00     0.029 C 
HETATM   27  C18 UNL     1     -39.910 -44.422  -8.412  1.00  0.00     0.168 C 
HETATM   28  O2  UNL     1     -39.577 -44.823  -9.703  1.00  0.00    -0.384 OA
ENDBRANCH  23  24
ENDBRANCH  21  23
ENDBRANCH  12  19
BRANCH  17  29
HETATM   29  N3  UNL     1     -46.147 -51.535  -7.420  1.00  0.00    -0.324 N 
HETATM   30  C22 UNL     1     -46.451 -51.544  -6.005  1.00  0.00     0.232 C 
HETATM   31  O4  UNL     1     -45.504 -51.492  -5.196  1.00  0.00    -0.273 OA
ATOM     32  H3  UNL     1     -46.915 -51.577  -8.090  1.00  0.00     0.169 HD
BRANCH  30  33
HETATM   33  C23 UNL     1     -47.839 -51.613  -5.524  1.00  0.00     0.216 C 
BRANCH  33  34
HETATM   34  C24 UNL     1     -48.386 -52.977  -5.640  1.00  0.00     0.181 C 
HETATM   35  O5  UNL     1     -47.713 -53.893  -6.248  1.00  0.00    -0.648 OA
HETATM   36  O6  UNL     1     -49.619 -53.296  -5.104  1.00  0.00    -0.648 OA
ENDBRANCH  33  34
ENDBRANCH  30  33
ENDBRANCH  17  29
TORSDOF 6
ENDMDL
