MODEL 1
REMARK VINA RESULT: -8.626037350      0.000      0.000
REMARK  7 active torsions:
REMARK  status: ('A' for Active; 'I' for Inactive)
REMARK    1  A    between atoms: C2_2  and  C3_3 
REMARK    2  A    between atoms: C2_2  and  N2_23 
REMARK       I    between atoms: C3_3  and  N1_5 
REMARK    3  A    between atoms: N1_5  and  C4_7 
REMARK    4  A    between atoms: C18_25  and  C19_26 
REMARK    5  A    between atoms: C19_26  and  C20_27 
REMARK    6  A    between atoms: C20_27  and  C21_28 
REMARK    7  A    between atoms: C21_28  and  N3_29 
ROOT
HETATM    1  C3  UNL     1     -45.042 -51.289  -7.459  1.00  0.00     0.240 C 
HETATM    2  O1  UNL     1     -44.153 -52.036  -7.946  1.00  0.00    -0.271 OA
HETATM    3  N1  UNL     1     -44.948 -49.896  -7.684  1.00  0.00    -0.355 N 
ATOM      4  H1  UNL     1     -45.659 -49.276  -7.294  1.00  0.00     0.162 HD
ENDROOT
BRANCH   3   5
HETATM    5  C4  UNL     1     -43.840 -49.328  -8.470  1.00  0.00     0.084 C 
HETATM    6  C5  UNL     1     -44.313 -49.374  -9.918  1.00  0.00     0.025 C 
HETATM    7  C6  UNL     1     -43.139 -49.587 -10.863  1.00  0.00     0.002 C 
HETATM    8  C7  UNL     1     -43.140 -48.613 -11.997  1.00  0.00     0.000 C 
HETATM    9  C8  UNL     1     -41.726 -48.240 -12.442  1.00  0.00     0.000 C 
HETATM   10  C9  UNL     1     -40.838 -47.856 -11.299  1.00  0.00     0.000 C 
HETATM   11  C10 UNL     1     -39.876 -46.754 -11.601  1.00  0.00     0.001 C 
HETATM   12  C11 UNL     1     -40.425 -45.388 -11.566  1.00  0.00     0.015 C 
HETATM   13  C12 UNL     1     -41.476 -45.101 -10.547  1.00  0.00     0.140 C 
HETATM   14  S1  UNL     1     -40.860 -44.808  -8.928  1.00  0.00     0.144 S 
HETATM   15  O2  UNL     1     -39.468 -45.385  -8.723  1.00  0.00    -0.228 OA
HETATM   16  O3  UNL     1     -40.698 -43.311  -8.683  1.00  0.00    -0.228 OA
HETATM   17  C13 UNL     1     -41.967 -45.426  -7.664  1.00  0.00     0.140 C 
HETATM   18  C14 UNL     1     -41.454 -46.747  -7.207  1.00  0.00     0.015 C 
HETATM   19  C15 UNL     1     -42.501 -47.800  -6.980  1.00  0.00     0.003 C 
HETATM   20  C16 UNL     1     -43.528 -47.910  -8.047  1.00  0.00     0.025 C 
ENDBRANCH   3   5
BRANCH   1  21
HETATM   21  C2  UNL     1     -46.129 -51.929  -6.681  1.00  0.00     0.175 C 
HETATM   22  C1  UNL     1     -47.338 -52.242  -7.512  1.00  0.00     0.042 C 
BRANCH  21  23
HETATM   23  N2  UNL     1     -46.417 -51.164  -5.503  1.00  0.00    -0.338 N 
HETATM   24  C17 UNL     1     -47.224 -50.011  -5.231  1.00  0.00     0.141 C 
HETATM   25  C18 UNL     1     -46.438 -49.829  -3.972  1.00  0.00     0.096 C 
HETATM   26  C23 UNL     1     -46.053 -51.232  -4.147  1.00  0.00     0.226 C 
HETATM   27  O4  UNL     1     -45.585 -52.185  -3.453  1.00  0.00    -0.273 OA
BRANCH  25  28
HETATM   28  C19 UNL     1     -47.282 -49.563  -2.733  1.00  0.00     0.017 C 
BRANCH  28  29
HETATM   29  C20 UNL     1     -47.076 -48.110  -2.357  1.00  0.00     0.020 C 
BRANCH  29  30
HETATM   30  C21 UNL     1     -48.117 -47.216  -2.965  1.00  0.00     0.122 C 
BRANCH  30  31
HETATM   31  N3  UNL     1     -47.560 -46.350  -3.989  1.00  0.00    -0.367 N 
HETATM   32  C22 UNL     1     -47.439 -45.090  -3.815  1.00  0.00     0.196 C 
HETATM   33  N4  UNL     1     -46.892 -44.274  -4.836  1.00  0.00    -0.067 NA
HETATM   34  N5  UNL     1     -47.850 -44.503  -2.595  1.00  0.00    -0.067 NA
ATOM     35  H3  UNL     1     -47.256 -46.759  -4.873  1.00  0.00     0.161 HD
ENDBRANCH  30  31
ENDBRANCH  29  30
ENDBRANCH  28  29
ENDBRANCH  25  28
ENDBRANCH  21  23
ENDBRANCH   1  21
TORSDOF 7
ENDMDL
MODEL 2
REMARK VINA RESULT: -8.524150873      1.273      1.561
REMARK  7 active torsions:
REMARK  status: ('A' for Active; 'I' for Inactive)
REMARK    1  A    between atoms: C2_2  and  C3_3 
REMARK    2  A    between atoms: C2_2  and  N2_23 
REMARK       I    between atoms: C3_3  and  N1_5 
REMARK    3  A    between atoms: N1_5  and  C4_7 
REMARK    4  A    between atoms: C18_25  and  C19_26 
REMARK    5  A    between atoms: C19_26  and  C20_27 
REMARK    6  A    between atoms: C20_27  and  C21_28 
REMARK    7  A    between atoms: C21_28  and  N3_29 
ROOT
HETATM    1  C3  UNL     1     -45.409 -50.780  -6.307  1.00  0.00     0.240 C 
HETATM    2  O1  UNL     1     -44.745 -51.641  -6.943  1.00  0.00    -0.271 OA
HETATM    3  N1  UNL     1     -45.167 -49.413  -6.572  1.00  0.00    -0.355 N 
ATOM      4  H1  UNL     1     -45.693 -48.702  -6.064  1.00  0.00     0.162 HD
ENDROOT
BRANCH   3   5
HETATM    5  C4  UNL     1     -44.166 -48.999  -7.571  1.00  0.00     0.084 C 
HETATM    6  C5  UNL     1     -44.877 -49.097  -8.915  1.00  0.00     0.025 C 
HETATM    7  C6  UNL     1     -43.899 -49.476 -10.017  1.00  0.00     0.002 C 
HETATM    8  C7  UNL     1     -44.015 -48.583 -11.210  1.00  0.00     0.000 C 
HETATM    9  C8  UNL     1     -42.671 -48.369 -11.906  1.00  0.00     0.000 C 
HETATM   10  C9  UNL     1     -41.577 -47.992 -10.957  1.00  0.00     0.000 C 
HETATM   11  C10 UNL     1     -40.596 -47.004 -11.497  1.00  0.00     0.001 C 
HETATM   12  C11 UNL     1     -41.023 -45.595 -11.482  1.00  0.00     0.015 C 
HETATM   13  C12 UNL     1     -41.862 -45.148 -10.332  1.00  0.00     0.140 C 
HETATM   14  S1  UNL     1     -40.961 -44.806  -8.863  1.00  0.00     0.144 S 
HETATM   15  O2  UNL     1     -39.604 -45.492  -8.841  1.00  0.00    -0.228 OA
HETATM   16  O3  UNL     1     -40.644 -43.318  -8.767  1.00  0.00    -0.228 OA
HETATM   17  C13 UNL     1     -41.885 -45.238  -7.391  1.00  0.00     0.140 C 
HETATM   18  C14 UNL     1     -41.407 -46.566  -6.920  1.00  0.00     0.015 C 
HETATM   19  C15 UNL     1     -42.480 -47.504  -6.443  1.00  0.00     0.003 C 
HETATM   20  C16 UNL     1     -43.678 -47.591  -7.317  1.00  0.00     0.025 C 
ENDBRANCH   3   5
BRANCH   1  21
HETATM   21  C2  UNL     1     -46.400 -51.268  -5.319  1.00  0.00     0.175 C 
HETATM   22  C1  UNL     1     -47.227 -52.408  -5.836  1.00  0.00     0.042 C 
BRANCH  21  23
HETATM   23  N2  UNL     1     -47.175 -50.174  -4.808  1.00  0.00    -0.338 N 
HETATM   24  C17 UNL     1     -48.579 -49.916  -4.681  1.00  0.00     0.141 C 
HETATM   25  C18 UNL     1     -48.240 -48.467  -4.535  1.00  0.00     0.096 C 
HETATM   26  C23 UNL     1     -46.890 -48.934  -4.212  1.00  0.00     0.226 C 
HETATM   27  O4  UNL     1     -45.842 -48.500  -3.646  1.00  0.00    -0.273 OA
BRANCH  25  28
HETATM   28  C19 UNL     1     -48.950 -47.764  -3.387  1.00  0.00     0.017 C 
BRANCH  28  29
HETATM   29  C20 UNL     1     -49.704 -46.590  -3.979  1.00  0.00     0.020 C 
BRANCH  29  30
HETATM   30  C21 UNL     1     -48.943 -45.305  -3.842  1.00  0.00     0.122 C 
BRANCH  30  31
HETATM   31  N3  UNL     1     -47.962 -45.136  -4.899  1.00  0.00    -0.367 N 
HETATM   32  C22 UNL     1     -46.827 -44.589  -4.686  1.00  0.00     0.196 C 
HETATM   33  N4  UNL     1     -45.894 -44.439  -5.742  1.00  0.00    -0.067 NA
HETATM   34  N5  UNL     1     -46.497 -44.131  -3.390  1.00  0.00    -0.067 NA
ATOM     35  H3  UNL     1     -48.186 -45.463  -5.840  1.00  0.00     0.161 HD
ENDBRANCH  30  31
ENDBRANCH  29  30
ENDBRANCH  28  29
ENDBRANCH  25  28
ENDBRANCH  21  23
ENDBRANCH   1  21
TORSDOF 7
ENDMDL
MODEL 3
REMARK VINA RESULT: -8.342294062      2.539      5.355
REMARK  7 active torsions:
REMARK  status: ('A' for Active; 'I' for Inactive)
REMARK    1  A    between atoms: C2_2  and  C3_3 
REMARK    2  A    between atoms: C2_2  and  N2_23 
REMARK       I    between atoms: C3_3  and  N1_5 
REMARK    3  A    between atoms: N1_5  and  C4_7 
REMARK    4  A    between atoms: C18_25  and  C19_26 
REMARK    5  A    between atoms: C19_26  and  C20_27 
REMARK    6  A    between atoms: C20_27  and  C21_28 
REMARK    7  A    between atoms: C21_28  and  N3_29 
ROOT
HETATM    1  C3  UNL     1     -45.310 -50.219  -6.451  1.00  0.00     0.240 C 
HETATM    2  O1  UNL     1     -44.157 -50.641  -6.171  1.00  0.00    -0.271 OA
HETATM    3  N1  UNL     1     -45.456 -49.324  -7.535  1.00  0.00    -0.355 N 
ATOM      4  H1  UNL     1     -46.383 -48.970  -7.774  1.00  0.00     0.162 HD
ENDROOT
BRANCH   3   5
HETATM    5  C4  UNL     1     -44.289 -48.893  -8.324  1.00  0.00     0.084 C 
HETATM    6  C5  UNL     1     -44.747 -48.949  -9.777  1.00  0.00     0.025 C 
HETATM    7  C6  UNL     1     -43.587 -49.308 -10.695  1.00  0.00     0.002 C 
HETATM    8  C7  UNL     1     -43.482 -48.382 -11.863  1.00  0.00     0.000 C 
HETATM    9  C8  UNL     1     -42.033 -48.162 -12.300  1.00  0.00     0.000 C 
HETATM   10  C9  UNL     1     -41.127 -47.820 -11.158  1.00  0.00     0.000 C 
HETATM   11  C10 UNL     1     -40.060 -46.827 -11.484  1.00  0.00     0.001 C 
HETATM   12  C11 UNL     1     -40.478 -45.415 -11.508  1.00  0.00     0.015 C 
HETATM   13  C12 UNL     1     -41.508 -44.991 -10.517  1.00  0.00     0.140 C 
HETATM   14  S1  UNL     1     -40.887 -44.696  -8.900  1.00  0.00     0.144 S 
HETATM   15  O2  UNL     1     -39.559 -45.394  -8.653  1.00  0.00    -0.228 OA
HETATM   16  O3  UNL     1     -40.587 -43.213  -8.708  1.00  0.00    -0.228 OA
HETATM   17  C13 UNL     1     -42.063 -45.159  -7.632  1.00  0.00     0.140 C 
HETATM   18  C14 UNL     1     -41.684 -46.503  -7.119  1.00  0.00     0.015 C 
HETATM   19  C15 UNL     1     -42.829 -47.443  -6.870  1.00  0.00     0.003 C 
HETATM   20  C16 UNL     1     -43.849 -47.496  -7.948  1.00  0.00     0.025 C 
ENDBRANCH   3   5
BRANCH   1  21
HETATM   21  C2  UNL     1     -46.438 -50.696  -5.615  1.00  0.00     0.175 C 
HETATM   22  C1  UNL     1     -46.073 -50.838  -4.167  1.00  0.00     0.042 C 
BRANCH  21  23
HETATM   23  N2  UNL     1     -47.018 -51.877  -6.186  1.00  0.00    -0.338 N 
HETATM   24  C17 UNL     1     -47.729 -53.002  -5.652  1.00  0.00     0.141 C 
HETATM   25  C18 UNL     1     -47.402 -53.734  -6.915  1.00  0.00     0.096 C 
HETATM   26  C23 UNL     1     -47.146 -52.407  -7.482  1.00  0.00     0.226 C 
HETATM   27  O4  UNL     1     -47.057 -51.860  -8.622  1.00  0.00    -0.273 OA
BRANCH  25  28
HETATM   28  C19 UNL     1     -48.579 -54.466  -7.543  1.00  0.00     0.017 C 
BRANCH  28  29
HETATM   29  C20 UNL     1     -48.064 -55.805  -8.031  1.00  0.00     0.020 C 
BRANCH  29  30
HETATM   30  C21 UNL     1     -46.909 -55.654  -8.976  1.00  0.00     0.122 C 
BRANCH  30  31
HETATM   31  N3  UNL     1     -45.727 -56.359  -8.510  1.00  0.00    -0.367 N 
HETATM   32  C22 UNL     1     -44.580 -55.798  -8.466  1.00  0.00     0.196 C 
HETATM   33  N4  UNL     1     -43.448 -56.516  -8.006  1.00  0.00    -0.067 NA
HETATM   34  N5  UNL     1     -44.436 -54.453  -8.877  1.00  0.00    -0.067 NA
ATOM     35  H3  UNL     1     -45.816 -57.330  -8.208  1.00  0.00     0.161 HD
ENDBRANCH  30  31
ENDBRANCH  29  30
ENDBRANCH  28  29
ENDBRANCH  25  28
ENDBRANCH  21  23
ENDBRANCH   1  21
TORSDOF 7
ENDMDL
MODEL 4
REMARK VINA RESULT: -8.319357399      3.892      7.776
REMARK  7 active torsions:
REMARK  status: ('A' for Active; 'I' for Inactive)
REMARK    1  A    between atoms: C2_2  and  C3_3 
REMARK    2  A    between atoms: C2_2  and  N2_23 
REMARK       I    between atoms: C3_3  and  N1_5 
REMARK    3  A    between atoms: N1_5  and  C4_7 
REMARK    4  A    between atoms: C18_25  and  C19_26 
REMARK    5  A    between atoms: C19_26  and  C20_27 
REMARK    6  A    between atoms: C20_27  and  C21_28 
REMARK    7  A    between atoms: C21_28  and  N3_29 
ROOT
HETATM    1  C3  UNL     1     -41.648 -48.254 -12.009  1.00  0.00     0.240 C 
HETATM    2  O1  UNL     1     -42.587 -48.100 -12.834  1.00  0.00    -0.271 OA
HETATM    3  N1  UNL     1     -41.480 -49.523 -11.410  1.00  0.00    -0.355 N 
ATOM      4  H1  UNL     1     -40.726 -49.665 -10.737  1.00  0.00     0.162 HD
ENDROOT
BRANCH   3   5
HETATM    5  C4  UNL     1     -42.376 -50.644 -11.742  1.00  0.00     0.084 C 
HETATM    6  C5  UNL     1     -41.504 -51.645 -12.490  1.00  0.00     0.025 C 
HETATM    7  C6  UNL     1     -42.320 -52.401 -13.528  1.00  0.00     0.002 C 
HETATM    8  C7  UNL     1     -42.114 -53.880 -13.445  1.00  0.00     0.000 C 
HETATM    9  C8  UNL     1     -43.375 -54.662 -13.812  1.00  0.00     0.000 C 
HETATM   10  C9  UNL     1     -44.595 -54.167 -13.100  1.00  0.00     0.000 C 
HETATM   11  C10 UNL     1     -45.560 -55.235 -12.701  1.00  0.00     0.001 C 
HETATM   12  C11 UNL     1     -45.220 -55.993 -11.485  1.00  0.00     0.015 C 
HETATM   13  C12 UNL     1     -44.552 -55.246 -10.380  1.00  0.00     0.140 C 
HETATM   14  S1  UNL     1     -45.640 -54.292  -9.383  1.00  0.00     0.144 S 
HETATM   15  O2  UNL     1     -46.948 -53.975 -10.091  1.00  0.00    -0.228 OA
HETATM   16  O3  UNL     1     -46.051 -55.077  -8.143  1.00  0.00    -0.228 OA
HETATM   17  C13 UNL     1     -44.876 -52.777  -8.812  1.00  0.00     0.140 C 
HETATM   18  C14 UNL     1     -45.329 -51.669  -9.696  1.00  0.00     0.015 C 
HETATM   19  C15 UNL     1     -44.268 -50.676 -10.078  1.00  0.00     0.003 C 
HETATM   20  C16 UNL     1     -42.972 -51.266 -10.499  1.00  0.00     0.025 C 
ENDBRANCH   3   5
BRANCH   1  21
HETATM   21  C2  UNL     1     -40.784 -47.084 -11.724  1.00  0.00     0.175 C 
HETATM   22  C1  UNL     1     -39.321 -47.402 -11.814  1.00  0.00     0.042 C 
BRANCH  21  23
HETATM   23  N2  UNL     1     -41.170 -46.468 -10.488  1.00  0.00    -0.338 N 
HETATM   24  C17 UNL     1     -42.189 -46.730  -9.515  1.00  0.00     0.141 C 
HETATM   25  C18 UNL     1     -41.998 -45.331  -9.022  1.00  0.00     0.096 C 
HETATM   26  C23 UNL     1     -40.709 -45.386  -9.719  1.00  0.00     0.226 C 
HETATM   27  O4  UNL     1     -39.597 -44.777  -9.713  1.00  0.00    -0.273 OA
BRANCH  25  28
HETATM   28  C19 UNL     1     -41.885 -45.203  -7.510  1.00  0.00     0.017 C 
BRANCH  28  29
HETATM   29  C20 UNL     1     -43.083 -45.915  -6.912  1.00  0.00     0.020 C 
BRANCH  29  30
HETATM   30  C21 UNL     1     -44.363 -45.177  -7.168  1.00  0.00     0.122 C 
BRANCH  30  31
HETATM   31  N3  UNL     1     -45.236 -45.181  -6.008  1.00  0.00    -0.367 N 
HETATM   32  C22 UNL     1     -45.964 -44.175  -5.706  1.00  0.00     0.196 C 
HETATM   33  N4  UNL     1     -46.804 -44.214  -4.566  1.00  0.00    -0.067 NA
HETATM   34  N5  UNL     1     -45.934 -43.015  -6.514  1.00  0.00    -0.067 NA
ATOM     35  H3  UNL     1     -45.270 -46.012  -5.416  1.00  0.00     0.161 HD
ENDBRANCH  30  31
ENDBRANCH  29  30
ENDBRANCH  28  29
ENDBRANCH  25  28
ENDBRANCH  21  23
ENDBRANCH   1  21
TORSDOF 7
ENDMDL
MODEL 5
REMARK VINA RESULT: -8.187459696      2.337      3.500
REMARK  7 active torsions:
REMARK  status: ('A' for Active; 'I' for Inactive)
REMARK    1  A    between atoms: C2_2  and  C3_3 
REMARK    2  A    between atoms: C2_2  and  N2_23 
REMARK       I    between atoms: C3_3  and  N1_5 
REMARK    3  A    between atoms: N1_5  and  C4_7 
REMARK    4  A    between atoms: C18_25  and  C19_26 
REMARK    5  A    between atoms: C19_26  and  C20_27 
REMARK    6  A    between atoms: C20_27  and  C21_28 
REMARK    7  A    between atoms: C21_28  and  N3_29 
ROOT
HETATM    1  C3  UNL     1     -45.285 -49.957  -5.778  1.00  0.00     0.240 C 
HETATM    2  O1  UNL     1     -46.117 -49.618  -6.660  1.00  0.00    -0.271 OA
HETATM    3  N1  UNL     1     -43.965 -49.459  -5.870  1.00  0.00    -0.355 N 
ATOM      4  H1  UNL     1     -43.277 -49.726  -5.166  1.00  0.00     0.162 HD
ENDROOT
BRANCH   3   5
HETATM    5  C4  UNL     1     -43.568 -48.562  -6.969  1.00  0.00     0.084 C 
HETATM    6  C5  UNL     1     -42.530 -47.625  -6.365  1.00  0.00     0.025 C 
HETATM    7  C6  UNL     1     -42.596 -46.252  -7.018  1.00  0.00     0.002 C 
HETATM    8  C7  UNL     1     -41.250 -45.763  -7.447  1.00  0.00     0.000 C 
HETATM    9  C8  UNL     1     -41.321 -44.911  -8.714  1.00  0.00     0.000 C 
HETATM   10  C9  UNL     1     -42.119 -45.556  -9.805  1.00  0.00     0.000 C 
HETATM   11  C10 UNL     1     -41.592 -45.326 -11.183  1.00  0.00     0.001 C 
HETATM   12  C11 UNL     1     -40.454 -46.169 -11.589  1.00  0.00     0.015 C 
HETATM   13  C12 UNL     1     -40.434 -47.574 -11.088  1.00  0.00     0.140 C 
HETATM   14  S1  UNL     1     -41.467 -48.681 -11.978  1.00  0.00     0.144 S 
HETATM   15  O2  UNL     1     -42.565 -47.960 -12.744  1.00  0.00    -0.228 OA
HETATM   16  O3  UNL     1     -40.665 -49.414 -13.049  1.00  0.00    -0.228 OA
HETATM   17  C13 UNL     1     -42.186 -49.932 -10.918  1.00  0.00     0.140 C 
HETATM   18  C14 UNL     1     -43.573 -49.511 -10.582  1.00  0.00     0.015 C 
HETATM   19  C15 UNL     1     -43.988 -49.740  -9.157  1.00  0.00     0.003 C 
HETATM   20  C16 UNL     1     -42.990 -49.333  -8.134  1.00  0.00     0.025 C 
ENDBRANCH   3   5
BRANCH   1  21
HETATM   21  C2  UNL     1     -45.754 -50.861  -4.700  1.00  0.00     0.175 C 
HETATM   22  C1  UNL     1     -46.505 -52.050  -5.221  1.00  0.00     0.042 C 
BRANCH  21  23
HETATM   23  N2  UNL     1     -46.465 -50.118  -3.701  1.00  0.00    -0.338 N 
HETATM   24  C17 UNL     1     -47.335 -50.475  -2.618  1.00  0.00     0.141 C 
HETATM   25  C18 UNL     1     -47.820 -49.060  -2.617  1.00  0.00     0.096 C 
HETATM   26  C23 UNL     1     -46.591 -48.761  -3.357  1.00  0.00     0.226 C 
HETATM   27  O4  UNL     1     -45.866 -47.758  -3.634  1.00  0.00    -0.273 OA
BRANCH  25  28
HETATM   28  C19 UNL     1     -47.891 -48.418  -1.239  1.00  0.00     0.017 C 
BRANCH  28  29
HETATM   29  C20 UNL     1     -49.049 -47.440  -1.262  1.00  0.00     0.020 C 
BRANCH  29  30
HETATM   30  C21 UNL     1     -48.583 -46.014  -1.278  1.00  0.00     0.122 C 
BRANCH  30  31
HETATM   31  N3  UNL     1     -48.146 -45.599  -2.600  1.00  0.00    -0.367 N 
HETATM   32  C22 UNL     1     -47.233 -44.720  -2.764  1.00  0.00     0.196 C 
HETATM   33  N4  UNL     1     -46.833 -44.338  -4.069  1.00  0.00    -0.067 NA
HETATM   34  N5  UNL     1     -46.616 -44.126  -1.639  1.00  0.00    -0.067 NA
ATOM     35  H3  UNL     1     -48.582 -46.021  -3.421  1.00  0.00     0.161 HD
ENDBRANCH  30  31
ENDBRANCH  29  30
ENDBRANCH  28  29
ENDBRANCH  25  28
ENDBRANCH  21  23
ENDBRANCH   1  21
TORSDOF 7
ENDMDL
