MODEL 1
REMARK VINA RESULT: -6.700229332      0.000      0.000
REMARK  7 active torsions:
REMARK  status: ('A' for Active; 'I' for Inactive)
REMARK    1  A    between atoms: C2_2  and  C3_3 
REMARK    2  A    between atoms: C3_3  and  C6_6 
REMARK    3  A    between atoms: C6_6  and  C7_7 
REMARK       I    between atoms: N1_11  and  C11_12 
REMARK    4  A    between atoms: C13_15  and  C14_16 
REMARK       I    between atoms: C14_16  and  N2_18 
REMARK    5  A    between atoms: C18_22  and  C19_23 
REMARK    6  A    between atoms: C21_27  and  C22_28 
REMARK    7  A    between atoms: C23_31  and  C24_32 
ROOT
HETATM    1  C7  UNL     1     -44.374 -48.103  -8.992  1.00  0.00    -0.013 C 
HETATM    2  C8  UNL     1     -45.143 -46.823  -9.194  1.00  0.00     0.019 C 
HETATM    3  C9  UNL     1     -43.834 -46.084  -8.848  1.00  0.00     0.025 C 
HETATM    4  C10 UNL     1     -44.109 -45.435  -7.562  1.00  0.00     0.132 C 
HETATM    5  N1  UNL     1     -44.937 -46.230  -6.675  1.00  0.00    -0.338 N 
HETATM    6  C11 UNL     1     -45.737 -45.457  -5.809  1.00  0.00     0.216 C 
HETATM    7  C12 UNL     1     -45.684 -43.982  -5.813  1.00  0.00     0.117 C 
HETATM    8  O1  UNL     1     -46.511 -46.024  -5.020  1.00  0.00    -0.274 OA
HETATM    9  C13 UNL     1     -45.050 -47.642  -6.591  1.00  0.00     0.185 C 
HETATM   10  C20 UNL     1     -44.119 -48.336  -7.465  1.00  0.00     0.043 C 
HETATM   11  C21 UNL     1     -42.744 -48.072  -7.701  1.00  0.00     0.114 C 
HETATM   12  C23 UNL     1     -43.178 -47.371  -8.983  1.00  0.00     0.075 C 
ENDROOT
BRANCH   9  13
HETATM   13  C14 UNL     1     -44.961 -48.200  -5.210  1.00  0.00     0.244 C 
HETATM   14  O2  UNL     1     -44.110 -47.756  -4.392  1.00  0.00    -0.271 OA
HETATM   15  N2  UNL     1     -45.790 -49.222  -4.736  1.00  0.00    -0.337 N 
HETATM   16  C15 UNL     1     -45.705 -49.844  -3.439  1.00  0.00     0.127 C 
HETATM   17  C18 UNL     1     -46.901 -49.823  -5.403  1.00  0.00     0.176 C 
HETATM   18  C16 UNL     1     -45.882 -51.324  -3.807  1.00  0.00     0.022 C 
HETATM   19  C17 UNL     1     -46.777 -51.281  -5.012  1.00  0.00     0.036 C 
BRANCH  17  20
HETATM   20  C19 UNL     1     -48.214 -49.342  -4.866  1.00  0.00     0.254 C 
HETATM   21  N3  UNL     1     -49.349 -50.204  -4.840  1.00  0.00    -0.060 NA
HETATM   22  O3  UNL     1     -48.375 -48.190  -4.424  1.00  0.00    -0.275 OA
ENDBRANCH  17  20
ENDBRANCH   9  13
BRANCH   1  23
HETATM   23  C6  UNL     1     -44.947 -49.257  -9.552  1.00  0.00     0.020 C 
BRANCH  23  24
HETATM   24  C3  UNL     1     -44.376 -50.365 -10.302  1.00  0.00    -0.047 C 
HETATM   25  C4  UNL     1     -43.346 -51.173  -9.492  1.00  0.00     0.015 C 
HETATM   26  C5  UNL     1     -45.533 -51.353 -10.501  1.00  0.00     0.015 C 
BRANCH  24  27
HETATM   27  C2  UNL     1     -43.849 -50.165 -11.678  1.00  0.00     0.004 C 
HETATM   28  C1  UNL     1     -43.022 -51.299 -12.225  1.00  0.00     0.006 C 
ENDBRANCH  24  27
ENDBRANCH  23  24
ENDBRANCH   1  23
BRANCH  11  29
HETATM   29  C22 UNL     1     -41.740 -47.379  -6.960  1.00  0.00     0.178 C 
HETATM   30  O4  UNL     1     -41.133 -48.032  -6.031  1.00  0.00    -0.648 OA
HETATM   31  O5  UNL     1     -41.281 -46.082  -7.055  1.00  0.00    -0.648 OA
ENDBRANCH  11  29
BRANCH  12  32
HETATM   32  C24 UNL     1     -42.075 -47.376  -9.915  1.00  0.00     0.184 C 
HETATM   33  O6  UNL     1     -41.571 -46.285 -10.302  1.00  0.00    -0.647 OA
HETATM   34  O7  UNL     1     -41.485 -48.518 -10.455  1.00  0.00    -0.647 OA
ENDBRANCH  12  32
TORSDOF 7
ENDMDL
MODEL 2
REMARK VINA RESULT: -6.193736213      2.303      3.770
REMARK  7 active torsions:
REMARK  status: ('A' for Active; 'I' for Inactive)
REMARK    1  A    between atoms: C2_2  and  C3_3 
REMARK    2  A    between atoms: C3_3  and  C6_6 
REMARK    3  A    between atoms: C6_6  and  C7_7 
REMARK       I    between atoms: N1_11  and  C11_12 
REMARK    4  A    between atoms: C13_15  and  C14_16 
REMARK       I    between atoms: C14_16  and  N2_18 
REMARK    5  A    between atoms: C18_22  and  C19_23 
REMARK    6  A    between atoms: C21_27  and  C22_28 
REMARK    7  A    between atoms: C23_31  and  C24_32 
ROOT
HETATM    1  C7  UNL     1     -43.418 -46.887  -8.909  1.00  0.00    -0.013 C 
HETATM    2  C8  UNL     1     -44.627 -46.271  -8.253  1.00  0.00     0.019 C 
HETATM    3  C9  UNL     1     -43.736 -46.053  -7.013  1.00  0.00     0.025 C 
HETATM    4  C10 UNL     1     -44.292 -46.955  -5.999  1.00  0.00     0.132 C 
HETATM    5  N1  UNL     1     -44.764 -48.217  -6.539  1.00  0.00    -0.338 N 
HETATM    6  C11 UNL     1     -45.836 -48.773  -5.814  1.00  0.00     0.216 C 
HETATM    7  C12 UNL     1     -46.378 -48.121  -4.605  1.00  0.00     0.117 C 
HETATM    8  O1  UNL     1     -46.346 -49.841  -6.195  1.00  0.00    -0.274 OA
HETATM    9  C13 UNL     1     -44.306 -48.921  -7.682  1.00  0.00     0.185 C 
HETATM   10  C20 UNL     1     -43.144 -48.302  -8.299  1.00  0.00     0.043 C 
HETATM   11  C21 UNL     1     -41.983 -47.765  -7.685  1.00  0.00     0.114 C 
HETATM   12  C23 UNL     1     -42.615 -46.390  -7.870  1.00  0.00     0.075 C 
ENDROOT
BRANCH   9  13
HETATM   13  C14 UNL     1     -44.050 -50.375  -7.464  1.00  0.00     0.244 C 
HETATM   14  O2  UNL     1     -43.381 -50.767  -6.470  1.00  0.00    -0.271 OA
HETATM   15  N2  UNL     1     -44.520 -51.378  -8.319  1.00  0.00    -0.337 N 
HETATM   16  C15 UNL     1     -44.247 -52.787  -8.196  1.00  0.00     0.127 C 
HETATM   17  C18 UNL     1     -45.387 -51.229  -9.444  1.00  0.00     0.176 C 
HETATM   18  C16 UNL     1     -43.954 -53.162  -9.656  1.00  0.00     0.022 C 
HETATM   19  C17 UNL     1     -44.815 -52.216 -10.441  1.00  0.00     0.036 C 
BRANCH  17  20
HETATM   20  C19 UNL     1     -46.785 -51.676  -9.147  1.00  0.00     0.254 C 
HETATM   21  N3  UNL     1     -47.456 -52.589 -10.011  1.00  0.00    -0.060 NA
HETATM   22  O3  UNL     1     -47.417 -51.280  -8.150  1.00  0.00    -0.275 OA
ENDBRANCH  17  20
ENDBRANCH   9  13
BRANCH   1  23
HETATM   23  C6  UNL     1     -43.461 -46.979 -10.309  1.00  0.00     0.020 C 
BRANCH  23  24
HETATM   24  C3  UNL     1     -42.418 -47.152 -11.309  1.00  0.00    -0.047 C 
HETATM   25  C4  UNL     1     -42.950 -47.706 -12.643  1.00  0.00     0.015 C 
HETATM   26  C5  UNL     1     -41.964 -45.730 -11.665  1.00  0.00     0.015 C 
BRANCH  24  27
HETATM   27  C2  UNL     1     -41.149 -47.849 -10.976  1.00  0.00     0.004 C 
HETATM   28  C1  UNL     1     -41.031 -49.261 -11.489  1.00  0.00     0.006 C 
ENDBRANCH  24  27
ENDBRANCH  23  24
ENDBRANCH   1  23
BRANCH  11  29
HETATM   29  C22 UNL     1     -41.367 -47.965  -6.414  1.00  0.00     0.178 C 
HETATM   30  O4  UNL     1     -41.086 -49.175  -6.075  1.00  0.00    -0.648 OA
HETATM   31  O5  UNL     1     -41.002 -47.065  -5.435  1.00  0.00    -0.648 OA
ENDBRANCH  11  29
BRANCH  12  32
HETATM   32  C24 UNL     1     -41.570 -45.394  -7.895  1.00  0.00     0.184 C 
HETATM   33  O6  UNL     1     -41.727 -44.301  -7.282  1.00  0.00    -0.647 OA
HETATM   34  O7  UNL     1     -40.352 -45.524  -8.559  1.00  0.00    -0.647 OA
ENDBRANCH  12  32
TORSDOF 7
ENDMDL
MODEL 3
REMARK VINA RESULT: -5.949446073      6.079      9.408
REMARK  7 active torsions:
REMARK  status: ('A' for Active; 'I' for Inactive)
REMARK    1  A    between atoms: C2_2  and  C3_3 
REMARK    2  A    between atoms: C3_3  and  C6_6 
REMARK    3  A    between atoms: C6_6  and  C7_7 
REMARK       I    between atoms: N1_11  and  C11_12 
REMARK    4  A    between atoms: C13_15  and  C14_16 
REMARK       I    between atoms: C14_16  and  N2_18 
REMARK    5  A    between atoms: C18_22  and  C19_23 
REMARK    6  A    between atoms: C21_27  and  C22_28 
REMARK    7  A    between atoms: C23_31  and  C24_32 
ROOT
HETATM    1  C7  UNL     1     -44.565 -52.710 -11.094  1.00  0.00    -0.013 C 
HETATM    2  C8  UNL     1     -45.973 -52.216 -11.305  1.00  0.00     0.019 C 
HETATM    3  C9  UNL     1     -46.308 -52.853  -9.941  1.00  0.00     0.025 C 
HETATM    4  C10 UNL     1     -47.205 -53.967 -10.267  1.00  0.00     0.132 C 
HETATM    5  N1  UNL     1     -46.861 -54.649 -11.500  1.00  0.00    -0.338 N 
HETATM    6  C11 UNL     1     -47.972 -55.207 -12.163  1.00  0.00     0.216 C 
HETATM    7  C12 UNL     1     -49.336 -55.114 -11.607  1.00  0.00     0.117 C 
HETATM    8  O1  UNL     1     -47.808 -55.794 -13.246  1.00  0.00    -0.274 OA
HETATM    9  C13 UNL     1     -45.588 -54.797 -12.109  1.00  0.00     0.185 C 
HETATM   10  C20 UNL     1     -44.507 -54.261 -11.297  1.00  0.00     0.043 C 
HETATM   11  C21 UNL     1     -44.286 -54.391  -9.900  1.00  0.00     0.114 C 
HETATM   12  C23 UNL     1     -44.876 -52.993  -9.755  1.00  0.00     0.075 C 
ENDROOT
BRANCH   9  13
HETATM   13  C14 UNL     1     -45.255 -56.186 -12.541  1.00  0.00     0.244 C 
HETATM   14  O2  UNL     1     -45.543 -57.172 -11.810  1.00  0.00    -0.271 OA
HETATM   15  N2  UNL     1     -44.621 -56.486 -13.752  1.00  0.00    -0.337 N 
HETATM   16  C15 UNL     1     -44.216 -57.798 -14.189  1.00  0.00     0.127 C 
HETATM   17  C18 UNL     1     -44.288 -55.584 -14.808  1.00  0.00     0.176 C 
HETATM   18  C16 UNL     1     -42.821 -57.504 -14.759  1.00  0.00     0.022 C 
HETATM   19  C17 UNL     1     -42.942 -56.099 -15.275  1.00  0.00     0.036 C 
BRANCH  17  20
HETATM   20  C19 UNL     1     -45.223 -55.702 -15.972  1.00  0.00     0.254 C 
HETATM   21  N3  UNL     1     -44.721 -55.893 -17.293  1.00  0.00    -0.060 NA
HETATM   22  O3  UNL     1     -46.460 -55.642 -15.846  1.00  0.00    -0.275 OA
ENDBRANCH  17  20
ENDBRANCH   9  13
BRANCH   1  23
HETATM   23  C6  UNL     1     -43.576 -52.097 -11.881  1.00  0.00     0.020 C 
BRANCH  23  24
HETATM   24  C3  UNL     1     -42.976 -50.773 -11.839  1.00  0.00    -0.047 C 
HETATM   25  C4  UNL     1     -41.840 -50.659 -10.807  1.00  0.00     0.015 C 
HETATM   26  C5  UNL     1     -42.257 -50.615 -13.186  1.00  0.00     0.015 C 
BRANCH  24  27
HETATM   27  C2  UNL     1     -43.822 -49.554 -11.752  1.00  0.00     0.004 C 
HETATM   28  C1  UNL     1     -44.126 -49.075 -10.356  1.00  0.00     0.006 C 
ENDBRANCH  24  27
ENDBRANCH  23  24
ENDBRANCH   1  23
BRANCH  11  29
HETATM   29  C22 UNL     1     -44.736 -55.326  -8.922  1.00  0.00     0.178 C 
HETATM   30  O4  UNL     1     -43.867 -55.770  -8.082  1.00  0.00    -0.648 OA
HETATM   31  O5  UNL     1     -45.983 -55.871  -8.699  1.00  0.00    -0.648 OA
ENDBRANCH  11  29
BRANCH  12  32
HETATM   32  C24 UNL     1     -44.378 -52.399  -8.537  1.00  0.00     0.184 C 
HETATM   33  O6  UNL     1     -43.190 -51.975  -8.483  1.00  0.00    -0.647 OA
HETATM   34  O7  UNL     1     -45.111 -52.240  -7.362  1.00  0.00    -0.647 OA
ENDBRANCH  12  32
TORSDOF 7
ENDMDL
MODEL 4
REMARK VINA RESULT: -5.945670802      2.944      6.460
REMARK  7 active torsions:
REMARK  status: ('A' for Active; 'I' for Inactive)
REMARK    1  A    between atoms: C2_2  and  C3_3 
REMARK    2  A    between atoms: C3_3  and  C6_6 
REMARK    3  A    between atoms: C6_6  and  C7_7 
REMARK       I    between atoms: N1_11  and  C11_12 
REMARK    4  A    between atoms: C13_15  and  C14_16 
REMARK       I    between atoms: C14_16  and  N2_18 
REMARK    5  A    between atoms: C18_22  and  C19_23 
REMARK    6  A    between atoms: C21_27  and  C22_28 
REMARK    7  A    between atoms: C23_31  and  C24_32 
ROOT
HETATM    1  C7  UNL     1     -42.939 -48.262  -7.202  1.00  0.00    -0.013 C 
HETATM    2  C8  UNL     1     -41.662 -47.739  -6.597  1.00  0.00     0.019 C 
HETATM    3  C9  UNL     1     -42.449 -46.456  -6.259  1.00  0.00     0.025 C 
HETATM    4  C10 UNL     1     -41.854 -45.424  -7.115  1.00  0.00     0.132 C 
HETATM    5  N1  UNL     1     -41.472 -45.908  -8.428  1.00  0.00    -0.338 N 
HETATM    6  C11 UNL     1     -40.371 -45.224  -8.981  1.00  0.00     0.216 C 
HETATM    7  C12 UNL     1     -39.716 -44.106  -8.274  1.00  0.00     0.117 C 
HETATM    8  O1  UNL     1     -39.931 -45.565 -10.092  1.00  0.00    -0.274 OA
HETATM    9  C13 UNL     1     -42.040 -46.964  -9.187  1.00  0.00     0.185 C 
HETATM   10  C20 UNL     1     -43.220 -47.538  -8.561  1.00  0.00     0.043 C 
HETATM   11  C21 UNL     1     -44.311 -46.881  -7.935  1.00  0.00     0.114 C 
HETATM   12  C23 UNL     1     -43.643 -47.206  -6.604  1.00  0.00     0.075 C 
ENDROOT
BRANCH   9  13
HETATM   13  C14 UNL     1     -42.334 -46.628 -10.611  1.00  0.00     0.244 C 
HETATM   14  O2  UNL     1     -42.872 -45.528 -10.913  1.00  0.00    -0.271 OA
HETATM   15  N2  UNL     1     -42.042 -47.480 -11.681  1.00  0.00    -0.337 N 
HETATM   16  C15 UNL     1     -42.364 -47.237 -13.064  1.00  0.00     0.127 C 
HETATM   17  C18 UNL     1     -41.339 -48.723 -11.639  1.00  0.00     0.176 C 
HETATM   18  C16 UNL     1     -42.883 -48.617 -13.496  1.00  0.00     0.022 C 
HETATM   19  C17 UNL     1     -42.097 -49.569 -12.641  1.00  0.00     0.036 C 
BRANCH  17  20
HETATM   20  C19 UNL     1     -39.937 -48.599 -12.150  1.00  0.00     0.254 C 
HETATM   21  N3  UNL     1     -39.455 -49.470 -13.172  1.00  0.00    -0.060 NA
HETATM   22  O3  UNL     1     -39.139 -47.748 -11.718  1.00  0.00    -0.275 OA
ENDBRANCH  17  20
ENDBRANCH   9  13
BRANCH   1  23
HETATM   23  C6  UNL     1     -43.004 -49.652  -7.390  1.00  0.00     0.020 C 
BRANCH  23  24
HETATM   24  C3  UNL     1     -44.006 -50.509  -8.003  1.00  0.00    -0.047 C 
HETATM   25  C4  UNL     1     -43.401 -51.746  -8.691  1.00  0.00     0.015 C 
HETATM   26  C5  UNL     1     -44.799 -51.102  -6.829  1.00  0.00     0.015 C 
BRANCH  24  27
HETATM   27  C2  UNL     1     -45.061 -49.942  -8.883  1.00  0.00     0.004 C 
HETATM   28  C1  UNL     1     -44.935 -50.282 -10.346  1.00  0.00     0.006 C 
ENDBRANCH  24  27
ENDBRANCH  23  24
ENDBRANCH   1  23
BRANCH  11  29
HETATM   29  C22 UNL     1     -44.839 -45.558  -8.024  1.00  0.00     0.178 C 
HETATM   30  O4  UNL     1     -45.653 -45.308  -8.989  1.00  0.00    -0.648 OA
HETATM   31  O5  UNL     1     -44.627 -44.447  -7.236  1.00  0.00    -0.648 OA
ENDBRANCH  11  29
BRANCH  12  32
HETATM   32  C24 UNL     1     -44.648 -47.225  -5.568  1.00  0.00     0.184 C 
HETATM   33  O6  UNL     1     -44.846 -48.279  -4.901  1.00  0.00    -0.647 OA
HETATM   34  O7  UNL     1     -45.458 -46.147  -5.214  1.00  0.00    -0.647 OA
ENDBRANCH  12  32
TORSDOF 7
ENDMDL
MODEL 5
REMARK VINA RESULT: -5.881598154      3.706      6.638
REMARK  7 active torsions:
REMARK  status: ('A' for Active; 'I' for Inactive)
REMARK    1  A    between atoms: C2_2  and  C3_3 
REMARK    2  A    between atoms: C3_3  and  C6_6 
REMARK    3  A    between atoms: C6_6  and  C7_7 
REMARK       I    between atoms: N1_11  and  C11_12 
REMARK    4  A    between atoms: C13_15  and  C14_16 
REMARK       I    between atoms: C14_16  and  N2_18 
REMARK    5  A    between atoms: C18_22  and  C19_23 
REMARK    6  A    between atoms: C21_27  and  C22_28 
REMARK    7  A    between atoms: C23_31  and  C24_32 
ROOT
HETATM    1  C7  UNL     1     -46.470 -50.381  -5.322  1.00  0.00    -0.013 C 
HETATM    2  C8  UNL     1     -45.834 -51.132  -4.181  1.00  0.00     0.019 C 
HETATM    3  C9  UNL     1     -46.854 -52.254  -4.466  1.00  0.00     0.025 C 
HETATM    4  C10 UNL     1     -47.734 -52.258  -3.293  1.00  0.00     0.132 C 
HETATM    5  N1  UNL     1     -48.001 -50.933  -2.763  1.00  0.00    -0.338 N 
HETATM    6  C11 UNL     1     -48.232 -50.920  -1.373  1.00  0.00     0.216 C 
HETATM    7  C12 UNL     1     -48.226 -52.160  -0.573  1.00  0.00     0.117 C 
HETATM    8  O1  UNL     1     -48.445 -49.840  -0.798  1.00  0.00    -0.274 OA
HETATM    9  C13 UNL     1     -48.034 -49.691  -3.449  1.00  0.00     0.185 C 
HETATM   10  C20 UNL     1     -47.871 -49.835  -4.886  1.00  0.00     0.043 C 
HETATM   11  C21 UNL     1     -48.462 -50.779  -5.766  1.00  0.00     0.114 C 
HETATM   12  C23 UNL     1     -47.149 -51.549  -5.699  1.00  0.00     0.075 C 
ENDROOT
BRANCH   9  13
HETATM   13  C14 UNL     1     -49.228 -48.844  -3.157  1.00  0.00     0.244 C 
HETATM   14  O2  UNL     1     -50.357 -49.371  -2.964  1.00  0.00    -0.271 OA
HETATM   15  N2  UNL     1     -49.181 -47.448  -3.077  1.00  0.00    -0.337 N 
HETATM   16  C15 UNL     1     -50.310 -46.578  -2.865  1.00  0.00     0.127 C 
HETATM   17  C18 UNL     1     -48.027 -46.609  -3.140  1.00  0.00     0.176 C 
HETATM   18  C16 UNL     1     -50.021 -45.464  -3.883  1.00  0.00     0.022 C 
HETATM   19  C17 UNL     1     -48.521 -45.420  -3.937  1.00  0.00     0.036 C 
BRANCH  17  20
HETATM   20  C19 UNL     1     -47.628 -46.090  -1.792  1.00  0.00     0.254 C 
HETATM   21  N3  UNL     1     -47.164 -44.751  -1.637  1.00  0.00    -0.060 NA
HETATM   22  O3  UNL     1     -47.681 -46.788  -0.763  1.00  0.00    -0.275 OA
ENDBRANCH  17  20
ENDBRANCH   9  13
BRANCH   1  23
HETATM   23  C6  UNL     1     -45.708 -49.335  -5.866  1.00  0.00     0.020 C 
BRANCH  23  24
HETATM   24  C3  UNL     1     -44.596 -49.322  -6.805  1.00  0.00    -0.047 C 
HETATM   25  C4  UNL     1     -45.002 -48.848  -8.212  1.00  0.00     0.015 C 
HETATM   26  C5  UNL     1     -43.662 -48.210  -6.305  1.00  0.00     0.015 C 
BRANCH  24  27
HETATM   27  C2  UNL     1     -43.696 -50.497  -6.939  1.00  0.00     0.004 C 
HETATM   28  C1  UNL     1     -43.524 -51.024  -8.340  1.00  0.00     0.006 C 
ENDBRANCH  24  27
ENDBRANCH  23  24
ENDBRANCH   1  23
BRANCH  11  29
HETATM   29  C22 UNL     1     -49.630 -51.595  -5.684  1.00  0.00     0.178 C 
HETATM   30  O4  UNL     1     -50.248 -51.858  -6.782  1.00  0.00    -0.648 OA
HETATM   31  O5  UNL     1     -50.251 -52.176  -4.598  1.00  0.00    -0.648 OA
ENDBRANCH  11  29
BRANCH  12  32
HETATM   32  C24 UNL     1     -47.020 -52.359  -6.888  1.00  0.00     0.184 C 
HETATM   33  O6  UNL     1     -46.998 -53.618  -6.793  1.00  0.00    -0.647 OA
HETATM   34  O7  UNL     1     -46.914 -51.867  -8.188  1.00  0.00    -0.647 OA
ENDBRANCH  12  32
TORSDOF 7
ENDMDL
