MODEL 1
REMARK VINA RESULT: -9.341324404      0.000      0.000
REMARK  12 active torsions:
REMARK  status: ('A' for Active; 'I' for Inactive)
REMARK    1  A    between atoms: C2_2  and  O1_5 
REMARK    2  A    between atoms: O1_5  and  S1_6 
REMARK    3  A    between atoms: S1_6  and  O4_9 
REMARK    4  A    between atoms: O4_9  and  C5_10 
REMARK    5  A    between atoms: C6_11  and  C7_12 
REMARK    6  A    between atoms: C7_12  and  O5_13 
REMARK    7  A    between atoms: C7_12  and  C8_15 
REMARK    8  A    between atoms: C8_15  and  O6_16 
REMARK    9  A    between atoms: C8_15  and  C9_18 
REMARK   10  A    between atoms: C9_18  and  O7_19 
REMARK   11  A    between atoms: C10_22  and  O9_23 
REMARK   12  A    between atoms: C11_25  and  N1_26 
ROOT
HETATM    1  C5  UNL     1      39.690  10.936  66.870  1.00  0.00     0.176 A 
HETATM    2  C6  UNL     1      40.643  11.020  67.858  1.00  0.00     0.126 A 
HETATM    3  O8  UNL     1      41.874  10.699  67.514  1.00  0.00    -0.285 OA
HETATM    4  C10 UNL     1      42.225  10.313  66.309  1.00  0.00     0.222 A 
HETATM    5  C11 UNL     1      41.323  10.208  65.273  1.00  0.00     0.213 A 
HETATM    6  C12 UNL     1      40.019  10.534  65.583  1.00  0.00     0.246 A 
HETATM    7  O12 UNL     1      39.168  10.448  64.661  1.00  0.00    -0.282 OA
ENDROOT
BRANCH   1   8
HETATM    8  O4  UNL     1      38.382  11.263  67.178  1.00  0.00    -0.204 OA
BRANCH   8   9
HETATM    9  S1  UNL     1      37.133  10.157  67.415  1.00  0.00     0.407 S 
HETATM   10  O2  UNL     1      37.442   8.829  66.734  1.00  0.00    -0.168 OA
HETATM   11  O3  UNL     1      37.072   9.845  68.884  1.00  0.00    -0.168 OA
BRANCH   9  12
HETATM   12  O1  UNL     1      35.669  10.663  66.848  1.00  0.00    -0.243 OA
BRANCH  12  13
HETATM   13  C2  UNL     1      35.144  11.779  67.450  1.00  0.00     0.071 C 
HETATM   14  C1  UNL     1      35.436  13.077  66.753  1.00  0.00     0.047 C 
HETATM   15  C3  UNL     1      35.590  11.938  68.890  1.00  0.00     0.047 C 
HETATM   16  C4  UNL     1      33.629  11.590  67.494  1.00  0.00     0.047 C 
ENDBRANCH  12  13
ENDBRANCH   9  12
ENDBRANCH   8   9
ENDBRANCH   1   8
BRANCH   2  17
HETATM   17  C7  UNL     1      40.313  11.453  69.256  1.00  0.00     0.209 C 
BRANCH  17  18
HETATM   18  O5  UNL     1      39.790  10.356  69.983  1.00  0.00    -0.386 OA
ATOM     19  H5  UNL     1      38.841  10.368  69.941  1.00  0.00     0.210 HD
ENDBRANCH  17  18
BRANCH  17  20
HETATM   20  C8  UNL     1      41.529  11.895  70.006  1.00  0.00     0.177 C 
BRANCH  20  21
HETATM   21  O6  UNL     1      42.407  12.648  69.188  1.00  0.00    -0.390 OA
ATOM     22  H6  UNL     1      43.142  12.993  69.683  1.00  0.00     0.210 HD
ENDBRANCH  20  21
BRANCH  20  23
HETATM   23  C9  UNL     1      41.051  12.863  71.087  1.00  0.00     0.198 C 
BRANCH  23  24
HETATM   24  O7  UNL     1      42.049  13.795  71.401  1.00  0.00    -0.398 OA
ATOM     25  H7  UNL     1      41.670  14.597  71.740  1.00  0.00     0.209 HD
ENDBRANCH  23  24
ENDBRANCH  20  23
ENDBRANCH  17  20
ENDBRANCH   2  17
BRANCH   5  26
HETATM   26  N1  UNL     1      41.715   9.788  63.971  1.00  0.00    -0.106 N 
HETATM   27  O10 UNL     1      40.998   9.993  62.974  1.00  0.00    -0.531 OA
HETATM   28  O11 UNL     1      42.901   9.137  63.749  1.00  0.00    -0.531 OA
ENDBRANCH   5  26
BRANCH   4  29
HETATM   29  O9  UNL     1      43.558   9.985  66.012  1.00  0.00    -0.339 OA
ATOM     30  H9  UNL     1      43.779   9.162  65.591  1.00  0.00     0.220 HD
ENDBRANCH   4  29
TORSDOF 12
ENDMDL
MODEL 2
REMARK VINA RESULT: -8.619987708      1.535      1.984
REMARK  12 active torsions:
REMARK  status: ('A' for Active; 'I' for Inactive)
REMARK    1  A    between atoms: C2_2  and  O1_5 
REMARK    2  A    between atoms: O1_5  and  S1_6 
REMARK    3  A    between atoms: S1_6  and  O4_9 
REMARK    4  A    between atoms: O4_9  and  C5_10 
REMARK    5  A    between atoms: C6_11  and  C7_12 
REMARK    6  A    between atoms: C7_12  and  O5_13 
REMARK    7  A    between atoms: C7_12  and  C8_15 
REMARK    8  A    between atoms: C8_15  and  O6_16 
REMARK    9  A    between atoms: C8_15  and  C9_18 
REMARK   10  A    between atoms: C9_18  and  O7_19 
REMARK   11  A    between atoms: C10_22  and  O9_23 
REMARK   12  A    between atoms: C11_25  and  N1_26 
ROOT
HETATM    1  C5  UNL     1      39.525  10.941  68.130  1.00  0.00     0.176 A 
HETATM    2  C6  UNL     1      40.531  11.425  68.933  1.00  0.00     0.126 A 
HETATM    3  O8  UNL     1      41.730  11.497  68.392  1.00  0.00    -0.285 OA
HETATM    4  C10 UNL     1      42.004  11.140  67.159  1.00  0.00     0.222 A 
HETATM    5  C11 UNL     1      41.045  10.648  66.300  1.00  0.00     0.213 A 
HETATM    6  C12 UNL     1      39.771  10.553  66.821  1.00  0.00     0.246 A 
HETATM    7  O12 UNL     1      38.870  10.106  66.065  1.00  0.00    -0.282 OA
ENDROOT
BRANCH   1   8
HETATM    8  O4  UNL     1      38.246  10.846  68.650  1.00  0.00    -0.204 OA
BRANCH   8   9
HETATM    9  S1  UNL     1      36.894  11.662  68.063  1.00  0.00     0.407 S 
HETATM   10  O2  UNL     1      35.893  11.938  69.178  1.00  0.00    -0.168 OA
HETATM   11  O3  UNL     1      37.348  13.017  67.593  1.00  0.00    -0.168 OA
BRANCH   9  12
HETATM   12  O1  UNL     1      36.084  10.855  66.874  1.00  0.00    -0.243 OA
BRANCH  12  13
HETATM   13  C2  UNL     1      35.364   9.758  67.276  1.00  0.00     0.071 C 
HETATM   14  C1  UNL     1      35.806   9.145  68.574  1.00  0.00     0.047 C 
HETATM   15  C3  UNL     1      35.351   8.648  66.243  1.00  0.00     0.047 C 
HETATM   16  C4  UNL     1      33.912  10.210  67.430  1.00  0.00     0.047 C 
ENDBRANCH  12  13
ENDBRANCH   9  12
ENDBRANCH   8   9
ENDBRANCH   1   8
BRANCH   2  17
HETATM   17  C7  UNL     1      40.290  11.852  70.352  1.00  0.00     0.209 C 
BRANCH  17  18
HETATM   18  O5  UNL     1      40.024  10.715  71.152  1.00  0.00    -0.386 OA
ATOM     19  H5  UNL     1      40.239   9.926  70.667  1.00  0.00     0.210 HD
ENDBRANCH  17  18
BRANCH  17  20
HETATM   20  C8  UNL     1      41.496  12.499  70.953  1.00  0.00     0.177 C 
BRANCH  20  21
HETATM   21  O6  UNL     1      42.377  12.996  69.962  1.00  0.00    -0.390 OA
ATOM     22  H6  UNL     1      43.280  12.760  70.140  1.00  0.00     0.210 HD
ENDBRANCH  20  21
BRANCH  20  23
HETATM   23  C9  UNL     1      41.003  13.729  71.712  1.00  0.00     0.198 C 
BRANCH  23  24
HETATM   24  O7  UNL     1      41.838  14.830  71.477  1.00  0.00    -0.398 OA
ATOM     25  H7  UNL     1      42.461  14.641  70.785  1.00  0.00     0.209 HD
ENDBRANCH  23  24
ENDBRANCH  20  23
ENDBRANCH  17  20
ENDBRANCH   2  17
BRANCH   5  26
HETATM   26  N1  UNL     1      41.353  10.263  64.966  1.00  0.00    -0.106 N 
HETATM   27  O10 UNL     1      40.582  10.506  64.019  1.00  0.00    -0.531 OA
HETATM   28  O11 UNL     1      42.515   9.604  64.654  1.00  0.00    -0.531 OA
ENDBRANCH   5  26
BRANCH   4  29
HETATM   29  O9  UNL     1      43.307  11.243  66.645  1.00  0.00    -0.339 OA
ATOM     30  H9  UNL     1      43.468  11.242  65.709  1.00  0.00     0.220 HD
ENDBRANCH   4  29
TORSDOF 12
ENDMDL
MODEL 3
REMARK VINA RESULT: -8.449219614      1.638      2.170
REMARK  12 active torsions:
REMARK  status: ('A' for Active; 'I' for Inactive)
REMARK    1  A    between atoms: C2_2  and  O1_5 
REMARK    2  A    between atoms: O1_5  and  S1_6 
REMARK    3  A    between atoms: S1_6  and  O4_9 
REMARK    4  A    between atoms: O4_9  and  C5_10 
REMARK    5  A    between atoms: C6_11  and  C7_12 
REMARK    6  A    between atoms: C7_12  and  O5_13 
REMARK    7  A    between atoms: C7_12  and  C8_15 
REMARK    8  A    between atoms: C8_15  and  O6_16 
REMARK    9  A    between atoms: C8_15  and  C9_18 
REMARK   10  A    between atoms: C9_18  and  O7_19 
REMARK   11  A    between atoms: C10_22  and  O9_23 
REMARK   12  A    between atoms: C11_25  and  N1_26 
ROOT
HETATM    1  C5  UNL     1      39.846  11.058  68.350  1.00  0.00     0.176 A 
HETATM    2  C6  UNL     1      40.713  11.749  69.164  1.00  0.00     0.126 A 
HETATM    3  O8  UNL     1      41.929  11.944  68.694  1.00  0.00    -0.285 OA
HETATM    4  C10 UNL     1      42.341  11.523  67.521  1.00  0.00     0.222 A 
HETATM    5  C11 UNL     1      41.526  10.826  66.656  1.00  0.00     0.213 A 
HETATM    6  C12 UNL     1      40.241  10.596  67.103  1.00  0.00     0.246 A 
HETATM    7  O12 UNL     1      39.469   9.961  66.339  1.00  0.00    -0.282 OA
ENDROOT
BRANCH   1   8
HETATM    8  O4  UNL     1      38.557  10.827  68.797  1.00  0.00    -0.204 OA
BRANCH   8   9
HETATM    9  S1  UNL     1      37.164  11.513  68.142  1.00  0.00     0.407 S 
HETATM   10  O2  UNL     1      36.087  11.689  69.207  1.00  0.00    -0.168 OA
HETATM   11  O3  UNL     1      37.509  12.906  67.694  1.00  0.00    -0.168 OA
BRANCH   9  12
HETATM   12  O1  UNL     1      36.493  10.637  66.916  1.00  0.00    -0.243 OA
BRANCH  12  13
HETATM   13  C2  UNL     1      35.522   9.739  67.281  1.00  0.00     0.071 C 
HETATM   14  C1  UNL     1      34.127  10.292  67.332  1.00  0.00     0.047 C 
HETATM   15  C3  UNL     1      35.792   9.089  68.624  1.00  0.00     0.047 C 
HETATM   16  C4  UNL     1      35.551   8.610  66.251  1.00  0.00     0.047 C 
ENDBRANCH  12  13
ENDBRANCH   9  12
ENDBRANCH   8   9
ENDBRANCH   1   8
BRANCH   2  17
HETATM   17  C7  UNL     1      40.310  12.260  70.517  1.00  0.00     0.209 C 
BRANCH  17  18
HETATM   18  O5  UNL     1      39.856  11.183  71.316  1.00  0.00    -0.386 OA
ATOM     19  H5  UNL     1      39.407  11.520  72.082  1.00  0.00     0.210 HD
ENDBRANCH  17  18
BRANCH  17  20
HETATM   20  C8  UNL     1      41.465  12.856  71.255  1.00  0.00     0.177 C 
BRANCH  20  21
HETATM   21  O6  UNL     1      42.503  13.255  70.378  1.00  0.00    -0.390 OA
ATOM     22  H6  UNL     1      42.630  12.629  69.673  1.00  0.00     0.210 HD
ENDBRANCH  20  21
BRANCH  20  23
HETATM   23  C9  UNL     1      40.957  14.146  71.897  1.00  0.00     0.198 C 
BRANCH  23  24
HETATM   24  O7  UNL     1      41.757  15.236  71.527  1.00  0.00    -0.398 OA
ATOM     25  H7  UNL     1      41.693  15.936  72.167  1.00  0.00     0.209 HD
ENDBRANCH  23  24
ENDBRANCH  20  23
ENDBRANCH  17  20
ENDBRANCH   2  17
BRANCH   5  26
HETATM   26  N1  UNL     1      41.983  10.373  65.387  1.00  0.00    -0.106 N 
HETATM   27  O10 UNL     1      42.963   9.613  65.277  1.00  0.00    -0.531 OA
HETATM   28  O11 UNL     1      41.367  10.749  64.222  1.00  0.00    -0.531 OA
ENDBRANCH   5  26
BRANCH   4  29
HETATM   29  O9  UNL     1      43.653  11.765  67.082  1.00  0.00    -0.339 OA
ATOM     30  H9  UNL     1      43.843  11.927  66.166  1.00  0.00     0.220 HD
ENDBRANCH   4  29
TORSDOF 12
ENDMDL
MODEL 4
REMARK VINA RESULT: -8.149917760      1.878      4.809
REMARK  12 active torsions:
REMARK  status: ('A' for Active; 'I' for Inactive)
REMARK    1  A    between atoms: C2_2  and  O1_5 
REMARK    2  A    between atoms: O1_5  and  S1_6 
REMARK    3  A    between atoms: S1_6  and  O4_9 
REMARK    4  A    between atoms: O4_9  and  C5_10 
REMARK    5  A    between atoms: C6_11  and  C7_12 
REMARK    6  A    between atoms: C7_12  and  O5_13 
REMARK    7  A    between atoms: C7_12  and  C8_15 
REMARK    8  A    between atoms: C8_15  and  O6_16 
REMARK    9  A    between atoms: C8_15  and  C9_18 
REMARK   10  A    between atoms: C9_18  and  O7_19 
REMARK   11  A    between atoms: C10_22  and  O9_23 
REMARK   12  A    between atoms: C11_25  and  N1_26 
ROOT
HETATM    1  C5  UNL     1      39.916  10.251  67.449  1.00  0.00     0.176 A 
HETATM    2  C6  UNL     1      40.996  10.492  66.632  1.00  0.00     0.126 A 
HETATM    3  O8  UNL     1      41.924  11.296  67.110  1.00  0.00    -0.285 OA
HETATM    4  C10 UNL     1      41.870  11.862  68.293  1.00  0.00     0.222 A 
HETATM    5  C11 UNL     1      40.819  11.665  69.161  1.00  0.00     0.213 A 
HETATM    6  C12 UNL     1      39.819  10.830  68.706  1.00  0.00     0.246 A 
HETATM    7  O12 UNL     1      38.842  10.628  69.473  1.00  0.00    -0.282 OA
ENDROOT
BRANCH   1   8
HETATM    8  O4  UNL     1      38.912   9.413  66.995  1.00  0.00    -0.204 OA
BRANCH   8   9
HETATM    9  S1  UNL     1      37.480   9.919  66.265  1.00  0.00     0.407 S 
HETATM   10  O2  UNL     1      37.714  10.307  64.810  1.00  0.00    -0.168 OA
HETATM   11  O3  UNL     1      36.551   8.738  66.217  1.00  0.00    -0.168 OA
BRANCH   9  12
HETATM   12  O1  UNL     1      36.768  11.212  67.002  1.00  0.00    -0.243 OA
BRANCH  12  13
HETATM   13  C2  UNL     1      35.722  10.923  67.842  1.00  0.00     0.071 C 
HETATM   14  C1  UNL     1      35.838   9.622  68.583  1.00  0.00     0.047 C 
HETATM   15  C3  UNL     1      34.381  10.914  67.135  1.00  0.00     0.047 C 
HETATM   16  C4  UNL     1      35.651  12.053  68.869  1.00  0.00     0.047 C 
ENDBRANCH  12  13
ENDBRANCH   9  12
ENDBRANCH   8   9
ENDBRANCH   1   8
BRANCH   2  17
HETATM   17  C7  UNL     1      41.123   9.878  65.268  1.00  0.00     0.209 C 
BRANCH  17  18
HETATM   18  O5  UNL     1      40.353  10.618  64.340  1.00  0.00    -0.386 OA
ATOM     19  H5  UNL     1      39.725  10.044  63.916  1.00  0.00     0.210 HD
ENDBRANCH  17  18
BRANCH  17  20
HETATM   20  C8  UNL     1      42.530   9.929  64.763  1.00  0.00     0.177 C 
BRANCH  20  21
HETATM   21  O6  UNL     1      43.418   9.215  65.603  1.00  0.00    -0.390 OA
ATOM     22  H6  UNL     1      43.708   8.403  65.203  1.00  0.00     0.210 HD
ENDBRANCH  20  21
BRANCH  20  23
HETATM   23  C9  UNL     1      42.544   9.183  63.429  1.00  0.00     0.198 C 
BRANCH  23  24
HETATM   24  O7  UNL     1      43.794   8.591  63.202  1.00  0.00    -0.398 OA
ATOM     25  H7  UNL     1      43.695   7.705  62.873  1.00  0.00     0.209 HD
ENDBRANCH  23  24
ENDBRANCH  20  23
ENDBRANCH  17  20
ENDBRANCH   2  17
BRANCH   5  26
HETATM   26  N1  UNL     1      40.769  12.285  70.441  1.00  0.00    -0.106 N 
HETATM   27  O10 UNL     1      40.486  11.643  71.469  1.00  0.00    -0.531 OA
HETATM   28  O11 UNL     1      41.033  13.621  70.606  1.00  0.00    -0.531 OA
ENDBRANCH   5  26
BRANCH   4  29
HETATM   29  O9  UNL     1      42.896  12.711  68.739  1.00  0.00    -0.339 OA
ATOM     30  H9  UNL     1      42.804  13.216  69.538  1.00  0.00     0.220 HD
ENDBRANCH   4  29
TORSDOF 12
ENDMDL
MODEL 5
REMARK VINA RESULT: -8.063395394      1.817      4.735
REMARK  12 active torsions:
REMARK  status: ('A' for Active; 'I' for Inactive)
REMARK    1  A    between atoms: C2_2  and  O1_5 
REMARK    2  A    between atoms: O1_5  and  S1_6 
REMARK    3  A    between atoms: S1_6  and  O4_9 
REMARK    4  A    between atoms: O4_9  and  C5_10 
REMARK    5  A    between atoms: C6_11  and  C7_12 
REMARK    6  A    between atoms: C7_12  and  O5_13 
REMARK    7  A    between atoms: C7_12  and  C8_15 
REMARK    8  A    between atoms: C8_15  and  O6_16 
REMARK    9  A    between atoms: C8_15  and  C9_18 
REMARK   10  A    between atoms: C9_18  and  O7_19 
REMARK   11  A    between atoms: C10_22  and  O9_23 
REMARK   12  A    between atoms: C11_25  and  N1_26 
ROOT
HETATM    1  C5  UNL     1      39.887  10.224  67.420  1.00  0.00     0.176 A 
HETATM    2  C6  UNL     1      40.869  10.487  66.493  1.00  0.00     0.126 A 
HETATM    3  O8  UNL     1      41.834  11.298  66.876  1.00  0.00    -0.285 OA
HETATM    4  C10 UNL     1      41.903  11.852  68.064  1.00  0.00     0.222 A 
HETATM    5  C11 UNL     1      40.955  11.633  69.040  1.00  0.00     0.213 A 
HETATM    6  C12 UNL     1      39.922  10.789  68.687  1.00  0.00     0.246 A 
HETATM    7  O12 UNL     1      39.037  10.567  69.553  1.00  0.00    -0.282 OA
ENDROOT
BRANCH   1   8
HETATM    8  O4  UNL     1      38.850   9.378  67.069  1.00  0.00    -0.204 OA
BRANCH   8   9
HETATM    9  S1  UNL     1      37.321   9.873  66.563  1.00  0.00     0.407 S 
HETATM   10  O2  UNL     1      37.096   9.542  65.093  1.00  0.00    -0.168 OA
HETATM   11  O3  UNL     1      36.306   9.057  67.314  1.00  0.00    -0.168 OA
BRANCH   9  12
HETATM   12  O1  UNL     1      37.042  11.490  66.743  1.00  0.00    -0.243 OA
BRANCH  12  13
HETATM   13  C2  UNL     1      35.917  11.830  67.451  1.00  0.00     0.071 C 
HETATM   14  C1  UNL     1      35.963  11.510  68.918  1.00  0.00     0.047 C 
HETATM   15  C3  UNL     1      34.656  11.195  66.898  1.00  0.00     0.047 C 
HETATM   16  C4  UNL     1      35.733  13.339  67.297  1.00  0.00     0.047 C 
ENDBRANCH  12  13
ENDBRANCH   9  12
ENDBRANCH   8   9
ENDBRANCH   1   8
BRANCH   2  17
HETATM   17  C7  UNL     1      40.854   9.889  65.117  1.00  0.00     0.209 C 
BRANCH  17  18
HETATM   18  O5  UNL     1      39.848  10.511  64.339  1.00  0.00    -0.386 OA
ATOM     19  H5  UNL     1      39.056   9.987  64.362  1.00  0.00     0.210 HD
ENDBRANCH  17  18
BRANCH  17  20
HETATM   20  C8  UNL     1      42.138  10.129  64.390  1.00  0.00     0.177 C 
BRANCH  20  21
HETATM   21  O6  UNL     1      43.261   9.743  65.162  1.00  0.00    -0.390 OA
ATOM     22  H6  UNL     1      44.019  10.286  64.979  1.00  0.00     0.210 HD
ENDBRANCH  20  21
BRANCH  20  23
HETATM   23  C9  UNL     1      42.138   9.197  63.179  1.00  0.00     0.198 C 
BRANCH  23  24
HETATM   24  O7  UNL     1      41.272   9.670  62.184  1.00  0.00    -0.398 OA
ATOM     25  H7  UNL     1      41.584   9.430  61.320  1.00  0.00     0.209 HD
ENDBRANCH  23  24
ENDBRANCH  20  23
ENDBRANCH  17  20
ENDBRANCH   2  17
BRANCH   5  26
HETATM   26  N1  UNL     1      41.039  12.239  70.324  1.00  0.00    -0.106 N 
HETATM   27  O10 UNL     1      40.945  13.471  70.474  1.00  0.00    -0.531 OA
HETATM   28  O11 UNL     1      41.226  11.496  71.462  1.00  0.00    -0.531 OA
ENDBRANCH   5  26
BRANCH   4  29
HETATM   29  O9  UNL     1      42.962  12.709  68.406  1.00  0.00    -0.339 OA
ATOM     30  H9  UNL     1      43.780  12.367  68.749  1.00  0.00     0.220 HD
ENDBRANCH   4  29
TORSDOF 12
ENDMDL
