MODEL 1
REMARK VINA RESULT: -7.266170615      0.000      0.000
REMARK  9 active torsions:
REMARK  status: ('A' for Active; 'I' for Inactive)
REMARK    1  A    between atoms: N1_2  and  C2_4 
REMARK    2  A    between atoms: C4_16  and  C5_17 
REMARK    3  A    between atoms: C5_17  and  N7_18 
REMARK    4  A    between atoms: C5_17  and  O4_34 
REMARK    5  A    between atoms: N7_18  and  C6_20 
REMARK    6  A    between atoms: C6_20  and  C7_21 
REMARK    7  A    between atoms: C9_23  and  O1_24 
REMARK    8  A    between atoms: C11_26  and  O2_27 
REMARK    9  A    between atoms: C12_29  and  O3_30 
ROOT
HETATM    1  C2  UNL     1      44.032   8.654  63.771  1.00  0.00     0.694 A 
HETATM    2  N2  UNL     1      43.497   8.515  62.556  1.00  0.00    -0.021 N 
ATOM      3  H2  UNL     1      44.043   8.046  61.833  1.00  0.00     0.203 HD
HETATM    4  C3  UNL     1      42.273   8.966  62.243  1.00  0.00     0.714 A 
HETATM    5  N3  UNL     1      41.767   8.834  61.093  1.00  0.00    -0.232 N 
ATOM      6  H31 UNL     1      40.835   9.177  60.856  1.00  0.00     0.174 HD
ATOM      7  H32 UNL     1      42.276   8.369  60.341  1.00  0.00     0.174 HD
HETATM    8  N4  UNL     1      41.584   9.595  63.261  1.00  0.00    -0.052 N 
HETATM    9  N5  UNL     1      40.419  10.163  63.241  1.00  0.00    -0.219 N 
ATOM     10  H5  UNL     1      39.801  10.212  62.432  1.00  0.00     0.209 HD
HETATM   11  N6  UNL     1      40.159  10.667  64.426  1.00  0.00    -0.281 N 
ATOM     12  H6  UNL     1      39.305  11.166  64.675  1.00  0.00     0.188 HD
HETATM   13  C4  UNL     1      41.236  10.414  65.304  1.00  0.00     0.122 A 
HETATM   14  C15 UNL     1      42.096   9.740  64.485  1.00  0.00     0.190 A 
HETATM   15  N9  UNL     1      43.318   9.280  64.761  1.00  0.00    -0.172 N 
ATOM     16  H9  UNL     1      43.714   9.392  65.693  1.00  0.00     0.186 HD
ENDROOT
BRANCH  13  17
HETATM   17  C5  UNL     1      41.049  10.685  66.689  1.00  0.00     0.272 C 
BRANCH  17  18
HETATM   18  N7  UNL     1      40.315  10.057  67.667  1.00  0.00    -0.387 N 
ATOM     19  H7  UNL     1      40.350   9.043  67.772  1.00  0.00     0.156 HD
BRANCH  18  20
HETATM   20  C6  UNL     1      39.489  10.865  68.549  1.00  0.00     0.174 C 
BRANCH  20  21
HETATM   21  C7  UNL     1      38.072  10.770  68.184  1.00  0.00     0.031 A 
HETATM   22  C8  UNL     1      37.344  11.932  68.218  1.00  0.00     0.066 A 
HETATM   23  C9  UNL     1      36.050  11.943  67.788  1.00  0.00     0.107 A 
HETATM   24  C11 UNL     1      35.511  10.783  67.332  1.00  0.00     0.150 A 
HETATM   25  C12 UNL     1      36.250   9.576  67.295  1.00  0.00     0.179 A 
HETATM   26  N8  UNL     1      37.510   9.657  67.736  1.00  0.00    -0.337 N 
ATOM     27  H8  UNL     1      38.074   8.807  67.726  1.00  0.00     0.168 HD
BRANCH  23  28
HETATM   28  O1  UNL     1      35.313  13.150  67.828  1.00  0.00    -0.353 OA
HETATM   29  C10 UNL     1      35.375  13.958  66.648  1.00  0.00     0.210 C 
ENDBRANCH  23  28
BRANCH  24  30
HETATM   30  O2  UNL     1      34.229  10.713  66.874  1.00  0.00    -0.355 OA
ATOM     31  H2  UNL     1      33.930  11.227  66.133  1.00  0.00     0.218 HD
ENDBRANCH  24  30
BRANCH  25  32
HETATM   32  O3  UNL     1      35.659   8.432  66.827  1.00  0.00    -0.339 OA
HETATM   33  C13 UNL     1      35.910   8.010  65.507  1.00  0.00     0.211 C 
ENDBRANCH  25  32
ENDBRANCH  20  21
ENDBRANCH  18  20
ENDBRANCH  17  18
BRANCH  17  34
HETATM   34  O4  UNL     1      42.430  10.488  67.233  1.00  0.00    -0.366 OA
HETATM   35  C14 UNL     1      43.017  11.682  67.512  1.00  0.00     0.204 C 
ENDBRANCH  17  34
ENDBRANCH  13  17
BRANCH   1  36
HETATM   36  N1  UNL     1      45.226   8.258  64.108  1.00  0.00    -0.230 N 
HETATM   37  C1  UNL     1      45.543   6.827  63.928  1.00  0.00     0.165 C 
ATOM     38  H1  UNL     1      45.915   8.910  64.483  1.00  0.00     0.177 HD
ENDBRANCH   1  36
TORSDOF 9
ENDMDL
MODEL 2
REMARK VINA RESULT: -7.172735618      1.350      3.326
REMARK  9 active torsions:
REMARK  status: ('A' for Active; 'I' for Inactive)
REMARK    1  A    between atoms: N1_2  and  C2_4 
REMARK    2  A    between atoms: C4_16  and  C5_17 
REMARK    3  A    between atoms: C5_17  and  N7_18 
REMARK    4  A    between atoms: C5_17  and  O4_34 
REMARK    5  A    between atoms: N7_18  and  C6_20 
REMARK    6  A    between atoms: C6_20  and  C7_21 
REMARK    7  A    between atoms: C9_23  and  O1_24 
REMARK    8  A    between atoms: C11_26  and  O2_27 
REMARK    9  A    between atoms: C12_29  and  O3_30 
ROOT
HETATM    1  C2  UNL     1      42.075   9.291  62.700  1.00  0.00     0.694 A 
HETATM    2  N2  UNL     1      43.237   8.644  62.821  1.00  0.00    -0.021 N 
ATOM      3  H2  UNL     1      43.641   8.209  61.992  1.00  0.00     0.203 HD
HETATM    4  C3  UNL     1      43.895   8.541  63.985  1.00  0.00     0.714 A 
HETATM    5  N3  UNL     1      44.994   7.929  64.100  1.00  0.00    -0.232 N 
ATOM      6  H31 UNL     1      45.494   7.850  64.986  1.00  0.00     0.174 HD
ATOM      7  H32 UNL     1      45.436   7.481  63.297  1.00  0.00     0.174 HD
HETATM    8  N4  UNL     1      43.297   9.148  65.072  1.00  0.00    -0.052 N 
HETATM    9  N5  UNL     1      43.671   9.174  66.312  1.00  0.00    -0.219 N 
ATOM     10  H5  UNL     1      44.519   8.744  66.681  1.00  0.00     0.209 HD
HETATM   11  N6  UNL     1      42.789   9.840  67.021  1.00  0.00    -0.281 N 
ATOM     12  H6  UNL     1      42.849  10.005  68.026  1.00  0.00     0.188 HD
HETATM   13  C4  UNL     1      41.743  10.293  66.186  1.00  0.00     0.122 A 
HETATM   14  C15 UNL     1      42.139   9.805  64.974  1.00  0.00     0.190 A 
HETATM   15  N9  UNL     1      41.511   9.887  63.799  1.00  0.00    -0.172 N 
ATOM     16  H9  UNL     1      40.625  10.386  63.720  1.00  0.00     0.186 HD
ENDROOT
BRANCH  13  17
HETATM   17  C5  UNL     1      40.808  11.221  66.726  1.00  0.00     0.272 C 
BRANCH  17  18
HETATM   18  N7  UNL     1      39.609  11.058  67.376  1.00  0.00    -0.387 N 
ATOM     19  H7  UNL     1      39.409  11.570  68.235  1.00  0.00     0.156 HD
BRANCH  18  20
HETATM   20  C6  UNL     1      38.629  10.142  66.816  1.00  0.00     0.174 C 
BRANCH  20  21
HETATM   21  C7  UNL     1      37.267  10.662  66.969  1.00  0.00     0.031 A 
HETATM   22  C8  UNL     1      36.253   9.739  67.023  1.00  0.00     0.066 A 
HETATM   23  C9  UNL     1      34.974  10.141  67.273  1.00  0.00     0.107 A 
HETATM   24  C11 UNL     1      34.737  11.464  67.462  1.00  0.00     0.150 A 
HETATM   25  C12 UNL     1      35.773  12.427  67.404  1.00  0.00     0.179 A 
HETATM   26  N8  UNL     1      36.996  11.946  67.155  1.00  0.00    -0.337 N 
ATOM     27  H8  UNL     1      37.769  12.610  67.103  1.00  0.00     0.168 HD
BRANCH  23  28
HETATM   28  O1  UNL     1      33.940   9.177  67.328  1.00  0.00    -0.353 OA
HETATM   29  C10 UNL     1      34.092   8.048  66.459  1.00  0.00     0.210 C 
ENDBRANCH  23  28
BRANCH  24  30
HETATM   30  O2  UNL     1      33.490  11.944  67.728  1.00  0.00    -0.355 OA
ATOM     31  H2  UNL     1      33.192  12.784  67.398  1.00  0.00     0.218 HD
ENDBRANCH  24  30
BRANCH  25  32
HETATM   32  O3  UNL     1      35.482  13.752  67.601  1.00  0.00    -0.339 OA
HETATM   33  C13 UNL     1      35.277  14.590  66.488  1.00  0.00     0.211 C 
ENDBRANCH  25  32
ENDBRANCH  20  21
ENDBRANCH  18  20
ENDBRANCH  17  18
BRANCH  17  34
HETATM   34  O4  UNL     1      41.607  11.869  67.814  1.00  0.00    -0.366 OA
HETATM   35  C14 UNL     1      40.819  12.172  68.880  1.00  0.00     0.204 C 
ENDBRANCH  17  34
ENDBRANCH  13  17
BRANCH   1  36
HETATM   36  N1  UNL     1      41.390   9.391  61.597  1.00  0.00    -0.230 N 
HETATM   37  C1  UNL     1      42.147   9.519  60.335  1.00  0.00     0.165 C 
ATOM     38  H1  UNL     1      40.370   9.381  61.604  1.00  0.00     0.177 HD
ENDBRANCH   1  36
TORSDOF 9
ENDMDL
MODEL 3
REMARK VINA RESULT: -7.058535195      1.311      2.468
REMARK  9 active torsions:
REMARK  status: ('A' for Active; 'I' for Inactive)
REMARK    1  A    between atoms: N1_2  and  C2_4 
REMARK    2  A    between atoms: C4_16  and  C5_17 
REMARK    3  A    between atoms: C5_17  and  N7_18 
REMARK    4  A    between atoms: C5_17  and  O4_34 
REMARK    5  A    between atoms: N7_18  and  C6_20 
REMARK    6  A    between atoms: C6_20  and  C7_21 
REMARK    7  A    between atoms: C9_23  and  O1_24 
REMARK    8  A    between atoms: C11_26  and  O2_27 
REMARK    9  A    between atoms: C12_29  and  O3_30 
ROOT
HETATM    1  C2  UNL     1      42.112   9.219  62.623  1.00  0.00     0.694 A 
HETATM    2  N2  UNL     1      43.274   8.577  62.766  1.00  0.00    -0.021 N 
ATOM      3  H2  UNL     1      43.693   8.139  61.946  1.00  0.00     0.203 HD
HETATM    4  C3  UNL     1      43.913   8.481  63.941  1.00  0.00     0.714 A 
HETATM    5  N3  UNL     1      45.013   7.873  64.076  1.00  0.00    -0.232 N 
ATOM      6  H31 UNL     1      45.499   7.801  64.970  1.00  0.00     0.174 HD
ATOM      7  H32 UNL     1      45.469   7.423  63.282  1.00  0.00     0.174 HD
HETATM    8  N4  UNL     1      43.296   9.091  65.014  1.00  0.00    -0.052 N 
HETATM    9  N5  UNL     1      43.650   9.124  66.261  1.00  0.00    -0.219 N 
ATOM     10  H5  UNL     1      44.493   8.699  66.645  1.00  0.00     0.209 HD
HETATM   11  N6  UNL     1      42.754   9.790  66.953  1.00  0.00    -0.281 N 
ATOM     12  H6  UNL     1      42.798   9.960  67.957  1.00  0.00     0.188 HD
HETATM   13  C4  UNL     1      41.720  10.236  66.099  1.00  0.00     0.122 A 
HETATM   14  C15 UNL     1      42.138   9.744  64.895  1.00  0.00     0.190 A 
HETATM   15  N9  UNL     1      41.528   9.818  63.710  1.00  0.00    -0.172 N 
ATOM     16  H9  UNL     1      40.642  10.313  63.615  1.00  0.00     0.186 HD
ENDROOT
BRANCH  13  17
HETATM   17  C5  UNL     1      40.773  11.163  66.619  1.00  0.00     0.272 C 
BRANCH  17  18
HETATM   18  N7  UNL     1      39.572  10.998  67.265  1.00  0.00    -0.387 N 
ATOM     19  H7  UNL     1      39.385  11.477  68.145  1.00  0.00     0.156 HD
BRANCH  18  20
HETATM   20  C6  UNL     1      38.571  10.128  66.669  1.00  0.00     0.174 C 
BRANCH  20  21
HETATM   21  C7  UNL     1      37.215  10.551  67.031  1.00  0.00     0.031 A 
HETATM   22  C8  UNL     1      37.017  11.894  67.227  1.00  0.00     0.066 A 
HETATM   23  C9  UNL     1      35.761  12.374  67.459  1.00  0.00     0.107 A 
HETATM   24  C11 UNL     1      34.729  11.494  67.492  1.00  0.00     0.150 A 
HETATM   25  C12 UNL     1      34.921  10.105  67.296  1.00  0.00     0.179 A 
HETATM   26  N8  UNL     1      36.182   9.722  67.075  1.00  0.00    -0.337 N 
ATOM     27  H8  UNL     1      36.361   8.728  66.930  1.00  0.00     0.168 HD
BRANCH  23  28
HETATM   28  O1  UNL     1      35.572  13.762  67.657  1.00  0.00    -0.353 OA
HETATM   29  C10 UNL     1      35.294  14.528  66.480  1.00  0.00     0.210 C 
ENDBRANCH  23  28
BRANCH  24  30
HETATM   30  O2  UNL     1      33.443  11.894  67.706  1.00  0.00    -0.355 OA
ATOM     31  H2  UNL     1      32.701  11.406  67.370  1.00  0.00     0.218 HD
ENDBRANCH  24  30
BRANCH  25  32
HETATM   32  O3  UNL     1      33.845   9.257  67.340  1.00  0.00    -0.339 OA
HETATM   33  C13 UNL     1      33.821   8.121  66.509  1.00  0.00     0.211 C 
ENDBRANCH  25  32
ENDBRANCH  20  21
ENDBRANCH  18  20
ENDBRANCH  17  18
BRANCH  17  34
HETATM   34  O4  UNL     1      41.560  11.835  67.701  1.00  0.00    -0.366 OA
HETATM   35  C14 UNL     1      40.743  12.266  68.699  1.00  0.00     0.204 C 
ENDBRANCH  17  34
ENDBRANCH  13  17
BRANCH   1  36
HETATM   36  N1  UNL     1      41.445   9.311  61.509  1.00  0.00    -0.230 N 
HETATM   37  C1  UNL     1      42.217   9.528  60.269  1.00  0.00     0.165 C 
ATOM     38  H1  UNL     1      40.427   9.236  61.493  1.00  0.00     0.177 HD
ENDBRANCH   1  36
TORSDOF 9
ENDMDL
MODEL 4
REMARK VINA RESULT: -7.039993283      0.526      2.275
REMARK  9 active torsions:
REMARK  status: ('A' for Active; 'I' for Inactive)
REMARK    1  A    between atoms: N1_2  and  C2_4 
REMARK    2  A    between atoms: C4_16  and  C5_17 
REMARK    3  A    between atoms: C5_17  and  N7_18 
REMARK    4  A    between atoms: C5_17  and  O4_34 
REMARK    5  A    between atoms: N7_18  and  C6_20 
REMARK    6  A    between atoms: C6_20  and  C7_21 
REMARK    7  A    between atoms: C9_23  and  O1_24 
REMARK    8  A    between atoms: C11_26  and  O2_27 
REMARK    9  A    between atoms: C12_29  and  O3_30 
ROOT
HETATM    1  C2  UNL     1      44.026   8.633  63.756  1.00  0.00     0.694 A 
HETATM    2  N2  UNL     1      43.494   8.497  62.539  1.00  0.00    -0.021 N 
ATOM      3  H2  UNL     1      44.040   8.024  61.819  1.00  0.00     0.203 HD
HETATM    4  C3  UNL     1      42.275   8.956  62.221  1.00  0.00     0.714 A 
HETATM    5  N3  UNL     1      41.773   8.827  61.069  1.00  0.00    -0.232 N 
ATOM      6  H31 UNL     1      40.845   9.176  60.827  1.00  0.00     0.174 HD
ATOM      7  H32 UNL     1      42.282   8.359  60.319  1.00  0.00     0.174 HD
HETATM    8  N4  UNL     1      41.586   9.590  63.236  1.00  0.00    -0.052 N 
HETATM    9  N5  UNL     1      40.425  10.166  63.211  1.00  0.00    -0.219 N 
ATOM     10  H5  UNL     1      39.811  10.218  62.398  1.00  0.00     0.209 HD
HETATM   11  N6  UNL     1      40.163  10.672  64.394  1.00  0.00    -0.281 N 
ATOM     12  H6  UNL     1      39.312  11.177  64.639  1.00  0.00     0.188 HD
HETATM   13  C4  UNL     1      41.234  10.413  65.277  1.00  0.00     0.122 A 
HETATM   14  C15 UNL     1      42.094   9.733  64.462  1.00  0.00     0.190 A 
HETATM   15  N9  UNL     1      43.311   9.264  64.743  1.00  0.00    -0.172 N 
ATOM     16  H9  UNL     1      43.704   9.374  65.677  1.00  0.00     0.186 HD
ENDROOT
BRANCH  13  17
HETATM   17  C5  UNL     1      41.044  10.686  66.661  1.00  0.00     0.272 C 
BRANCH  17  18
HETATM   18  N7  UNL     1      40.303  10.062  67.636  1.00  0.00    -0.387 N 
ATOM     19  H7  UNL     1      40.347   9.050  67.754  1.00  0.00     0.156 HD
BRANCH  18  20
HETATM   20  C6  UNL     1      39.457  10.871  68.497  1.00  0.00     0.174 C 
BRANCH  20  21
HETATM   21  C7  UNL     1      38.083  10.928  67.990  1.00  0.00     0.031 A 
HETATM   22  C8  UNL     1      37.516   9.741  67.601  1.00  0.00     0.066 A 
HETATM   23  C9  UNL     1      36.206   9.700  67.222  1.00  0.00     0.107 A 
HETATM   24  C11 UNL     1      35.492  10.853  67.239  1.00  0.00     0.150 A 
HETATM   25  C12 UNL     1      36.066  12.086  67.633  1.00  0.00     0.179 A 
HETATM   26  N8  UNL     1      37.354  12.035  67.989  1.00  0.00    -0.337 N 
ATOM     27  H8  UNL     1      37.804  12.904  68.279  1.00  0.00     0.168 HD
BRANCH  23  28
HETATM   28  O1  UNL     1      35.635   8.468  66.825  1.00  0.00    -0.353 OA
HETATM   29  C10 UNL     1      35.868   8.080  65.467  1.00  0.00     0.210 C 
ENDBRANCH  23  28
BRANCH  24  30
HETATM   30  O2  UNL     1      34.176  10.894  66.886  1.00  0.00    -0.355 OA
ATOM     31  H2  UNL     1      33.860  11.444  66.178  1.00  0.00     0.218 HD
ENDBRANCH  24  30
BRANCH  25  32
HETATM   32  O3  UNL     1      35.302  13.223  67.632  1.00  0.00    -0.339 OA
HETATM   33  C13 UNL     1      35.442  14.153  66.584  1.00  0.00     0.211 C 
ENDBRANCH  25  32
ENDBRANCH  20  21
ENDBRANCH  18  20
ENDBRANCH  17  18
BRANCH  17  34
HETATM   34  O4  UNL     1      42.421  10.482  67.211  1.00  0.00    -0.366 OA
HETATM   35  C14 UNL     1      43.011  11.674  67.496  1.00  0.00     0.204 C 
ENDBRANCH  17  34
ENDBRANCH  13  17
BRANCH   1  36
HETATM   36  N1  UNL     1      45.215   8.229  64.099  1.00  0.00    -0.230 N 
HETATM   37  C1  UNL     1      45.511   6.789  63.956  1.00  0.00     0.165 C 
ATOM     38  H1  UNL     1      45.915   8.881  64.453  1.00  0.00     0.177 HD
ENDBRANCH   1  36
TORSDOF 9
ENDMDL
MODEL 5
REMARK VINA RESULT: -7.015416987      1.429      2.540
REMARK  9 active torsions:
REMARK  status: ('A' for Active; 'I' for Inactive)
REMARK    1  A    between atoms: N1_2  and  C2_4 
REMARK    2  A    between atoms: C4_16  and  C5_17 
REMARK    3  A    between atoms: C5_17  and  N7_18 
REMARK    4  A    between atoms: C5_17  and  O4_34 
REMARK    5  A    between atoms: N7_18  and  C6_20 
REMARK    6  A    between atoms: C6_20  and  C7_21 
REMARK    7  A    between atoms: C9_23  and  O1_24 
REMARK    8  A    between atoms: C11_26  and  O2_27 
REMARK    9  A    between atoms: C12_29  and  O3_30 
ROOT
HETATM    1  C2  UNL     1      41.989   9.570  62.824  1.00  0.00     0.694 A 
HETATM    2  N2  UNL     1      43.132   8.882  62.874  1.00  0.00    -0.021 N 
ATOM      3  H2  UNL     1      43.539   8.550  61.999  1.00  0.00     0.203 HD
HETATM    4  C3  UNL     1      43.767   8.607  64.022  1.00  0.00     0.714 A 
HETATM    5  N3  UNL     1      44.849   7.956  64.068  1.00  0.00    -0.232 N 
ATOM      6  H31 UNL     1      45.333   7.747  64.942  1.00  0.00     0.174 HD
ATOM      7  H32 UNL     1      45.293   7.607  63.219  1.00  0.00     0.174 HD
HETATM    8  N4  UNL     1      43.167   9.080  65.171  1.00  0.00    -0.052 N 
HETATM    9  N5  UNL     1      43.520   8.930  66.409  1.00  0.00    -0.219 N 
ATOM     10  H5  UNL     1      44.351   8.432  66.729  1.00  0.00     0.209 HD
HETATM   11  N6  UNL     1      42.643   9.519  67.189  1.00  0.00    -0.281 N 
ATOM     12  H6  UNL     1      42.691   9.548  68.208  1.00  0.00     0.188 HD
HETATM   13  C4  UNL     1      41.623  10.107  66.409  1.00  0.00     0.122 A 
HETATM   14  C15 UNL     1      42.027   9.775  65.147  1.00  0.00     0.190 A 
HETATM   15  N9  UNL     1      41.421  10.029  63.986  1.00  0.00    -0.172 N 
ATOM     16  H9  UNL     1      40.549  10.557  63.962  1.00  0.00     0.186 HD
ENDROOT
BRANCH  13  17
HETATM   17  C5  UNL     1      40.702  10.980  67.055  1.00  0.00     0.272 C 
BRANCH  17  18
HETATM   18  N7  UNL     1      39.870  10.814  68.136  1.00  0.00    -0.387 N 
ATOM     19  H7  UNL     1      40.112  10.164  68.883  1.00  0.00     0.156 HD
BRANCH  18  20
HETATM   20  C6  UNL     1      38.638  11.584  68.195  1.00  0.00     0.174 C 
BRANCH  20  21
HETATM   21  C7  UNL     1      37.467  10.729  67.981  1.00  0.00     0.031 A 
HETATM   22  C8  UNL     1      36.289  11.137  68.553  1.00  0.00     0.066 A 
HETATM   23  C9  UNL     1      35.136  10.452  68.307  1.00  0.00     0.107 A 
HETATM   24  C11 UNL     1      35.188   9.367  67.493  1.00  0.00     0.150 A 
HETATM   25  C12 UNL     1      36.399   8.933  66.900  1.00  0.00     0.179 A 
HETATM   26  N8  UNL     1      37.480   9.662  67.194  1.00  0.00    -0.337 N 
ATOM     27  H8  UNL     1      38.372   9.379  66.787  1.00  0.00     0.168 HD
BRANCH  23  28
HETATM   28  O1  UNL     1      33.928  10.886  68.903  1.00  0.00    -0.353 OA
HETATM   29  C10 UNL     1      33.058  11.652  68.061  1.00  0.00     0.210 C 
ENDBRANCH  23  28
BRANCH  24  30
HETATM   30  O2  UNL     1      34.079   8.636  67.189  1.00  0.00    -0.355 OA
ATOM     31  H2  UNL     1      33.878   8.371  66.299  1.00  0.00     0.218 HD
ENDBRANCH  24  30
BRANCH  25  32
HETATM   32  O3  UNL     1      36.399   7.830  66.086  1.00  0.00    -0.339 OA
HETATM   33  C13 UNL     1      35.881   7.930  64.781  1.00  0.00     0.211 C 
ENDBRANCH  25  32
ENDBRANCH  20  21
ENDBRANCH  18  20
ENDBRANCH  17  18
BRANCH  17  34
HETATM   34  O4  UNL     1      41.607  12.049  67.584  1.00  0.00    -0.366 OA
HETATM   35  C14 UNL     1      41.842  11.873  68.912  1.00  0.00     0.204 C 
ENDBRANCH  17  34
ENDBRANCH  13  17
BRANCH   1  36
HETATM   36  N1  UNL     1      41.325   9.834  61.735  1.00  0.00    -0.230 N 
HETATM   37  C1  UNL     1      41.895   9.357  60.459  1.00  0.00     0.165 C 
ATOM     38  H1  UNL     1      40.445  10.349  61.763  1.00  0.00     0.177 HD
ENDBRANCH   1  36
TORSDOF 9
ENDMDL
