MODEL 1
REMARK VINA RESULT: -8.816492280      0.000      0.000
REMARK  9 active torsions:
REMARK  status: ('A' for Active; 'I' for Inactive)
REMARK    1  A    between atoms: N1_2  and  C2_5 
REMARK    2  A    between atoms: C2_5  and  O1_6 
REMARK    3  A    between atoms: C2_5  and  C3_8 
REMARK    4  A    between atoms: C4_13  and  C5_14 
REMARK    5  A    between atoms: C5_14  and  N4_16 
REMARK    6  A    between atoms: N4_16  and  N5_18 
REMARK    7  A    between atoms: N5_18  and  C7_20 
REMARK    8  A    between atoms: C8_21  and  N6_22 
REMARK    9  A    between atoms: N8_31  and  C11_32 
ROOT
HETATM    1  N4  UNL     1      38.310  10.234  66.851  1.00  0.00    -0.300 N 
ATOM      2  H4  UNL     1      38.197   9.554  67.602  1.00  0.00     0.186 HD
ENDROOT
BRANCH   1   3
HETATM    3  C5  UNL     1      39.499  10.584  66.495  1.00  0.00     0.067 C 
HETATM    4  C6  UNL     1      39.998  10.408  65.108  1.00  0.00     0.074 C 
BRANCH   3   5
HETATM    5  C4  UNL     1      40.388  11.166  67.472  1.00  0.00     0.145 A 
HETATM    6  N3  UNL     1      41.570  11.780  67.265  1.00  0.00    -0.282 N 
HETATM    7  N2  UNL     1      42.081  12.184  68.416  1.00  0.00    -0.284 N 
ATOM      8  H3  UNL     1      42.006  11.914  66.353  1.00  0.00     0.188 HD
HETATM    9  C3  UNL     1      41.241  11.839  69.397  1.00  0.00     0.155 A 
ATOM     10  H2  UNL     1      42.967  12.675  68.534  1.00  0.00     0.188 HD
HETATM   11  N9  UNL     1      40.199  11.208  68.790  1.00  0.00    -0.325 N 
ATOM     12  H9  UNL     1      39.389  10.822  69.274  1.00  0.00     0.169 HD
BRANCH   9  13
HETATM   13  C2  UNL     1      41.324  12.080  70.846  1.00  0.00     0.388 C 
BRANCH  13  14
HETATM   14  N1  UNL     1      41.975  13.334  71.111  1.00  0.00    -0.046 N 
HETATM   15  C1  UNL     1      41.078  14.218  71.815  1.00  0.00     0.270 C 
ATOM     16  H12 UNL     1      42.342  13.761  70.261  1.00  0.00     0.280 HD
ATOM     17  H11 UNL     1      42.856  13.209  71.609  1.00  0.00     0.280 HD
ENDBRANCH  13  14
BRANCH  13  18
HETATM   18  O1  UNL     1      40.087  11.933  71.418  1.00  0.00    -0.364 OA
ATOM     19  H1  UNL     1      39.386  11.719  70.814  1.00  0.00     0.212 HD
ENDBRANCH  13  18
ENDBRANCH   9  13
ENDBRANCH   3   5
ENDBRANCH   1   3
BRANCH   1  20
HETATM   20  N5  UNL     1      37.166  10.764  66.232  1.00  0.00    -0.283 N 
ATOM     21  H5  UNL     1      37.276  11.347  65.401  1.00  0.00     0.188 HD
BRANCH  20  22
HETATM   22  C7  UNL     1      35.900  10.519  66.714  1.00  0.00     0.166 A 
HETATM   23  C8  UNL     1      35.322   9.292  66.380  1.00  0.00     0.216 A 
HETATM   24  C9  UNL     1      34.055   8.999  66.899  1.00  0.00     0.286 A 
HETATM   25  O4  UNL     1      33.518   7.906  66.614  1.00  0.00    -0.265 OA
HETATM   26  N7  UNL     1      33.480   9.902  67.676  1.00  0.00    -0.273 N 
HETATM   27  C10 UNL     1      34.063  11.061  67.970  1.00  0.00     0.331 A 
ATOM     28  H7  UNL     1      32.557   9.703  68.062  1.00  0.00     0.173 HD
HETATM   29  O5  UNL     1      33.389  11.825  68.726  1.00  0.00    -0.246 OA
HETATM   30  N8  UNL     1      35.312  11.431  67.501  1.00  0.00    -0.278 N 
BRANCH  23  31
HETATM   31  N6  UNL     1      35.907   8.317  65.540  1.00  0.00    -0.106 N 
HETATM   32  O2  UNL     1      36.870   7.655  65.934  1.00  0.00    -0.531 OA
HETATM   33  O3  UNL     1      35.423   8.145  64.280  1.00  0.00    -0.531 OA
ENDBRANCH  23  31
BRANCH  30  34
HETATM   34  C11 UNL     1      35.704  12.678  67.963  1.00  0.00     0.088 C 
HETATM   35  C12 UNL     1      36.061  13.853  67.220  1.00  0.00     0.032 C 
HETATM   36  C13 UNL     1      36.848  12.432  68.984  1.00  0.00     0.032 C 
ENDBRANCH  30  34
ENDBRANCH  20  22
ENDBRANCH   1  20
TORSDOF 9
ENDMDL
MODEL 2
REMARK VINA RESULT: -8.792010045      2.395      6.734
REMARK  9 active torsions:
REMARK  status: ('A' for Active; 'I' for Inactive)
REMARK    1  A    between atoms: N1_2  and  C2_5 
REMARK    2  A    between atoms: C2_5  and  O1_6 
REMARK    3  A    between atoms: C2_5  and  C3_8 
REMARK    4  A    between atoms: C4_13  and  C5_14 
REMARK    5  A    between atoms: C5_14  and  N4_16 
REMARK    6  A    between atoms: N4_16  and  N5_18 
REMARK    7  A    between atoms: N5_18  and  C7_20 
REMARK    8  A    between atoms: C8_21  and  N6_22 
REMARK    9  A    between atoms: N8_31  and  C11_32 
ROOT
HETATM    1  N4  UNL     1      38.368   9.224  66.775  1.00  0.00    -0.300 N 
ATOM      2  H4  UNL     1      38.864   8.573  67.384  1.00  0.00     0.186 HD
ENDROOT
BRANCH   1   3
HETATM    3  C5  UNL     1      37.130   9.000  66.493  1.00  0.00     0.067 C 
HETATM    4  C6  UNL     1      36.713   7.988  65.490  1.00  0.00     0.074 C 
BRANCH   3   5
HETATM    5  C4  UNL     1      36.102   9.756  67.168  1.00  0.00     0.145 A 
HETATM    6  N3  UNL     1      35.530   9.505  68.362  1.00  0.00    -0.282 N 
HETATM    7  N2  UNL     1      34.631  10.435  68.641  1.00  0.00    -0.284 N 
ATOM      8  H3  UNL     1      35.756   8.714  68.964  1.00  0.00     0.188 HD
HETATM    9  C3  UNL     1      34.601  11.311  67.630  1.00  0.00     0.155 A 
ATOM     10  H2  UNL     1      34.058  10.476  69.483  1.00  0.00     0.188 HD
HETATM   11  N9  UNL     1      35.519  10.870  66.729  1.00  0.00    -0.325 N 
ATOM     12  H9  UNL     1      35.732  11.327  65.842  1.00  0.00     0.169 HD
BRANCH   9  13
HETATM   13  C2  UNL     1      33.804  12.536  67.460  1.00  0.00     0.388 C 
BRANCH  13  14
HETATM   14  N1  UNL     1      34.277  13.291  66.332  1.00  0.00    -0.046 N 
HETATM   15  C1  UNL     1      35.145  14.354  66.776  1.00  0.00     0.270 C 
ATOM     16  H12 UNL     1      33.510  13.640  65.757  1.00  0.00     0.280 HD
ATOM     17  H11 UNL     1      34.727  12.697  65.636  1.00  0.00     0.280 HD
ENDBRANCH  13  14
BRANCH  13  18
HETATM   18  O1  UNL     1      32.469  12.228  67.436  1.00  0.00    -0.364 OA
ATOM     19  H1  UNL     1      31.949  12.632  68.122  1.00  0.00     0.212 HD
ENDBRANCH  13  18
ENDBRANCH   9  13
ENDBRANCH   3   5
ENDBRANCH   1   3
BRANCH   1  20
HETATM   20  N5  UNL     1      39.054  10.339  66.266  1.00  0.00    -0.283 N 
ATOM     21  H5  UNL     1      38.806  10.695  65.343  1.00  0.00     0.188 HD
BRANCH  20  22
HETATM   22  C7  UNL     1      40.052  10.965  66.978  1.00  0.00     0.166 A 
HETATM   23  C8  UNL     1      39.707  11.486  68.228  1.00  0.00     0.216 A 
HETATM   24  C9  UNL     1      40.715  12.084  68.992  1.00  0.00     0.286 A 
HETATM   25  O4  UNL     1      40.430  12.557  70.115  1.00  0.00    -0.265 OA
HETATM   26  N7  UNL     1      41.937  12.121  68.486  1.00  0.00    -0.273 N 
HETATM   27  C10 UNL     1      42.226  11.615  67.290  1.00  0.00     0.331 A 
ATOM     28  H7  UNL     1      42.683  12.553  69.031  1.00  0.00     0.173 HD
HETATM   29  O5  UNL     1      43.440  11.725  66.940  1.00  0.00    -0.246 OA
HETATM   30  N8  UNL     1      41.292  11.007  66.470  1.00  0.00    -0.278 N 
BRANCH  23  31
HETATM   31  N6  UNL     1      38.408  11.475  68.785  1.00  0.00    -0.106 N 
HETATM   32  O2  UNL     1      38.127  10.686  69.691  1.00  0.00    -0.531 OA
HETATM   33  O3  UNL     1      37.460  12.313  68.283  1.00  0.00    -0.531 OA
ENDBRANCH  23  31
BRANCH  30  34
HETATM   34  C11 UNL     1      41.845  10.547  65.284  1.00  0.00     0.088 C 
HETATM   35  C12 UNL     1      41.201  10.235  64.040  1.00  0.00     0.032 C 
HETATM   36  C13 UNL     1      42.723   9.319  65.652  1.00  0.00     0.032 C 
ENDBRANCH  30  34
ENDBRANCH  20  22
ENDBRANCH   1  20
TORSDOF 9
ENDMDL
MODEL 3
REMARK VINA RESULT: -8.174746641      2.370      7.020
REMARK  9 active torsions:
REMARK  status: ('A' for Active; 'I' for Inactive)
REMARK    1  A    between atoms: N1_2  and  C2_5 
REMARK    2  A    between atoms: C2_5  and  O1_6 
REMARK    3  A    between atoms: C2_5  and  C3_8 
REMARK    4  A    between atoms: C4_13  and  C5_14 
REMARK    5  A    between atoms: C5_14  and  N4_16 
REMARK    6  A    between atoms: N4_16  and  N5_18 
REMARK    7  A    between atoms: N5_18  and  C7_20 
REMARK    8  A    between atoms: C8_21  and  N6_22 
REMARK    9  A    between atoms: N8_31  and  C11_32 
ROOT
HETATM    1  N4  UNL     1      38.673  10.182  66.523  1.00  0.00    -0.300 N 
ATOM      2  H4  UNL     1      38.832  10.967  65.891  1.00  0.00     0.186 HD
ENDROOT
BRANCH   1   3
HETATM    3  C5  UNL     1      37.539   9.569  66.489  1.00  0.00     0.067 C 
HETATM    4  C6  UNL     1      37.355   8.278  65.780  1.00  0.00     0.074 C 
BRANCH   3   5
HETATM    5  C4  UNL     1      36.400  10.150  67.157  1.00  0.00     0.145 A 
HETATM    6  N3  UNL     1      35.803   9.744  68.295  1.00  0.00    -0.282 N 
HETATM    7  N2  UNL     1      34.790  10.543  68.588  1.00  0.00    -0.284 N 
ATOM      8  H3  UNL     1      36.090   8.938  68.850  1.00  0.00     0.188 HD
HETATM    9  C3  UNL     1      34.707  11.486  67.644  1.00  0.00     0.155 A 
ATOM     10  H2  UNL     1      34.176  10.454  69.398  1.00  0.00     0.188 HD
HETATM   11  N9  UNL     1      35.714  11.223  66.767  1.00  0.00    -0.325 N 
ATOM     12  H9  UNL     1      35.914  11.769  65.929  1.00  0.00     0.169 HD
BRANCH   9  13
HETATM   13  C2  UNL     1      33.784  12.624  67.518  1.00  0.00     0.388 C 
BRANCH  13  14
HETATM   14  N1  UNL     1      34.155  13.453  66.403  1.00  0.00    -0.046 N 
HETATM   15  C1  UNL     1      35.184  14.383  66.798  1.00  0.00     0.270 C 
ATOM     16  H12 UNL     1      33.349  13.926  65.994  1.00  0.00     0.280 HD
ATOM     17  H11 UNL     1      34.431  12.900  65.591  1.00  0.00     0.280 HD
ENDBRANCH  13  14
BRANCH  13  18
HETATM   18  O1  UNL     1      32.488  12.178  67.506  1.00  0.00    -0.364 OA
ATOM     19  H1  UNL     1      32.387  11.233  67.511  1.00  0.00     0.212 HD
ENDBRANCH  13  18
ENDBRANCH   9  13
ENDBRANCH   3   5
ENDBRANCH   1   3
BRANCH   1  20
HETATM   20  N5  UNL     1      39.696   9.800  67.407  1.00  0.00    -0.283 N 
ATOM     21  H5  UNL     1      39.726   8.838  67.744  1.00  0.00     0.188 HD
BRANCH  20  22
HETATM   22  C7  UNL     1      40.659  10.688  67.831  1.00  0.00     0.166 A 
HETATM   23  C8  UNL     1      40.495  11.238  69.106  1.00  0.00     0.216 A 
HETATM   24  C9  UNL     1      41.486  12.106  69.580  1.00  0.00     0.286 A 
HETATM   25  O4  UNL     1      41.361  12.610  70.717  1.00  0.00    -0.265 OA
HETATM   26  N7  UNL     1      42.519  12.355  68.792  1.00  0.00    -0.273 N 
HETATM   27  C10 UNL     1      42.639  11.812  67.583  1.00  0.00     0.331 A 
ATOM     28  H7  UNL     1      43.250  12.985  69.123  1.00  0.00     0.173 HD
HETATM   29  O5  UNL     1      43.684  12.145  66.946  1.00  0.00    -0.246 OA
HETATM   30  N8  UNL     1      41.708  10.945  67.038  1.00  0.00    -0.278 N 
BRANCH  23  31
HETATM   31  N6  UNL     1      39.394  11.002  69.960  1.00  0.00    -0.106 N 
HETATM   32  O2  UNL     1      38.242  11.167  69.550  1.00  0.00    -0.531 OA
HETATM   33  O3  UNL     1      39.618  10.631  71.250  1.00  0.00    -0.531 OA
ENDBRANCH  23  31
BRANCH  30  34
HETATM   34  C11 UNL     1      42.069  10.505  65.773  1.00  0.00     0.088 C 
HETATM   35  C12 UNL     1      41.256  10.333  64.603  1.00  0.00     0.032 C 
HETATM   36  C13 UNL     1      42.851   9.178  65.973  1.00  0.00     0.032 C 
ENDBRANCH  30  34
ENDBRANCH  20  22
ENDBRANCH   1  20
TORSDOF 9
ENDMDL
MODEL 4
REMARK VINA RESULT: -7.482933874      1.345      3.174
REMARK  9 active torsions:
REMARK  status: ('A' for Active; 'I' for Inactive)
REMARK    1  A    between atoms: N1_2  and  C2_5 
REMARK    2  A    between atoms: C2_5  and  O1_6 
REMARK    3  A    between atoms: C2_5  and  C3_8 
REMARK    4  A    between atoms: C4_13  and  C5_14 
REMARK    5  A    between atoms: C5_14  and  N4_16 
REMARK    6  A    between atoms: N4_16  and  N5_18 
REMARK    7  A    between atoms: N5_18  and  C7_20 
REMARK    8  A    between atoms: C8_21  and  N6_22 
REMARK    9  A    between atoms: N8_31  and  C11_32 
ROOT
HETATM    1  N4  UNL     1      38.592  10.007  66.737  1.00  0.00    -0.300 N 
ATOM      2  H4  UNL     1      38.543   9.308  67.478  1.00  0.00     0.186 HD
ENDROOT
BRANCH   1   3
HETATM    3  C5  UNL     1      39.740  10.490  66.405  1.00  0.00     0.067 C 
HETATM    4  C6  UNL     1      40.252  10.438  65.013  1.00  0.00     0.074 C 
BRANCH   3   5
HETATM    5  C4  UNL     1      40.569  11.104  67.415  1.00  0.00     0.145 A 
HETATM    6  N3  UNL     1      41.733  11.763  67.252  1.00  0.00    -0.282 N 
HETATM    7  N2  UNL     1      42.186  12.184  68.422  1.00  0.00    -0.284 N 
ATOM      8  H3  UNL     1      42.198  11.916  66.358  1.00  0.00     0.188 HD
HETATM    9  C3  UNL     1      41.324  11.805  69.371  1.00  0.00     0.155 A 
ATOM     10  H2  UNL     1      43.047  12.709  68.574  1.00  0.00     0.188 HD
HETATM   11  N9  UNL     1      40.331  11.136  68.725  1.00  0.00    -0.325 N 
ATOM     12  H9  UNL     1      39.518  10.718  69.179  1.00  0.00     0.169 HD
BRANCH   9  13
HETATM   13  C2  UNL     1      41.344  12.045  70.822  1.00  0.00     0.388 C 
BRANCH  13  14
HETATM   14  N1  UNL     1      41.963  13.309  71.115  1.00  0.00    -0.046 N 
HETATM   15  C1  UNL     1      41.042  14.158  71.829  1.00  0.00     0.270 C 
ATOM     16  H12 UNL     1      42.324  13.761  70.274  1.00  0.00     0.280 HD
ATOM     17  H11 UNL     1      42.844  13.197  71.615  1.00  0.00     0.280 HD
ENDBRANCH  13  14
BRANCH  13  18
HETATM   18  O1  UNL     1      40.087  11.877  71.343  1.00  0.00    -0.364 OA
ATOM     19  H1  UNL     1      39.916  12.358  72.145  1.00  0.00     0.212 HD
ENDBRANCH  13  18
ENDBRANCH   9  13
ENDBRANCH   3   5
ENDBRANCH   1   3
BRANCH   1  20
HETATM   20  N5  UNL     1      37.405  10.418  66.108  1.00  0.00    -0.283 N 
ATOM     21  H5  UNL     1      37.458  10.859  65.190  1.00  0.00     0.188 HD
BRANCH  20  22
HETATM   22  C7  UNL     1      36.173  10.242  66.695  1.00  0.00     0.166 A 
HETATM   23  C8  UNL     1      35.726  11.257  67.546  1.00  0.00     0.216 A 
HETATM   24  C9  UNL     1      34.455  11.124  68.116  1.00  0.00     0.286 A 
HETATM   25  O4  UNL     1      34.033  12.020  68.881  1.00  0.00    -0.265 OA
HETATM   26  N7  UNL     1      33.751  10.044  67.817  1.00  0.00    -0.273 N 
HETATM   27  C10 UNL     1      34.212   9.098  67.004  1.00  0.00     0.331 A 
ATOM     28  H7  UNL     1      32.823   9.933  68.225  1.00  0.00     0.173 HD
HETATM   29  O5  UNL     1      33.424   8.123  66.812  1.00  0.00    -0.246 OA
HETATM   30  N8  UNL     1      35.456   9.150  66.397  1.00  0.00    -0.278 N 
BRANCH  23  31
HETATM   31  N6  UNL     1      36.463  12.411  67.894  1.00  0.00    -0.106 N 
HETATM   32  O2  UNL     1      37.540  12.306  68.485  1.00  0.00    -0.531 OA
HETATM   33  O3  UNL     1      35.952  13.640  67.608  1.00  0.00    -0.531 OA
ENDBRANCH  23  31
BRANCH  30  34
HETATM   34  C11 UNL     1      35.695   8.052  65.583  1.00  0.00     0.088 C 
HETATM   35  C12 UNL     1      36.773   7.106  65.625  1.00  0.00     0.032 C 
HETATM   36  C13 UNL     1      35.604   8.559  64.118  1.00  0.00     0.032 C 
ENDBRANCH  30  34
ENDBRANCH  20  22
ENDBRANCH   1  20
TORSDOF 9
ENDMDL
MODEL 5
REMARK VINA RESULT: -7.430302644      2.297      3.881
REMARK  9 active torsions:
REMARK  status: ('A' for Active; 'I' for Inactive)
REMARK    1  A    between atoms: N1_2  and  C2_5 
REMARK    2  A    between atoms: C2_5  and  O1_6 
REMARK    3  A    between atoms: C2_5  and  C3_8 
REMARK    4  A    between atoms: C4_13  and  C5_14 
REMARK    5  A    between atoms: C5_14  and  N4_16 
REMARK    6  A    between atoms: N4_16  and  N5_18 
REMARK    7  A    between atoms: N5_18  and  C7_20 
REMARK    8  A    between atoms: C8_21  and  N6_22 
REMARK    9  A    between atoms: N8_31  and  C11_32 
ROOT
HETATM    1  N4  UNL     1      38.133  10.157  66.988  1.00  0.00    -0.300 N 
ATOM      2  H4  UNL     1      38.037   9.175  67.248  1.00  0.00     0.186 HD
ENDROOT
BRANCH   1   3
HETATM    3  C5  UNL     1      39.247  10.762  67.225  1.00  0.00     0.067 C 
HETATM    4  C6  UNL     1      39.372  11.822  68.257  1.00  0.00     0.074 C 
BRANCH   3   5
HETATM    5  C4  UNL     1      40.421  10.407  66.463  1.00  0.00     0.145 A 
HETATM    6  N3  UNL     1      41.651  10.099  66.921  1.00  0.00    -0.282 N 
HETATM    7  N2  UNL     1      42.457   9.825  65.909  1.00  0.00    -0.284 N 
ATOM      8  H3  UNL     1      41.921  10.080  67.904  1.00  0.00     0.188 HD
HETATM    9  C3  UNL     1      41.766   9.950  64.771  1.00  0.00     0.155 A 
ATOM     10  H2  UNL     1      43.439   9.562  65.985  1.00  0.00     0.188 HD
HETATM   11  N9  UNL     1      40.508  10.313  65.138  1.00  0.00    -0.325 N 
ATOM     12  H9  UNL     1      39.739  10.488  64.490  1.00  0.00     0.169 HD
BRANCH   9  13
HETATM   13  C2  UNL     1      42.185   9.728  63.378  1.00  0.00     0.388 C 
BRANCH  13  14
HETATM   14  N1  UNL     1      43.003   8.550  63.279  1.00  0.00    -0.046 N 
HETATM   15  C1  UNL     1      44.338   8.835  63.745  1.00  0.00     0.270 C 
ATOM     16  H12 UNL     1      43.003   8.162  62.336  1.00  0.00     0.280 HD
ATOM     17  H11 UNL     1      42.590   7.756  63.768  1.00  0.00     0.280 HD
ENDBRANCH  13  14
BRANCH  13  18
HETATM   18  O1  UNL     1      41.092   9.749  62.551  1.00  0.00    -0.364 OA
ATOM     19  H1  UNL     1      41.194  10.266  61.760  1.00  0.00     0.212 HD
ENDBRANCH  13  18
ENDBRANCH   9  13
ENDBRANCH   3   5
ENDBRANCH   1   3
BRANCH   1  20
HETATM   20  N5  UNL     1      37.048  10.811  66.382  1.00  0.00    -0.283 N 
ATOM     21  H5  UNL     1      37.229  11.488  65.640  1.00  0.00     0.188 HD
BRANCH  20  22
HETATM   22  C7  UNL     1      35.748  10.565  66.760  1.00  0.00     0.166 A 
HETATM   23  C8  UNL     1      35.219   9.313  66.434  1.00  0.00     0.216 A 
HETATM   24  C9  UNL     1      33.916   9.021  66.851  1.00  0.00     0.286 A 
HETATM   25  O4  UNL     1      33.422   7.906  66.571  1.00  0.00    -0.265 OA
HETATM   26  N7  UNL     1      33.260   9.948  67.530  1.00  0.00    -0.273 N 
HETATM   27  C10 UNL     1      33.797  11.130  67.820  1.00  0.00     0.331 A 
ATOM     28  H7  UNL     1      32.309   9.750  67.841  1.00  0.00     0.173 HD
HETATM   29  O5  UNL     1      33.047  11.915  68.476  1.00  0.00    -0.246 OA
HETATM   30  N8  UNL     1      35.078  11.501  67.447  1.00  0.00    -0.278 N 
BRANCH  23  31
HETATM   31  N6  UNL     1      35.892   8.312  65.697  1.00  0.00    -0.106 N 
HETATM   32  O2  UNL     1      36.835   7.697  66.201  1.00  0.00    -0.531 OA
HETATM   33  O3  UNL     1      35.515   8.063  64.413  1.00  0.00    -0.531 OA
ENDBRANCH  23  31
BRANCH  30  34
HETATM   34  C11 UNL     1      35.409  12.775  67.883  1.00  0.00     0.088 C 
HETATM   35  C12 UNL     1      35.943  13.881  67.140  1.00  0.00     0.032 C 
HETATM   36  C13 UNL     1      36.319  12.595  69.129  1.00  0.00     0.032 C 
ENDBRANCH  30  34
ENDBRANCH  20  22
ENDBRANCH   1  20
TORSDOF 9
ENDMDL
