MODEL 1
REMARK VINA RESULT: -8.792179304      0.000      0.000
REMARK  11 active torsions:
REMARK  status: ('A' for Active; 'I' for Inactive)
REMARK    1  A    between atoms: C2_3  and  O1_4 
REMARK    2  A    between atoms: C3_6  and  N2_7 
REMARK    3  A    between atoms: N2_7  and  C4_8 
REMARK    4  A    between atoms: C4_8  and  O2_9 
REMARK    5  A    between atoms: C4_8  and  C5_11 
REMARK    6  A    between atoms: C5_11  and  O3_12 
REMARK    7  A    between atoms: O3_12  and  C6_13 
REMARK    8  A    between atoms: C6_13  and  C7_14 
REMARK       I    between atoms: C7_14  and  N3_16 
REMARK    9  A    between atoms: N3_16  and  N4_18 
REMARK   10  A    between atoms: C9_20  and  N5_21 
REMARK   11  A    between atoms: C10_25  and  N6_26 
ROOT
HETATM    1  O3  UNL     1      40.639  10.404  69.891  1.00  0.00    -0.373 OA
ENDROOT
BRANCH   1   2
HETATM    2  C5  UNL     1      41.839  10.575  69.448  1.00  0.00     0.268 C 
BRANCH   2   3
HETATM    3  C4  UNL     1      42.081  11.119  68.104  1.00  0.00     0.216 C 
BRANCH   3   4
HETATM    4  N2  UNL     1      42.400  10.503  66.970  1.00  0.00    -0.360 NA
BRANCH   4   5
HETATM    5  C3  UNL     1      42.728   9.868  65.803  1.00  0.00     0.237 A 
HETATM    6  C2  UNL     1      41.902   9.946  64.628  1.00  0.00     0.206 A 
HETATM    7  N1  UNL     1      42.453   9.273  63.640  1.00  0.00    -0.280 N 
HETATM    8  C1  UNL     1      41.906   9.117  62.264  1.00  0.00     0.163 C 
HETATM    9  C11 UNL     1      43.597   8.749  64.084  1.00  0.00     0.330 A 
HETATM   10  N7  UNL     1      43.742   9.123  65.388  1.00  0.00    -0.279 N 
HETATM   11  O7  UNL     1      44.398   8.036  63.419  1.00  0.00    -0.246 OA
ATOM     12  H7  UNL     1      44.537   8.862  65.972  1.00  0.00     0.173 HD
BRANCH   6  13
HETATM   13  O1  UNL     1      40.717  10.648  64.631  1.00  0.00    -0.342 OA
ATOM     14  H1  UNL     1      39.909  10.442  65.085  1.00  0.00     0.219 HD
ENDBRANCH   6  13
ENDBRANCH   4   5
ENDBRANCH   3   4
BRANCH   3  15
HETATM   15  O2  UNL     1      41.959  12.418  68.069  1.00  0.00    -0.337 OA
ATOM     16  H2  UNL     1      42.754  12.929  67.963  1.00  0.00     0.220 HD
ENDBRANCH   3  15
ENDBRANCH   2   3
ENDBRANCH   1   2
BRANCH   1  17
HETATM   17  C6  UNL     1      39.720  11.264  70.322  1.00  0.00     0.272 C 
BRANCH  17  18
HETATM   18  C7  UNL     1      38.710  11.370  69.128  1.00  0.00     0.260 C 
HETATM   19  O4  UNL     1      39.049  12.141  68.251  1.00  0.00    -0.269 OA
HETATM   20  N3  UNL     1      37.601  10.585  69.244  1.00  0.00    -0.260 N 
ATOM     21  H3  UNL     1      37.562  10.052  70.113  1.00  0.00     0.190 HD
BRANCH  20  22
HETATM   22  N4  UNL     1      36.494  10.368  68.390  1.00  0.00    -0.240 N 
HETATM   23  C8  UNL     1      36.513   9.299  67.573  1.00  0.00     0.162 A 
HETATM   24  C9  UNL     1      35.504   9.107  66.706  1.00  0.00     0.164 A 
HETATM   25  S1  UNL     1      34.493  10.420  67.012  1.00  0.00    -0.027 SA
HETATM   26  C10 UNL     1      35.458  11.184  68.283  1.00  0.00     0.165 A 
BRANCH  24  27
HETATM   27  N5  UNL     1      35.371   8.010  65.760  1.00  0.00    -0.107 N 
HETATM   28  O5  UNL     1      35.286   6.893  66.288  1.00  0.00    -0.531 OA
HETATM   29  O6  UNL     1      35.343   8.220  64.421  1.00  0.00    -0.531 OA
ENDBRANCH  24  27
BRANCH  26  30
HETATM   30  N6  UNL     1      35.085  12.294  68.787  1.00  0.00    -0.378 N 
ATOM     31  H62 UNL     1      34.941  13.105  68.185  1.00  0.00     0.158 HD
ATOM     32  H61 UNL     1      34.914  12.673  69.718  1.00  0.00     0.158 HD
ENDBRANCH  26  30
ENDBRANCH  20  22
ENDBRANCH  17  18
ENDBRANCH   1  17
TORSDOF 11
ENDMDL
MODEL 2
REMARK VINA RESULT: -8.696225048      1.804      2.213
REMARK  11 active torsions:
REMARK  status: ('A' for Active; 'I' for Inactive)
REMARK    1  A    between atoms: C2_3  and  O1_4 
REMARK    2  A    between atoms: C3_6  and  N2_7 
REMARK    3  A    between atoms: N2_7  and  C4_8 
REMARK    4  A    between atoms: C4_8  and  O2_9 
REMARK    5  A    between atoms: C4_8  and  C5_11 
REMARK    6  A    between atoms: C5_11  and  O3_12 
REMARK    7  A    between atoms: O3_12  and  C6_13 
REMARK    8  A    between atoms: C6_13  and  C7_14 
REMARK       I    between atoms: C7_14  and  N3_16 
REMARK    9  A    between atoms: N3_16  and  N4_18 
REMARK   10  A    between atoms: C9_20  and  N5_21 
REMARK   11  A    between atoms: C10_25  and  N6_26 
ROOT
HETATM    1  O3  UNL     1      41.212  11.165  69.955  1.00  0.00    -0.373 OA
ENDROOT
BRANCH   1   2
HETATM    2  C5  UNL     1      41.611  10.374  69.016  1.00  0.00     0.268 C 
BRANCH   2   3
HETATM    3  C4  UNL     1      42.132  10.904  67.748  1.00  0.00     0.216 C 
BRANCH   3   4
HETATM    4  N2  UNL     1      42.524  10.271  66.647  1.00  0.00    -0.360 NA
BRANCH   4   5
HETATM    5  C3  UNL     1      42.926   9.619  65.512  1.00  0.00     0.237 A 
HETATM    6  C2  UNL     1      42.190   9.699  64.279  1.00  0.00     0.206 A 
HETATM    7  N1  UNL     1      42.801   9.009  63.340  1.00  0.00    -0.280 N 
HETATM    8  C1  UNL     1      42.353   8.849  61.929  1.00  0.00     0.163 C 
HETATM    9  C11 UNL     1      43.899   8.470  63.871  1.00  0.00     0.330 A 
HETATM   10  N7  UNL     1      43.955   8.854  65.179  1.00  0.00    -0.279 N 
HETATM   11  O7  UNL     1      44.735   7.738  63.273  1.00  0.00    -0.246 OA
ATOM     12  H7  UNL     1      44.700   8.585  65.822  1.00  0.00     0.173 HD
BRANCH   6  13
HETATM   13  O1  UNL     1      41.021  10.421  64.189  1.00  0.00    -0.342 OA
ATOM     14  H1  UNL     1      40.825  11.279  64.549  1.00  0.00     0.219 HD
ENDBRANCH   6  13
ENDBRANCH   4   5
ENDBRANCH   3   4
BRANCH   3  15
HETATM   15  O2  UNL     1      42.211  12.206  67.753  1.00  0.00    -0.337 OA
ATOM     16  H2  UNL     1      41.966  12.656  68.553  1.00  0.00     0.220 HD
ENDBRANCH   3  15
ENDBRANCH   2   3
ENDBRANCH   1   2
BRANCH   1  17
HETATM   17  C6  UNL     1      40.031  11.316  70.547  1.00  0.00     0.272 C 
BRANCH  17  18
HETATM   18  C7  UNL     1      39.029  11.496  69.356  1.00  0.00     0.260 C 
HETATM   19  O4  UNL     1      39.345  12.362  68.561  1.00  0.00    -0.269 OA
HETATM   20  N3  UNL     1      37.952  10.660  69.380  1.00  0.00    -0.260 N 
ATOM     21  H3  UNL     1      37.927  10.044  70.193  1.00  0.00     0.190 HD
BRANCH  20  22
HETATM   22  N4  UNL     1      36.864  10.482  68.495  1.00  0.00    -0.240 N 
HETATM   23  C8  UNL     1      35.673  11.015  68.826  1.00  0.00     0.162 A 
HETATM   24  C9  UNL     1      34.608  10.804  68.034  1.00  0.00     0.164 A 
HETATM   25  S1  UNL     1      35.243   9.853  66.796  1.00  0.00    -0.027 SA
HETATM   26  C10 UNL     1      36.909   9.764  67.384  1.00  0.00     0.165 A 
BRANCH  24  27
HETATM   27  N5  UNL     1      33.259  11.306  68.245  1.00  0.00    -0.107 N 
HETATM   28  O5  UNL     1      32.741  10.939  69.309  1.00  0.00    -0.531 OA
HETATM   29  O6  UNL     1      32.644  12.105  67.339  1.00  0.00    -0.531 OA
ENDBRANCH  24  27
BRANCH  26  30
HETATM   30  N6  UNL     1      37.769   9.058  66.761  1.00  0.00    -0.378 N 
ATOM     31  H62 UNL     1      38.753   9.100  67.026  1.00  0.00     0.158 HD
ATOM     32  H61 UNL     1      37.780   8.429  65.958  1.00  0.00     0.158 HD
ENDBRANCH  26  30
ENDBRANCH  20  22
ENDBRANCH  17  18
ENDBRANCH   1  17
TORSDOF 11
ENDMDL
MODEL 3
REMARK VINA RESULT: -8.275768469      0.955      1.461
REMARK  11 active torsions:
REMARK  status: ('A' for Active; 'I' for Inactive)
REMARK    1  A    between atoms: C2_3  and  O1_4 
REMARK    2  A    between atoms: C3_6  and  N2_7 
REMARK    3  A    between atoms: N2_7  and  C4_8 
REMARK    4  A    between atoms: C4_8  and  O2_9 
REMARK    5  A    between atoms: C4_8  and  C5_11 
REMARK    6  A    between atoms: C5_11  and  O3_12 
REMARK    7  A    between atoms: O3_12  and  C6_13 
REMARK    8  A    between atoms: C6_13  and  C7_14 
REMARK       I    between atoms: C7_14  and  N3_16 
REMARK    9  A    between atoms: N3_16  and  N4_18 
REMARK   10  A    between atoms: C9_20  and  N5_21 
REMARK   11  A    between atoms: C10_25  and  N6_26 
ROOT
HETATM    1  O3  UNL     1      40.344  10.365  70.107  1.00  0.00    -0.373 OA
ENDROOT
BRANCH   1   2
HETATM    2  C5  UNL     1      41.559  10.326  69.676  1.00  0.00     0.268 C 
BRANCH   2   3
HETATM    3  C4  UNL     1      41.967  11.087  68.486  1.00  0.00     0.216 C 
BRANCH   3   4
HETATM    4  N2  UNL     1      41.934  10.756  67.199  1.00  0.00    -0.360 NA
BRANCH   4   5
HETATM    5  C3  UNL     1      41.899  10.414  65.875  1.00  0.00     0.237 A 
HETATM    6  C2  UNL     1      42.862   9.523  65.285  1.00  0.00     0.206 A 
HETATM    7  N1  UNL     1      42.590   9.338  64.011  1.00  0.00    -0.280 N 
HETATM    8  C1  UNL     1      43.352   8.483  63.060  1.00  0.00     0.163 C 
HETATM    9  C11 UNL     1      41.505  10.054  63.711  1.00  0.00     0.330 A 
HETATM   10  N7  UNL     1      41.104  10.690  64.850  1.00  0.00    -0.279 N 
HETATM   11  O7  UNL     1      40.949  10.128  62.582  1.00  0.00    -0.246 OA
ATOM     12  H7  UNL     1      40.292  11.304  64.906  1.00  0.00     0.173 HD
BRANCH   6  13
HETATM   13  O1  UNL     1      43.890   8.987  66.029  1.00  0.00    -0.342 OA
ATOM     14  H1  UNL     1      44.151   9.200  66.917  1.00  0.00     0.219 HD
ENDBRANCH   6  13
ENDBRANCH   4   5
ENDBRANCH   3   4
BRANCH   3  15
HETATM   15  O2  UNL     1      42.435  12.266  68.792  1.00  0.00    -0.337 OA
ATOM     16  H2  UNL     1      42.907  12.737  68.115  1.00  0.00     0.220 HD
ENDBRANCH   3  15
ENDBRANCH   2   3
ENDBRANCH   1   2
BRANCH   1  17
HETATM   17  C6  UNL     1      39.519  11.380  70.350  1.00  0.00     0.272 C 
BRANCH  17  18
HETATM   18  C7  UNL     1      38.546  11.382  69.122  1.00  0.00     0.260 C 
HETATM   19  O4  UNL     1      38.918  12.067  68.188  1.00  0.00    -0.269 OA
HETATM   20  N3  UNL     1      37.427  10.616  69.275  1.00  0.00    -0.260 N 
ATOM     21  H3  UNL     1      37.358  10.166  70.187  1.00  0.00     0.190 HD
BRANCH  20  22
HETATM   22  N4  UNL     1      36.345  10.328  68.411  1.00  0.00    -0.240 N 
HETATM   23  C8  UNL     1      36.458   9.286  67.567  1.00  0.00     0.162 A 
HETATM   24  C9  UNL     1      35.470   9.032  66.690  1.00  0.00     0.164 A 
HETATM   25  S1  UNL     1      34.350  10.245  67.026  1.00  0.00    -0.027 SA
HETATM   26  C10 UNL     1      35.243  11.055  68.321  1.00  0.00     0.165 A 
BRANCH  24  27
HETATM   27  N5  UNL     1      35.434   7.953  65.716  1.00  0.00    -0.107 N 
HETATM   28  O5  UNL     1      35.384   6.820  66.215  1.00  0.00    -0.531 OA
HETATM   29  O6  UNL     1      35.452   8.192  64.382  1.00  0.00    -0.531 OA
ENDBRANCH  24  27
BRANCH  26  30
HETATM   30  N6  UNL     1      34.776  12.116  68.851  1.00  0.00    -0.378 N 
ATOM     31  H62 UNL     1      33.984  12.060  69.491  1.00  0.00     0.158 HD
ATOM     32  H61 UNL     1      34.941  13.120  68.786  1.00  0.00     0.158 HD
ENDBRANCH  26  30
ENDBRANCH  20  22
ENDBRANCH  17  18
ENDBRANCH   1  17
TORSDOF 11
ENDMDL
MODEL 4
REMARK VINA RESULT: -8.027282379      2.161      6.756
REMARK  11 active torsions:
REMARK  status: ('A' for Active; 'I' for Inactive)
REMARK    1  A    between atoms: C2_3  and  O1_4 
REMARK    2  A    between atoms: C3_6  and  N2_7 
REMARK    3  A    between atoms: N2_7  and  C4_8 
REMARK    4  A    between atoms: C4_8  and  O2_9 
REMARK    5  A    between atoms: C4_8  and  C5_11 
REMARK    6  A    between atoms: C5_11  and  O3_12 
REMARK    7  A    between atoms: O3_12  and  C6_13 
REMARK    8  A    between atoms: C6_13  and  C7_14 
REMARK       I    between atoms: C7_14  and  N3_16 
REMARK    9  A    between atoms: N3_16  and  N4_18 
REMARK   10  A    between atoms: C9_20  and  N5_21 
REMARK   11  A    between atoms: C10_25  and  N6_26 
ROOT
HETATM    1  O3  UNL     1      40.563  10.336  70.536  1.00  0.00    -0.373 OA
ENDROOT
BRANCH   1   2
HETATM    2  C5  UNL     1      39.670  11.267  70.540  1.00  0.00     0.268 C 
BRANCH   2   3
HETATM    3  C4  UNL     1      38.924  11.609  69.321  1.00  0.00     0.216 C 
BRANCH   3   4
HETATM    4  N2  UNL     1      37.724  11.215  68.906  1.00  0.00    -0.360 NA
BRANCH   4   5
HETATM    5  C3  UNL     1      36.489  10.810  68.479  1.00  0.00     0.237 A 
HETATM    6  C2  UNL     1      36.311   9.693  67.589  1.00  0.00     0.206 A 
HETATM    7  N1  UNL     1      35.031   9.496  67.356  1.00  0.00    -0.280 N 
HETATM    8  C1  UNL     1      34.444   8.439  66.489  1.00  0.00     0.163 C 
HETATM    9  C11 UNL     1      34.341  10.415  68.035  1.00  0.00     0.330 A 
HETATM   10  N7  UNL     1      35.240  11.192  68.706  1.00  0.00    -0.279 N 
HETATM   11  O7  UNL     1      33.086  10.542  68.053  1.00  0.00    -0.246 OA
ATOM     12  H7  UNL     1      34.981  11.972  69.309  1.00  0.00     0.173 HD
BRANCH   6  13
HETATM   13  O1  UNL     1      37.390   8.990  67.100  1.00  0.00    -0.342 OA
ATOM     14  H1  UNL     1      37.596   8.775  66.198  1.00  0.00     0.219 HD
ENDBRANCH   6  13
ENDBRANCH   4   5
ENDBRANCH   3   4
BRANCH   3  15
HETATM   15  O2  UNL     1      39.587  12.427  68.551  1.00  0.00    -0.337 OA
ATOM     16  H2  UNL     1      40.437  12.140  68.237  1.00  0.00     0.220 HD
ENDBRANCH   3  15
ENDBRANCH   2   3
ENDBRANCH   1   2
BRANCH   1  17
HETATM   17  C6  UNL     1      41.876  10.366  70.322  1.00  0.00     0.272 C 
BRANCH  17  18
HETATM   18  C7  UNL     1      42.006  10.801  68.822  1.00  0.00     0.260 C 
HETATM   19  O4  UNL     1      42.486  11.907  68.660  1.00  0.00    -0.269 OA
HETATM   20  N3  UNL     1      41.565   9.880  67.917  1.00  0.00    -0.260 N 
ATOM     21  H3  UNL     1      41.179   9.037  68.342  1.00  0.00     0.190 HD
BRANCH  20  22
HETATM   22  N4  UNL     1      41.540   9.870  66.503  1.00  0.00    -0.240 N 
HETATM   23  C8  UNL     1      42.623   9.414  65.845  1.00  0.00     0.162 A 
HETATM   24  C9  UNL     1      42.650   9.456  64.502  1.00  0.00     0.164 A 
HETATM   25  S1  UNL     1      41.155  10.133  64.118  1.00  0.00    -0.027 SA
HETATM   26  C10 UNL     1      40.549  10.344  65.766  1.00  0.00     0.165 A 
BRANCH  24  27
HETATM   27  N5  UNL     1      43.734   9.006  63.643  1.00  0.00    -0.107 N 
HETATM   28  O5  UNL     1      43.362   8.548  62.554  1.00  0.00    -0.531 OA
HETATM   29  O6  UNL     1      45.032   9.092  64.025  1.00  0.00    -0.531 OA
ENDBRANCH  24  27
BRANCH  26  30
HETATM   30  N6  UNL     1      39.423  10.909  65.965  1.00  0.00    -0.378 N 
ATOM     31  H62 UNL     1      39.290  11.508  66.779  1.00  0.00     0.158 HD
ATOM     32  H61 UNL     1      38.498  10.905  65.535  1.00  0.00     0.158 HD
ENDBRANCH  26  30
ENDBRANCH  20  22
ENDBRANCH  17  18
ENDBRANCH   1  17
TORSDOF 11
ENDMDL
MODEL 5
REMARK VINA RESULT: -7.923296416      2.164      6.694
REMARK  11 active torsions:
REMARK  status: ('A' for Active; 'I' for Inactive)
REMARK    1  A    between atoms: C2_3  and  O1_4 
REMARK    2  A    between atoms: C3_6  and  N2_7 
REMARK    3  A    between atoms: N2_7  and  C4_8 
REMARK    4  A    between atoms: C4_8  and  O2_9 
REMARK    5  A    between atoms: C4_8  and  C5_11 
REMARK    6  A    between atoms: C5_11  and  O3_12 
REMARK    7  A    between atoms: O3_12  and  C6_13 
REMARK    8  A    between atoms: C6_13  and  C7_14 
REMARK       I    between atoms: C7_14  and  N3_16 
REMARK    9  A    between atoms: N3_16  and  N4_18 
REMARK   10  A    between atoms: C9_20  and  N5_21 
REMARK   11  A    between atoms: C10_25  and  N6_26 
ROOT
HETATM    1  O3  UNL     1      41.102  11.259  70.906  1.00  0.00    -0.373 OA
ENDROOT
BRANCH   1   2
HETATM    2  C5  UNL     1      39.838  11.513  70.850  1.00  0.00     0.268 C 
BRANCH   2   3
HETATM    3  C4  UNL     1      39.148  11.649  69.559  1.00  0.00     0.216 C 
BRANCH   3   4
HETATM    4  N2  UNL     1      38.036  11.072  69.113  1.00  0.00    -0.360 NA
BRANCH   4   5
HETATM    5  C3  UNL     1      36.892  10.480  68.654  1.00  0.00     0.237 A 
HETATM    6  C2  UNL     1      35.647  11.194  68.544  1.00  0.00     0.206 A 
HETATM    7  N1  UNL     1      34.714  10.408  68.052  1.00  0.00    -0.280 N 
HETATM    8  C1  UNL     1      33.297  10.778  67.788  1.00  0.00     0.163 C 
HETATM    9  C11 UNL     1      35.257   9.210  67.828  1.00  0.00     0.330 A 
HETATM   10  N7  UNL     1      36.570   9.279  68.194  1.00  0.00    -0.279 N 
HETATM   11  O7  UNL     1      34.666   8.198  67.362  1.00  0.00    -0.246 OA
ATOM     12  H7  UNL     1      37.224   8.499  68.124  1.00  0.00     0.173 HD
BRANCH   6  13
HETATM   13  O1  UNL     1      35.544  12.513  68.925  1.00  0.00    -0.342 OA
ATOM     14  H1  UNL     1      35.554  13.290  68.378  1.00  0.00     0.219 HD
ENDBRANCH   6  13
ENDBRANCH   4   5
ENDBRANCH   3   4
BRANCH   3  15
HETATM   15  O2  UNL     1      39.763  12.471  68.755  1.00  0.00    -0.337 OA
ATOM     16  H2  UNL     1      39.354  13.314  68.596  1.00  0.00     0.220 HD
ENDBRANCH   3  15
ENDBRANCH   2   3
ENDBRANCH   1   2
BRANCH   1  17
HETATM   17  C6  UNL     1      41.842  10.302  70.352  1.00  0.00     0.272 C 
BRANCH  17  18
HETATM   18  C7  UNL     1      41.991  10.755  68.858  1.00  0.00     0.260 C 
HETATM   19  O4  UNL     1      42.510  11.845  68.714  1.00  0.00    -0.269 OA
HETATM   20  N3  UNL     1      41.520   9.863  67.939  1.00  0.00    -0.260 N 
ATOM     21  H3  UNL     1      41.104   9.028  68.351  1.00  0.00     0.190 HD
BRANCH  20  22
HETATM   22  N4  UNL     1      41.499   9.875  66.525  1.00  0.00    -0.240 N 
HETATM   23  C8  UNL     1      42.570   9.400  65.863  1.00  0.00     0.162 A 
HETATM   24  C9  UNL     1      42.601   9.461  64.521  1.00  0.00     0.164 A 
HETATM   25  S1  UNL     1      41.126  10.184  64.144  1.00  0.00    -0.027 SA
HETATM   26  C10 UNL     1      40.522  10.387  65.794  1.00  0.00     0.165 A 
BRANCH  24  27
HETATM   27  N5  UNL     1      43.675   8.995  63.657  1.00  0.00    -0.107 N 
HETATM   28  O5  UNL     1      44.810   9.164  64.122  1.00  0.00    -0.531 OA
HETATM   29  O6  UNL     1      43.427   8.426  62.452  1.00  0.00    -0.531 OA
ENDBRANCH  24  27
BRANCH  26  30
HETATM   30  N6  UNL     1      39.412  10.979  65.998  1.00  0.00    -0.378 N 
ATOM     31  H62 UNL     1      39.357  11.996  65.939  1.00  0.00     0.158 HD
ATOM     32  H61 UNL     1      38.467  10.720  66.282  1.00  0.00     0.158 HD
ENDBRANCH  26  30
ENDBRANCH  20  22
ENDBRANCH  17  18
ENDBRANCH   1  17
TORSDOF 11
ENDMDL
