MODEL 1
REMARK VINA RESULT: -7.822858171      0.000      0.000
REMARK  7 active torsions:
REMARK  status: ('A' for Active; 'I' for Inactive)
REMARK    1  A    between atoms: O1_2  and  C2_3 
REMARK    2  A    between atoms: C2_3  and  C3_5 
REMARK    3  A    between atoms: N2_9  and  C5_11 
REMARK    4  A    between atoms: N3_15  and  C9_16 
REMARK    5  A    between atoms: N6_23  and  N7_24 
REMARK    6  A    between atoms: N7_24  and  O3_26 
REMARK    7  A    between atoms: C11_30  and  C12_31 
ROOT
HETATM    1  C3  UNL     1      25.782  44.693  42.947  1.00  0.00     0.159 A 
HETATM    2  N1  UNL     1      25.955  43.450  43.521  1.00  0.00    -0.182 N 
ATOM      3  H1  UNL     1      25.859  42.552  43.047  1.00  0.00     0.184 HD
HETATM    4  C4  UNL     1      26.267  43.628  44.805  1.00  0.00     0.701 A 
HETATM    5  N2  UNL     1      26.512  42.719  45.706  1.00  0.00    -0.217 N 
ATOM      6  H2  UNL     1      26.740  43.014  46.655  1.00  0.00     0.178 HD
HETATM    7  N3  UNL     1      26.309  44.930  45.102  1.00  0.00     0.034 N 
HETATM    8  C11 UNL     1      26.004  45.607  43.936  1.00  0.00     0.184 A 
ENDROOT
BRANCH   7   9
HETATM    9  C9  UNL     1      26.607  45.509  46.363  1.00  0.00     0.735 A 
HETATM   10  N4  UNL     1      27.013  44.829  47.476  1.00  0.00    -0.017 N 
HETATM   11  C10 UNL     1      27.206  45.683  48.490  1.00  0.00     0.729 A 
ATOM     12  H4  UNL     1      27.149  43.820  47.528  1.00  0.00     0.203 HD
HETATM   13  N5  UNL     1      27.592  45.429  49.707  1.00  0.00    -0.231 N 
HETATM   14  N6  UNL     1      26.924  46.916  48.025  1.00  0.00     0.014 N 
ATOM     15  H52 UNL     1      27.806  44.495  50.058  1.00  0.00     0.174 HD
ATOM     16  H51 UNL     1      27.739  46.079  50.478  1.00  0.00     0.174 HD
HETATM   17  N8  UNL     1      26.570  46.790  46.760  1.00  0.00    -0.092 N 
ATOM     18  H8  UNL     1      26.303  47.569  46.160  1.00  0.00     0.208 HD
BRANCH  14  19
HETATM   19  N7  UNL     1      27.001  48.111  48.785  1.00  0.00    -0.173 N 
ATOM     20  H7  UNL     1      27.591  48.187  49.613  1.00  0.00     0.218 HD
BRANCH  19  21
HETATM   21  O3  UNL     1      26.299  49.070  48.375  1.00  0.00    -0.272 OA
ATOM     22  H3  UNL     1      26.771  49.861  48.142  1.00  0.00     0.246 HD
ENDBRANCH  19  21
ENDBRANCH  14  19
ENDBRANCH   7   9
BRANCH   8  23
HETATM   23  C12 UNL     1      25.951  47.027  43.862  1.00  0.00     0.231 C 
HETATM   24  O4  UNL     1      27.035  47.672  43.632  1.00  0.00    -0.643 OA
HETATM   25  O5  UNL     1      24.844  47.796  44.011  1.00  0.00    -0.643 OA
ENDBRANCH   8  23
BRANCH   5  26
HETATM   26  C5  UNL     1      26.472  41.325  45.407  1.00  0.00     0.036 C 
HETATM   27  C6  UNL     1      27.458  40.929  44.305  1.00  0.00     0.038 C 
HETATM   28  C7  UNL     1      26.907  40.540  46.636  1.00  0.00     0.038 C 
HETATM   29  C8  UNL     1      25.080  40.902  45.055  1.00  0.00     0.038 C 
ENDBRANCH   5  26
BRANCH   1  30
HETATM   30  C2  UNL     1      25.433  44.824  41.551  1.00  0.00     0.312 C 
HETATM   31  O2  UNL     1      26.302  44.524  40.670  1.00  0.00    -0.258 OA
BRANCH  30  32
HETATM   32  O1  UNL     1      24.227  45.251  41.082  1.00  0.00    -0.321 OA
HETATM   33  C1  UNL     1      23.798  45.078  39.725  1.00  0.00     0.213 C 
ENDBRANCH  30  32
ENDBRANCH   1  30
TORSDOF 7
ENDMDL
MODEL 2
REMARK VINA RESULT: -7.648807670      2.213      5.709
REMARK  7 active torsions:
REMARK  status: ('A' for Active; 'I' for Inactive)
REMARK    1  A    between atoms: O1_2  and  C2_3 
REMARK    2  A    between atoms: C2_3  and  C3_5 
REMARK    3  A    between atoms: N2_9  and  C5_11 
REMARK    4  A    between atoms: N3_15  and  C9_16 
REMARK    5  A    between atoms: N6_23  and  N7_24 
REMARK    6  A    between atoms: N7_24  and  O3_26 
REMARK    7  A    between atoms: C11_30  and  C12_31 
ROOT
HETATM    1  C3  UNL     1      26.100  44.846  46.370  1.00  0.00     0.159 A 
HETATM    2  N1  UNL     1      26.261  43.487  46.194  1.00  0.00    -0.182 N 
ATOM      3  H1  UNL     1      26.404  42.800  46.934  1.00  0.00     0.184 HD
HETATM    4  C4  UNL     1      26.196  43.228  44.888  1.00  0.00     0.701 A 
HETATM    5  N2  UNL     1      26.299  42.075  44.291  1.00  0.00    -0.217 N 
ATOM      6  H2  UNL     1      26.228  42.037  43.274  1.00  0.00     0.178 HD
HETATM    7  N3  UNL     1      25.999  44.354  44.195  1.00  0.00     0.034 N 
HETATM    8  C11 UNL     1      25.938  45.377  45.122  1.00  0.00     0.184 A 
ENDROOT
BRANCH   7   9
HETATM    9  C9  UNL     1      25.877  44.480  42.787  1.00  0.00     0.735 A 
HETATM   10  N4  UNL     1      26.908  44.663  41.911  1.00  0.00    -0.017 N 
HETATM   11  C10 UNL     1      26.438  44.741  40.659  1.00  0.00     0.729 A 
ATOM     12  H4  UNL     1      27.892  44.732  42.171  1.00  0.00     0.203 HD
HETATM   13  N5  UNL     1      27.097  44.911  39.550  1.00  0.00    -0.231 N 
HETATM   14  N6  UNL     1      25.099  44.605  40.732  1.00  0.00     0.014 N 
ATOM     15  H52 UNL     1      28.111  45.013  39.494  1.00  0.00     0.174 HD
ATOM     16  H51 UNL     1      26.739  44.970  38.597  1.00  0.00     0.174 HD
HETATM   17  N8  UNL     1      24.787  44.451  42.005  1.00  0.00    -0.092 N 
ATOM     18  H8  UNL     1      23.836  44.326  42.351  1.00  0.00     0.208 HD
BRANCH  14  19
HETATM   19  N7  UNL     1      24.215  44.630  39.624  1.00  0.00    -0.173 N 
ATOM     20  H7  UNL     1      23.739  43.790  39.294  1.00  0.00     0.218 HD
BRANCH  19  21
HETATM   21  O3  UNL     1      24.055  45.748  39.072  1.00  0.00    -0.272 OA
ATOM     22  H3  UNL     1      23.157  45.993  38.882  1.00  0.00     0.246 HD
ENDBRANCH  19  21
ENDBRANCH  14  19
ENDBRANCH   7   9
BRANCH   8  23
HETATM   23  C12 UNL     1      25.736  46.738  44.756  1.00  0.00     0.231 C 
HETATM   24  O4  UNL     1      24.581  47.261  44.946  1.00  0.00    -0.643 OA
HETATM   25  O5  UNL     1      26.660  47.566  44.210  1.00  0.00    -0.643 OA
ENDBRANCH   8  23
BRANCH   5  26
HETATM   26  C5  UNL     1      26.509  40.863  45.014  1.00  0.00     0.036 C 
HETATM   27  C6  UNL     1      25.447  40.626  46.089  1.00  0.00     0.038 C 
HETATM   28  C7  UNL     1      26.383  39.685  44.058  1.00  0.00     0.038 C 
HETATM   29  C8  UNL     1      27.884  40.836  45.606  1.00  0.00     0.038 C 
ENDBRANCH   5  26
BRANCH   1  30
HETATM   30  C2  UNL     1      26.124  45.433  47.690  1.00  0.00     0.312 C 
HETATM   31  O2  UNL     1      26.632  44.767  48.648  1.00  0.00    -0.258 OA
BRANCH  30  32
HETATM   32  O1  UNL     1      25.639  46.666  48.007  1.00  0.00    -0.321 OA
HETATM   33  C1  UNL     1      26.472  47.779  48.361  1.00  0.00     0.213 C 
ENDBRANCH  30  32
ENDBRANCH   1  30
TORSDOF 7
ENDMDL
MODEL 3
REMARK VINA RESULT: -7.600308087      1.989      5.702
REMARK  7 active torsions:
REMARK  status: ('A' for Active; 'I' for Inactive)
REMARK    1  A    between atoms: O1_2  and  C2_3 
REMARK    2  A    between atoms: C2_3  and  C3_5 
REMARK    3  A    between atoms: N2_9  and  C5_11 
REMARK    4  A    between atoms: N3_15  and  C9_16 
REMARK    5  A    between atoms: N6_23  and  N7_24 
REMARK    6  A    between atoms: N7_24  and  O3_26 
REMARK    7  A    between atoms: C11_30  and  C12_31 
ROOT
HETATM    1  C3  UNL     1      26.816  45.452  46.293  1.00  0.00     0.159 A 
HETATM    2  N1  UNL     1      27.235  44.138  46.251  1.00  0.00    -0.182 N 
ATOM      3  H1  UNL     1      27.715  43.638  46.999  1.00  0.00     0.184 HD
HETATM    4  C4  UNL     1      26.904  43.636  45.062  1.00  0.00     0.701 A 
HETATM    5  N2  UNL     1      27.115  42.432  44.610  1.00  0.00    -0.217 N 
ATOM      6  H2  UNL     1      26.800  42.195  43.670  1.00  0.00     0.178 HD
HETATM    7  N3  UNL     1      26.285  44.558  44.318  1.00  0.00     0.034 N 
HETATM    8  C11 UNL     1      26.227  45.704  45.087  1.00  0.00     0.184 A 
ENDROOT
BRANCH   7   9
HETATM    9  C9  UNL     1      25.786  44.397  42.999  1.00  0.00     0.735 A 
HETATM   10  N4  UNL     1      24.863  43.471  42.604  1.00  0.00    -0.017 N 
HETATM   11  C10 UNL     1      24.619  43.597  41.294  1.00  0.00     0.729 A 
ATOM     12  H4  UNL     1      24.425  42.783  43.217  1.00  0.00     0.203 HD
HETATM   13  N5  UNL     1      23.807  42.907  40.546  1.00  0.00    -0.231 N 
HETATM   14  N6  UNL     1      25.387  44.610  40.846  1.00  0.00     0.014 N 
ATOM     15  H52 UNL     1      23.225  42.140  40.885  1.00  0.00     0.174 HD
ATOM     16  H51 UNL     1      23.621  43.003  39.548  1.00  0.00     0.174 HD
HETATM   17  N8  UNL     1      26.072  45.071  41.875  1.00  0.00    -0.092 N 
ATOM     18  H8  UNL     1      26.736  45.843  41.822  1.00  0.00     0.208 HD
BRANCH  14  19
HETATM   19  N7  UNL     1      25.429  45.070  39.506  1.00  0.00    -0.173 N 
ATOM     20  H7  UNL     1      26.265  44.978  38.928  1.00  0.00     0.218 HD
BRANCH  19  21
HETATM   21  O3  UNL     1      24.373  45.599  39.072  1.00  0.00    -0.272 OA
ATOM     22  H3  UNL     1      24.451  46.496  38.770  1.00  0.00     0.246 HD
ENDBRANCH  19  21
ENDBRANCH  14  19
ENDBRANCH   7   9
BRANCH   8  23
HETATM   23  C12 UNL     1      25.631  46.913  44.625  1.00  0.00     0.231 C 
HETATM   24  O4  UNL     1      26.306  47.669  43.840  1.00  0.00    -0.643 OA
HETATM   25  O5  UNL     1      24.391  47.363  44.935  1.00  0.00    -0.643 OA
ENDBRANCH   8  23
BRANCH   5  26
HETATM   26  C5  UNL     1      27.774  41.435  45.390  1.00  0.00     0.036 C 
HETATM   27  C6  UNL     1      27.034  41.121  46.692  1.00  0.00     0.038 C 
HETATM   28  C7  UNL     1      27.791  40.126  44.612  1.00  0.00     0.038 C 
HETATM   29  C8  UNL     1      29.191  41.831  45.662  1.00  0.00     0.038 C 
ENDBRANCH   5  26
BRANCH   1  30
HETATM   30  C2  UNL     1      27.037  46.266  47.466  1.00  0.00     0.312 C 
HETATM   31  O2  UNL     1      27.368  45.696  48.555  1.00  0.00    -0.258 OA
BRANCH  30  32
HETATM   32  O1  UNL     1      26.919  47.623  47.511  1.00  0.00    -0.321 OA
HETATM   33  C1  UNL     1      26.416  48.338  48.647  1.00  0.00     0.213 C 
ENDBRANCH  30  32
ENDBRANCH   1  30
TORSDOF 7
ENDMDL
MODEL 4
REMARK VINA RESULT: -7.554355997      2.494      5.781
REMARK  7 active torsions:
REMARK  status: ('A' for Active; 'I' for Inactive)
REMARK    1  A    between atoms: O1_2  and  C2_3 
REMARK    2  A    between atoms: C2_3  and  C3_5 
REMARK    3  A    between atoms: N2_9  and  C5_11 
REMARK    4  A    between atoms: N3_15  and  C9_16 
REMARK    5  A    between atoms: N6_23  and  N7_24 
REMARK    6  A    between atoms: N7_24  and  O3_26 
REMARK    7  A    between atoms: C11_30  and  C12_31 
ROOT
HETATM    1  C3  UNL     1      25.686  44.336  46.237  1.00  0.00     0.159 A 
HETATM    2  N1  UNL     1      25.924  43.009  45.941  1.00  0.00    -0.182 N 
ATOM      3  H1  UNL     1      26.044  42.256  46.618  1.00  0.00     0.184 HD
HETATM    4  C4  UNL     1      25.971  42.883  44.615  1.00  0.00     0.701 A 
HETATM    5  N2  UNL     1      26.173  41.802  43.917  1.00  0.00    -0.217 N 
ATOM      6  H2  UNL     1      26.181  41.865  42.899  1.00  0.00     0.178 HD
HETATM    7  N3  UNL     1      25.774  44.065  44.023  1.00  0.00     0.034 N 
HETATM    8  C11 UNL     1      25.594  44.984  45.039  1.00  0.00     0.184 A 
ENDROOT
BRANCH   7   9
HETATM    9  C9  UNL     1      25.753  44.329  42.629  1.00  0.00     0.735 A 
HETATM   10  N4  UNL     1      26.833  44.671  41.867  1.00  0.00    -0.017 N 
HETATM   11  C10 UNL     1      26.457  44.848  40.593  1.00  0.00     0.729 A 
ATOM     12  H4  UNL     1      27.785  44.777  42.215  1.00  0.00     0.203 HD
HETATM   13  N5  UNL     1      27.187  45.177  39.567  1.00  0.00    -0.231 N 
HETATM   14  N6  UNL     1      25.131  44.618  40.538  1.00  0.00     0.014 N 
ATOM     15  H52 UNL     1      28.192  45.351  39.608  1.00  0.00     0.174 HD
ATOM     16  H51 UNL     1      26.901  45.312  38.597  1.00  0.00     0.174 HD
HETATM   17  N8  UNL     1      24.733  44.311  41.758  1.00  0.00    -0.092 N 
ATOM     18  H8  UNL     1      23.769  44.087  42.007  1.00  0.00     0.208 HD
BRANCH  14  19
HETATM   19  N7  UNL     1      24.337  44.699  39.366  1.00  0.00    -0.173 N 
ATOM     20  H7  UNL     1      24.053  43.869  38.847  1.00  0.00     0.218 HD
BRANCH  19  21
HETATM   21  O3  UNL     1      24.005  45.857  39.006  1.00  0.00    -0.272 OA
ATOM     22  H3  UNL     1      23.665  45.937  38.122  1.00  0.00     0.246 HD
ENDBRANCH  19  21
ENDBRANCH  14  19
ENDBRANCH   7   9
BRANCH   8  23
HETATM   23  C12 UNL     1      25.357  46.367  44.794  1.00  0.00     0.231 C 
HETATM   24  O4  UNL     1      26.290  47.206  45.053  1.00  0.00    -0.643 OA
HETATM   25  O5  UNL     1      24.215  46.908  44.302  1.00  0.00    -0.643 OA
ENDBRANCH   8  23
BRANCH   5  26
HETATM   26  C5  UNL     1      26.385  40.532  44.531  1.00  0.00     0.036 C 
HETATM   27  C6  UNL     1      25.170  40.052  45.329  1.00  0.00     0.038 C 
HETATM   28  C7  UNL     1      26.592  39.483  43.447  1.00  0.00     0.038 C 
HETATM   29  C8  UNL     1      27.611  40.560  45.389  1.00  0.00     0.038 C 
ENDBRANCH   5  26
BRANCH   1  30
HETATM   30  C2  UNL     1      25.582  44.785  47.606  1.00  0.00     0.312 C 
HETATM   31  O2  UNL     1      24.764  44.197  48.385  1.00  0.00    -0.258 OA
BRANCH  30  32
HETATM   32  O1  UNL     1      26.300  45.807  48.151  1.00  0.00    -0.321 OA
HETATM   33  C1  UNL     1      27.418  45.611  49.028  1.00  0.00     0.213 C 
ENDBRANCH  30  32
ENDBRANCH   1  30
TORSDOF 7
ENDMDL
MODEL 5
REMARK VINA RESULT: -7.376715153      3.261      5.554
REMARK  7 active torsions:
REMARK  status: ('A' for Active; 'I' for Inactive)
REMARK    1  A    between atoms: O1_2  and  C2_3 
REMARK    2  A    between atoms: C2_3  and  C3_5 
REMARK    3  A    between atoms: N2_9  and  C5_11 
REMARK    4  A    between atoms: N3_15  and  C9_16 
REMARK    5  A    between atoms: N6_23  and  N7_24 
REMARK    6  A    between atoms: N7_24  and  O3_26 
REMARK    7  A    between atoms: C11_30  and  C12_31 
ROOT
HETATM    1  C3  UNL     1      25.252  45.143  43.989  1.00  0.00     0.159 A 
HETATM    2  N1  UNL     1      25.104  44.525  42.764  1.00  0.00    -0.182 N 
ATOM      3  H1  UNL     1      25.008  44.994  41.864  1.00  0.00     0.184 HD
HETATM    4  C4  UNL     1      25.107  43.207  42.964  1.00  0.00     0.701 A 
HETATM    5  N2  UNL     1      24.993  42.259  42.077  1.00  0.00    -0.217 N 
ATOM      6  H2  UNL     1      25.013  41.288  42.387  1.00  0.00     0.178 HD
HETATM    7  N3  UNL     1      25.251  42.928  44.263  1.00  0.00     0.034 N 
HETATM    8  C11 UNL     1      25.342  44.144  44.915  1.00  0.00     0.184 A 
ENDROOT
BRANCH   7   9
HETATM    9  C9  UNL     1      25.301  41.642  44.860  1.00  0.00     0.735 A 
HETATM   10  N4  UNL     1      26.436  40.933  45.132  1.00  0.00    -0.017 N 
HETATM   11  C10 UNL     1      26.120  39.760  45.696  1.00  0.00     0.729 A 
ATOM     12  H4  UNL     1      27.385  41.250  44.935  1.00  0.00     0.203 HD
HETATM   13  N5  UNL     1      26.912  38.810  46.099  1.00  0.00    -0.231 N 
HETATM   14  N6  UNL     1      24.776  39.717  45.787  1.00  0.00     0.014 N 
ATOM     15  H52 UNL     1      27.930  38.843  46.030  1.00  0.00     0.174 HD
ATOM     16  H51 UNL     1      26.672  37.916  46.528  1.00  0.00     0.174 HD
HETATM   17  N8  UNL     1      24.309  40.844  45.285  1.00  0.00    -0.092 N 
ATOM     18  H8  UNL     1      23.319  41.079  45.228  1.00  0.00     0.208 HD
BRANCH  14  19
HETATM   19  N7  UNL     1      24.030  38.639  46.328  1.00  0.00    -0.173 N 
ATOM     20  H7  UNL     1      23.611  37.921  45.737  1.00  0.00     0.218 HD
BRANCH  19  21
HETATM   21  O3  UNL     1      23.916  38.622  47.580  1.00  0.00    -0.272 OA
ATOM     22  H3  UNL     1      23.030  38.563  47.917  1.00  0.00     0.246 HD
ENDBRANCH  19  21
ENDBRANCH  14  19
ENDBRANCH   7   9
BRANCH   8  23
HETATM   23  C12 UNL     1      25.504  44.251  46.325  1.00  0.00     0.231 C 
HETATM   24  O4  UNL     1      26.622  44.678  46.785  1.00  0.00    -0.643 OA
HETATM   25  O5  UNL     1      24.575  43.942  47.263  1.00  0.00    -0.643 OA
ENDBRANCH   8  23
BRANCH   5  26
HETATM   26  C5  UNL     1      24.838  42.537  40.686  1.00  0.00     0.036 C 
HETATM   27  C6  UNL     1      26.025  43.308  40.103  1.00  0.00     0.038 C 
HETATM   28  C7  UNL     1      24.796  41.224  39.918  1.00  0.00     0.038 C 
HETATM   29  C8  UNL     1      23.554  43.264  40.434  1.00  0.00     0.038 C 
ENDBRANCH   5  26
BRANCH   1  30
HETATM   30  C2  UNL     1      25.285  46.584  44.095  1.00  0.00     0.312 C 
HETATM   31  O2  UNL     1      24.184  47.220  44.160  1.00  0.00    -0.258 OA
BRANCH  30  32
HETATM   32  O1  UNL     1      26.417  47.340  44.131  1.00  0.00    -0.321 OA
HETATM   33  C1  UNL     1      27.479  47.226  43.174  1.00  0.00     0.213 C 
ENDBRANCH  30  32
ENDBRANCH   1  30
TORSDOF 7
ENDMDL
