MODEL 1
REMARK VINA RESULT: -7.867035892      0.000      0.000
REMARK  8 active torsions:
REMARK  status: ('A' for Active; 'I' for Inactive)
REMARK    1  A    between atoms: O1_2  and  N1_3 
REMARK    2  A    between atoms: N1_3  and  C2_5 
REMARK    3  A    between atoms: C2_5  and  N2_6 
REMARK    4  A    between atoms: C2_5  and  C10_28 
REMARK    5  A    between atoms: N2_6  and  N3_8 
REMARK    6  A    between atoms: N3_8  and  C3_10 
REMARK    7  A    between atoms: N6_17  and  N7_18 
REMARK    8  A    between atoms: C5_20  and  C6_22 
ROOT
HETATM    1  C3  UNL     1      25.288  46.653  44.735  1.00  0.00     0.728 A 
HETATM    2  N4  UNL     1      26.456  46.949  44.137  1.00  0.00    -0.017 N 
ATOM      3  H4  UNL     1      27.056  47.743  44.360  1.00  0.00     0.203 HD
HETATM    4  C4  UNL     1      26.701  46.017  43.191  1.00  0.00     0.727 A 
HETATM    5  N5  UNL     1      27.727  45.967  42.410  1.00  0.00    -0.231 N 
ATOM      6  H51 UNL     1      27.912  45.262  41.695  1.00  0.00     0.174 HD
ATOM      7  H52 UNL     1      28.501  46.632  42.402  1.00  0.00     0.174 HD
HETATM    8  N6  UNL     1      25.681  45.139  43.203  1.00  0.00    -0.004 N 
HETATM    9  N9  UNL     1      24.830  45.538  44.146  1.00  0.00    -0.094 N 
ATOM     10  H9  UNL     1      23.958  45.066  44.386  1.00  0.00     0.208 HD
ENDROOT
BRANCH   1  11
HETATM   11  N3  UNL     1      24.788  47.367  45.686  1.00  0.00    -0.128 N 
ATOM     12  H3  UNL     1      24.321  48.238  45.430  1.00  0.00     0.205 HD
BRANCH  11  13
HETATM   13  N2  UNL     1      24.839  47.039  47.024  1.00  0.00    -0.266 N 
ATOM     14  H2  UNL     1      23.995  46.800  47.545  1.00  0.00     0.189 HD
BRANCH  13  15
HETATM   15  C2  UNL     1      26.127  47.046  47.657  1.00  0.00     0.194 C 
BRANCH  15  16
HETATM   16  N1  UNL     1      26.738  48.143  47.951  1.00  0.00    -0.246 N 
ATOM     17  H1  UNL     1      27.590  48.374  47.441  1.00  0.00     0.196 HD
BRANCH  16  18
HETATM   18  O1  UNL     1      26.303  49.012  48.911  1.00  0.00    -0.284 OA
HETATM   19  C1  UNL     1      26.499  48.652  50.263  1.00  0.00     0.237 C 
ENDBRANCH  16  18
ENDBRANCH  15  16
BRANCH  15  20
HETATM   20  C10 UNL     1      26.811  45.796  48.002  1.00  0.00     0.215 A 
HETATM   21  N10 UNL     1      26.786  44.641  47.288  1.00  0.00    -0.272 N 
HETATM   22  N11 UNL     1      27.528  43.754  47.934  1.00  0.00    -0.243 N 
ATOM     23  H10 UNL     1      26.286  44.485  46.412  1.00  0.00     0.189 HD
HETATM   24  C11 UNL     1      28.016  44.340  49.045  1.00  0.00     0.386 A 
ATOM     25  H11 UNL     1      27.700  42.792  47.640  1.00  0.00     0.192 HD
HETATM   26  O2  UNL     1      28.758  43.732  49.855  1.00  0.00    -0.236 OA
HETATM   27  O3  UNL     1      27.561  45.557  49.041  1.00  0.00    -0.237 OA
ENDBRANCH  15  20
ENDBRANCH  13  15
ENDBRANCH  11  13
ENDBRANCH   1  11
BRANCH   8  28
HETATM   28  N7  UNL     1      25.472  44.008  42.420  1.00  0.00    -0.254 N 
HETATM   29  C5  UNL     1      24.819  43.968  41.343  1.00  0.00     0.117 C 
HETATM   30  N8  UNL     1      24.230  45.156  40.851  1.00  0.00    -0.085 NA
ATOM     31  H7  UNL     1      25.883  43.134  42.748  1.00  0.00     0.190 HD
BRANCH  29  32
HETATM   32  C6  UNL     1      24.682  42.685  40.619  1.00  0.00     0.006 C 
HETATM   33  C7  UNL     1      23.877  42.837  39.346  1.00  0.00     0.022 C 
HETATM   34  C8  UNL     1      23.986  41.716  41.581  1.00  0.00     0.022 C 
HETATM   35  C9  UNL     1      26.056  42.132  40.355  1.00  0.00     0.022 C 
ENDBRANCH  29  32
ENDBRANCH   8  28
TORSDOF 8
ENDMDL
MODEL 2
REMARK VINA RESULT: -7.816539681      2.094      2.343
REMARK  8 active torsions:
REMARK  status: ('A' for Active; 'I' for Inactive)
REMARK    1  A    between atoms: O1_2  and  N1_3 
REMARK    2  A    between atoms: N1_3  and  C2_5 
REMARK    3  A    between atoms: C2_5  and  N2_6 
REMARK    4  A    between atoms: C2_5  and  C10_28 
REMARK    5  A    between atoms: N2_6  and  N3_8 
REMARK    6  A    between atoms: N3_8  and  C3_10 
REMARK    7  A    between atoms: N6_17  and  N7_18 
REMARK    8  A    between atoms: C5_20  and  C6_22 
ROOT
HETATM    1  C3  UNL     1      25.729  46.467  43.894  1.00  0.00     0.728 A 
HETATM    2  N4  UNL     1      26.940  46.445  43.309  1.00  0.00    -0.017 N 
ATOM      3  H4  UNL     1      27.713  47.078  43.514  1.00  0.00     0.203 HD
HETATM    4  C4  UNL     1      26.960  45.444  42.403  1.00  0.00     0.727 A 
HETATM    5  N5  UNL     1      27.951  45.115  41.644  1.00  0.00    -0.231 N 
ATOM      6  H51 UNL     1      27.967  44.358  40.960  1.00  0.00     0.174 HD
ATOM      7  H52 UNL     1      28.864  45.571  41.627  1.00  0.00     0.174 HD
HETATM    8  N6  UNL     1      25.757  44.842  42.426  1.00  0.00    -0.004 N 
HETATM    9  N9  UNL     1      25.019  45.474  43.338  1.00  0.00    -0.094 N 
ATOM     10  H9  UNL     1      24.056  45.238  43.577  1.00  0.00     0.208 HD
ENDROOT
BRANCH   1  11
HETATM   11  N3  UNL     1      25.409  47.319  44.808  1.00  0.00    -0.128 N 
ATOM     12  H3  UNL     1      25.562  48.308  44.609  1.00  0.00     0.205 HD
BRANCH  11  13
HETATM   13  N2  UNL     1      24.874  46.989  46.036  1.00  0.00    -0.266 N 
ATOM     14  H2  UNL     1      23.989  47.386  46.353  1.00  0.00     0.189 HD
BRANCH  13  15
HETATM   15  C2  UNL     1      25.610  46.065  46.851  1.00  0.00     0.194 C 
BRANCH  15  16
HETATM   16  N1  UNL     1      26.583  46.447  47.608  1.00  0.00    -0.246 N 
ATOM     17  H1  UNL     1      27.098  45.737  48.128  1.00  0.00     0.196 HD
BRANCH  16  18
HETATM   18  O1  UNL     1      26.958  47.752  47.749  1.00  0.00    -0.284 OA
HETATM   19  C1  UNL     1      26.525  48.441  48.904  1.00  0.00     0.237 C 
ENDBRANCH  16  18
ENDBRANCH  15  16
BRANCH  15  20
HETATM   20  C10 UNL     1      25.287  44.636  46.862  1.00  0.00     0.215 A 
HETATM   21  N10 UNL     1      24.674  43.957  47.867  1.00  0.00    -0.272 N 
HETATM   22  N11 UNL     1      24.566  42.693  47.488  1.00  0.00    -0.243 N 
ATOM     23  H10 UNL     1      24.355  44.350  48.752  1.00  0.00     0.189 HD
HETATM   24  C11 UNL     1      25.106  42.571  46.259  1.00  0.00     0.386 A 
ATOM     25  H11 UNL     1      24.146  41.939  48.034  1.00  0.00     0.192 HD
HETATM   26  O2  UNL     1      25.143  41.476  45.646  1.00  0.00    -0.236 OA
HETATM   27  O3  UNL     1      25.522  43.757  45.928  1.00  0.00    -0.237 OA
ENDBRANCH  15  20
ENDBRANCH  13  15
ENDBRANCH  11  13
ENDBRANCH   1  11
BRANCH   8  28
HETATM   28  N7  UNL     1      25.287  43.765  41.682  1.00  0.00    -0.254 N 
HETATM   29  C5  UNL     1      24.406  43.820  40.782  1.00  0.00     0.117 C 
HETATM   30  N8  UNL     1      23.819  45.069  40.470  1.00  0.00    -0.085 NA
ATOM     31  H7  UNL     1      25.690  42.850  41.883  1.00  0.00     0.190 HD
BRANCH  29  32
HETATM   32  C6  UNL     1      24.007  42.584  40.073  1.00  0.00     0.006 C 
HETATM   33  C7  UNL     1      25.169  41.628  39.906  1.00  0.00     0.022 C 
HETATM   34  C8  UNL     1      23.473  43.022  38.705  1.00  0.00     0.022 C 
HETATM   35  C9  UNL     1      22.860  41.954  40.813  1.00  0.00     0.022 C 
ENDBRANCH  29  32
ENDBRANCH   8  28
TORSDOF 8
ENDMDL
MODEL 3
REMARK VINA RESULT: -7.774072448      1.921      3.362
REMARK  8 active torsions:
REMARK  status: ('A' for Active; 'I' for Inactive)
REMARK    1  A    between atoms: O1_2  and  N1_3 
REMARK    2  A    between atoms: N1_3  and  C2_5 
REMARK    3  A    between atoms: C2_5  and  N2_6 
REMARK    4  A    between atoms: C2_5  and  C10_28 
REMARK    5  A    between atoms: N2_6  and  N3_8 
REMARK    6  A    between atoms: N3_8  and  C3_10 
REMARK    7  A    between atoms: N6_17  and  N7_18 
REMARK    8  A    between atoms: C5_20  and  C6_22 
ROOT
HETATM    1  C3  UNL     1      26.908  45.790  42.713  1.00  0.00     0.728 A 
HETATM    2  N4  UNL     1      27.741  45.660  41.664  1.00  0.00    -0.017 N 
ATOM      3  H4  UNL     1      28.682  46.047  41.600  1.00  0.00     0.203 HD
HETATM    4  C4  UNL     1      27.120  44.932  40.712  1.00  0.00     0.727 A 
HETATM    5  N5  UNL     1      27.604  44.600  39.562  1.00  0.00    -0.231 N 
ATOM      6  H51 UNL     1      27.135  44.049  38.843  1.00  0.00     0.174 HD
ATOM      7  H52 UNL     1      28.531  44.845  39.214  1.00  0.00     0.174 HD
HETATM    8  N6  UNL     1      25.897  44.608  41.172  1.00  0.00    -0.004 N 
HETATM    9  N9  UNL     1      25.783  45.136  42.389  1.00  0.00    -0.094 N 
ATOM     10  H9  UNL     1      24.960  45.055  42.987  1.00  0.00     0.208 HD
ENDROOT
BRANCH   1  11
HETATM   11  N3  UNL     1      27.224  46.438  43.783  1.00  0.00    -0.128 N 
ATOM     12  H3  UNL     1      27.518  47.410  43.678  1.00  0.00     0.205 HD
BRANCH  11  13
HETATM   13  N2  UNL     1      27.196  45.912  45.057  1.00  0.00    -0.266 N 
ATOM     14  H2  UNL     1      27.888  45.228  45.364  1.00  0.00     0.189 HD
BRANCH  13  15
HETATM   15  C2  UNL     1      26.154  46.364  45.935  1.00  0.00     0.194 C 
BRANCH  15  16
HETATM   16  N1  UNL     1      24.914  46.374  45.576  1.00  0.00    -0.246 N 
ATOM     17  H1  UNL     1      24.353  47.196  45.799  1.00  0.00     0.196 HD
BRANCH  16  18
HETATM   18  O1  UNL     1      24.316  45.342  44.912  1.00  0.00    -0.284 OA
HETATM   19  C1  UNL     1      24.281  44.082  45.549  1.00  0.00     0.237 C 
ENDBRANCH  16  18
ENDBRANCH  15  16
BRANCH  15  20
HETATM   20  C10 UNL     1      26.453  46.835  47.290  1.00  0.00     0.215 A 
HETATM   21  N10 UNL     1      27.219  46.197  48.214  1.00  0.00    -0.272 N 
HETATM   22  N11 UNL     1      27.241  46.949  49.303  1.00  0.00    -0.243 N 
ATOM     23  H10 UNL     1      27.691  45.301  48.090  1.00  0.00     0.189 HD
HETATM   24  C11 UNL     1      26.498  48.049  49.074  1.00  0.00     0.386 A 
ATOM     25  H11 UNL     1      27.737  46.732  50.169  1.00  0.00     0.192 HD
HETATM   26  O2  UNL     1      26.339  48.946  49.938  1.00  0.00    -0.236 OA
HETATM   27  O3  UNL     1      26.049  47.936  47.860  1.00  0.00    -0.237 OA
ENDBRANCH  15  20
ENDBRANCH  13  15
ENDBRANCH  11  13
ENDBRANCH   1  11
BRANCH   8  28
HETATM   28  N7  UNL     1      24.886  43.870  40.565  1.00  0.00    -0.254 N 
HETATM   29  C5  UNL     1      24.298  42.874  41.066  1.00  0.00     0.117 C 
HETATM   30  N8  UNL     1      24.670  42.435  42.359  1.00  0.00    -0.085 NA
ATOM     31  H7  UNL     1      24.595  44.161  39.632  1.00  0.00     0.190 HD
BRANCH  29  32
HETATM   32  C6  UNL     1      23.237  42.188  40.297  1.00  0.00     0.006 C 
HETATM   33  C7  UNL     1      22.321  41.382  41.192  1.00  0.00     0.022 C 
HETATM   34  C8  UNL     1      23.951  41.272  39.296  1.00  0.00     0.022 C 
HETATM   35  C9  UNL     1      22.484  43.214  39.495  1.00  0.00     0.022 C 
ENDBRANCH  29  32
ENDBRANCH   8  28
TORSDOF 8
ENDMDL
MODEL 4
REMARK VINA RESULT: -7.736949184      1.874      2.960
REMARK  8 active torsions:
REMARK  status: ('A' for Active; 'I' for Inactive)
REMARK    1  A    between atoms: O1_2  and  N1_3 
REMARK    2  A    between atoms: N1_3  and  C2_5 
REMARK    3  A    between atoms: C2_5  and  N2_6 
REMARK    4  A    between atoms: C2_5  and  C10_28 
REMARK    5  A    between atoms: N2_6  and  N3_8 
REMARK    6  A    between atoms: N3_8  and  C3_10 
REMARK    7  A    between atoms: N6_17  and  N7_18 
REMARK    8  A    between atoms: C5_20  and  C6_22 
ROOT
HETATM    1  C3  UNL     1      25.978  46.277  43.731  1.00  0.00     0.728 A 
HETATM    2  N4  UNL     1      27.136  45.943  43.133  1.00  0.00    -0.017 N 
ATOM      3  H4  UNL     1      28.041  46.384  43.298  1.00  0.00     0.203 HD
HETATM    4  C4  UNL     1      26.899  44.925  42.279  1.00  0.00     0.727 A 
HETATM    5  N5  UNL     1      27.767  44.336  41.526  1.00  0.00    -0.231 N 
ATOM      6  H51 UNL     1      27.588  43.567  40.880  1.00  0.00     0.174 HD
ATOM      7  H52 UNL     1      28.760  44.563  41.475  1.00  0.00     0.174 HD
HETATM    8  N6  UNL     1      25.588  44.626  42.347  1.00  0.00    -0.004 N 
HETATM    9  N9  UNL     1      25.042  45.455  43.233  1.00  0.00    -0.094 N 
ATOM     10  H9  UNL     1      24.056  45.465  43.496  1.00  0.00     0.208 HD
ENDROOT
BRANCH   1  11
HETATM   11  N3  UNL     1      25.888  47.222  44.605  1.00  0.00    -0.128 N 
ATOM     12  H3  UNL     1      26.500  48.031  44.492  1.00  0.00     0.205 HD
BRANCH  11  13
HETATM   13  N2  UNL     1      25.025  47.217  45.680  1.00  0.00    -0.266 N 
ATOM     14  H2  UNL     1      24.161  47.759  45.669  1.00  0.00     0.189 HD
BRANCH  13  15
HETATM   15  C2  UNL     1      25.390  46.420  46.816  1.00  0.00     0.194 C 
BRANCH  15  16
HETATM   16  N1  UNL     1      25.165  45.150  46.861  1.00  0.00    -0.246 N 
ATOM     17  H1  UNL     1      25.590  44.610  47.614  1.00  0.00     0.196 HD
BRANCH  16  18
HETATM   18  O1  UNL     1      24.388  44.492  45.951  1.00  0.00    -0.284 OA
HETATM   19  C1  UNL     1      24.608  43.108  45.776  1.00  0.00     0.237 C 
ENDBRANCH  16  18
ENDBRANCH  15  16
BRANCH  15  20
HETATM   20  C10 UNL     1      26.041  47.016  47.986  1.00  0.00     0.215 A 
HETATM   21  N10 UNL     1      27.235  46.644  48.520  1.00  0.00    -0.272 N 
HETATM   22  N11 UNL     1      27.468  47.426  49.563  1.00  0.00    -0.243 N 
ATOM     23  H10 UNL     1      27.841  45.898  48.179  1.00  0.00     0.189 HD
HETATM   24  C11 UNL     1      26.435  48.282  49.689  1.00  0.00     0.386 A 
ATOM     25  H11 UNL     1      28.290  47.387  50.166  1.00  0.00     0.192 HD
HETATM   26  O2  UNL     1      26.385  49.147  50.599  1.00  0.00    -0.236 OA
HETATM   27  O3  UNL     1      25.610  47.998  48.726  1.00  0.00    -0.237 OA
ENDBRANCH  15  20
ENDBRANCH  13  15
ENDBRANCH  11  13
ENDBRANCH   1  11
BRANCH   8  28
HETATM   28  N7  UNL     1      24.861  43.657  41.663  1.00  0.00    -0.254 N 
HETATM   29  C5  UNL     1      24.022  43.875  40.748  1.00  0.00     0.117 C 
HETATM   30  N8  UNL     1      23.768  45.209  40.351  1.00  0.00    -0.085 NA
ATOM     31  H7  UNL     1      25.020  42.685  41.926  1.00  0.00     0.190 HD
BRANCH  29  32
HETATM   32  C6  UNL     1      23.323  42.738  40.111  1.00  0.00     0.006 C 
HETATM   33  C7  UNL     1      22.018  43.161  39.472  1.00  0.00     0.022 C 
HETATM   34  C8  UNL     1      23.069  41.710  41.219  1.00  0.00     0.022 C 
HETATM   35  C9  UNL     1      24.254  42.094  39.119  1.00  0.00     0.022 C 
ENDBRANCH  29  32
ENDBRANCH   8  28
TORSDOF 8
ENDMDL
MODEL 5
REMARK VINA RESULT: -7.712604547      1.983      3.882
REMARK  8 active torsions:
REMARK  status: ('A' for Active; 'I' for Inactive)
REMARK    1  A    between atoms: O1_2  and  N1_3 
REMARK    2  A    between atoms: N1_3  and  C2_5 
REMARK    3  A    between atoms: C2_5  and  N2_6 
REMARK    4  A    between atoms: C2_5  and  C10_28 
REMARK    5  A    between atoms: N2_6  and  N3_8 
REMARK    6  A    between atoms: N3_8  and  C3_10 
REMARK    7  A    between atoms: N6_17  and  N7_18 
REMARK    8  A    between atoms: C5_20  and  C6_22 
ROOT
HETATM    1  C3  UNL     1      25.486  43.625  46.149  1.00  0.00     0.728 A 
HETATM    2  N4  UNL     1      24.486  42.728  46.067  1.00  0.00    -0.017 N 
ATOM      3  H4  UNL     1      23.975  42.332  46.856  1.00  0.00     0.203 HD
HETATM    4  C4  UNL     1      24.274  42.441  44.766  1.00  0.00     0.727 A 
HETATM    5  N5  UNL     1      23.395  41.622  44.294  1.00  0.00    -0.231 N 
ATOM      6  H51 UNL     1      23.234  41.405  43.310  1.00  0.00     0.174 HD
ATOM      7  H52 UNL     1      22.734  41.076  44.847  1.00  0.00     0.174 HD
HETATM    8  N6  UNL     1      25.145  43.162  44.036  1.00  0.00    -0.004 N 
HETATM    9  N9  UNL     1      25.875  43.877  44.890  1.00  0.00    -0.094 N 
ATOM     10  H9  UNL     1      26.620  44.522  44.626  1.00  0.00     0.208 HD
ENDROOT
BRANCH   1  11
HETATM   11  N3  UNL     1      25.916  44.094  47.271  1.00  0.00    -0.128 N 
ATOM     12  H3  UNL     1      25.242  44.559  47.880  1.00  0.00     0.205 HD
BRANCH  11  13
HETATM   13  N2  UNL     1      27.222  44.012  47.707  1.00  0.00    -0.266 N 
ATOM     14  H2  UNL     1      27.911  43.443  47.214  1.00  0.00     0.189 HD
BRANCH  13  15
HETATM   15  C2  UNL     1      27.574  44.758  48.881  1.00  0.00     0.194 C 
BRANCH  15  16
HETATM   16  N1  UNL     1      28.176  44.211  49.883  1.00  0.00    -0.246 N 
ATOM     17  H1  UNL     1      27.649  43.565  50.469  1.00  0.00     0.196 HD
BRANCH  16  18
HETATM   18  O1  UNL     1      29.482  44.454  50.199  1.00  0.00    -0.284 OA
HETATM   19  C1  UNL     1      30.439  43.483  49.832  1.00  0.00     0.237 C 
ENDBRANCH  16  18
ENDBRANCH  15  16
BRANCH  15  20
HETATM   20  C10 UNL     1      27.267  46.187  48.995  1.00  0.00     0.215 A 
HETATM   21  N10 UNL     1      27.709  47.030  49.964  1.00  0.00    -0.272 N 
HETATM   22  N11 UNL     1      27.210  48.230  49.709  1.00  0.00    -0.243 N 
ATOM     23  H10 UNL     1      28.316  46.784  50.746  1.00  0.00     0.189 HD
HETATM   24  C11 UNL     1      26.459  48.147  48.593  1.00  0.00     0.386 A 
ATOM     25  H11 UNL     1      27.367  49.072  50.263  1.00  0.00     0.192 HD
HETATM   26  O2  UNL     1      25.858  49.139  48.112  1.00  0.00    -0.236 OA
HETATM   27  O3  UNL     1      26.524  46.909  48.204  1.00  0.00    -0.237 OA
ENDBRANCH  15  20
ENDBRANCH  13  15
ENDBRANCH  11  13
ENDBRANCH   1  11
BRANCH   8  28
HETATM   28  N7  UNL     1      25.320  43.215  42.657  1.00  0.00    -0.254 N 
HETATM   29  C5  UNL     1      25.243  44.251  41.944  1.00  0.00     0.117 C 
HETATM   30  N8  UNL     1      24.955  45.491  42.561  1.00  0.00    -0.085 NA
ATOM     31  H7  UNL     1      25.529  42.337  42.181  1.00  0.00     0.190 HD
BRANCH  29  32
HETATM   32  C6  UNL     1      25.455  44.150  40.483  1.00  0.00     0.006 C 
HETATM   33  C7  UNL     1      26.740  44.822  40.050  1.00  0.00     0.022 C 
HETATM   34  C8  UNL     1      24.248  44.827  39.822  1.00  0.00     0.022 C 
HETATM   35  C9  UNL     1      25.416  42.699  40.090  1.00  0.00     0.022 C 
ENDBRANCH  29  32
ENDBRANCH   8  28
TORSDOF 8
ENDMDL
