MODEL 1
REMARK VINA RESULT: -7.600094721      0.000      0.000
REMARK  7 active torsions:
REMARK  status: ('A' for Active; 'I' for Inactive)
REMARK    1  A    between atoms: C4_6  and  N2_7 
REMARK    2  A    between atoms: C5_12  and  S1_13 
REMARK    3  A    between atoms: S1_13  and  C6_14 
REMARK    4  A    between atoms: C6_14  and  C7_15 
REMARK    5  A    between atoms: C8_18  and  N5_19 
REMARK    6  A    between atoms: C9_24  and  N7_25 
REMARK    7  A    between atoms: N7_25  and  N8_27 
ROOT
HETATM    1  C6  UNL     1      25.056  44.880  44.070  1.00  0.00     0.158 C 
ENDROOT
BRANCH   1   2
HETATM    2  S1  UNL     1      25.050  46.471  44.865  1.00  0.00    -0.103 SA
BRANCH   2   3
HETATM    3  C5  UNL     1      25.943  46.480  46.396  1.00  0.00     0.089 A 
HETATM    4  N3  UNL     1      25.990  47.574  47.165  1.00  0.00    -0.333 N 
HETATM    5  C4  UNL     1      26.666  47.498  48.337  1.00  0.00     0.146 A 
ATOM      6  H3  UNL     1      25.532  48.439  46.878  1.00  0.00     0.168 HD
HETATM    7  C3  UNL     1      27.307  46.363  48.780  1.00  0.00     0.172 A 
HETATM    8  N1  UNL     1      28.029  46.043  49.878  1.00  0.00    -0.327 N 
HETATM    9  N10 UNL     1      27.254  45.271  47.998  1.00  0.00    -0.244 N 
HETATM   10  C2  UNL     1      28.421  44.754  49.773  1.00  0.00     0.094 A 
ATOM     11  H1  UNL     1      28.242  46.669  50.655  1.00  0.00     0.169 HD
HETATM   12  C1  UNL     1      29.226  43.935  50.708  1.00  0.00     0.090 C 
HETATM   13  N11 UNL     1      27.935  44.297  48.612  1.00  0.00    -0.281 N 
ATOM     14  H11 UNL     1      28.064  43.352  48.251  1.00  0.00     0.189 HD
HETATM   15  C12 UNL     1      26.595  45.312  46.836  1.00  0.00     0.155 A 
BRANCH   5  16
HETATM   16  N2  UNL     1      26.693  48.557  49.047  1.00  0.00    -0.382 N 
ATOM     17  H22 UNL     1      27.540  49.123  48.987  1.00  0.00     0.157 HD
ATOM     18  H21 UNL     1      25.893  48.793  49.634  1.00  0.00     0.157 HD
ENDBRANCH   5  16
ENDBRANCH   2   3
ENDBRANCH   1   2
BRANCH   1  19
HETATM   19  C7  UNL     1      25.679  44.940  42.729  1.00  0.00     0.123 A 
HETATM   20  N4  UNL     1      26.937  45.206  42.436  1.00  0.00    -0.179 N 
HETATM   21  C8  UNL     1      27.430  45.243  41.192  1.00  0.00     0.691 A 
ATOM     22  H4  UNL     1      27.576  45.397  43.208  1.00  0.00     0.185 HD
HETATM   23  N6  UNL     1      26.579  44.989  40.183  1.00  0.00    -0.021 N 
HETATM   24  C9  UNL     1      25.292  44.712  40.410  1.00  0.00     0.712 A 
ATOM     25  H6  UNL     1      26.924  45.008  39.223  1.00  0.00     0.203 HD
HETATM   26  N9  UNL     1      24.847  44.688  41.668  1.00  0.00    -0.177 N 
ATOM     27  H9  UNL     1      23.865  44.476  41.845  1.00  0.00     0.185 HD
BRANCH  21  28
HETATM   28  N5  UNL     1      28.677  45.510  40.957  1.00  0.00    -0.234 N 
ATOM     29  H52 UNL     1      29.188  46.173  41.540  1.00  0.00     0.174 HD
ATOM     30  H51 UNL     1      29.186  45.072  40.190  1.00  0.00     0.174 HD
ENDBRANCH  21  28
BRANCH  24  31
HETATM   31  N7  UNL     1      24.428  44.461  39.483  1.00  0.00    -0.134 N 
ATOM     32  H7  UNL     1      24.350  45.148  38.733  1.00  0.00     0.205 HD
BRANCH  31  33
HETATM   33  N8  UNL     1      23.606  43.367  39.402  1.00  0.00    -0.322 N 
HETATM   34  C10 UNL     1      22.145  43.538  39.343  1.00  0.00     0.171 C 
HETATM   35  C11 UNL     1      24.069  41.991  39.365  1.00  0.00     0.171 C 
ENDBRANCH  31  33
ENDBRANCH  24  31
ENDBRANCH   1  19
TORSDOF 7
ENDMDL
MODEL 2
REMARK VINA RESULT: -7.535000133      1.154      3.085
REMARK  7 active torsions:
REMARK  status: ('A' for Active; 'I' for Inactive)
REMARK    1  A    between atoms: C4_6  and  N2_7 
REMARK    2  A    between atoms: C5_12  and  S1_13 
REMARK    3  A    between atoms: S1_13  and  C6_14 
REMARK    4  A    between atoms: C6_14  and  C7_15 
REMARK    5  A    between atoms: C8_18  and  N5_19 
REMARK    6  A    between atoms: C9_24  and  N7_25 
REMARK    7  A    between atoms: N7_25  and  N8_27 
ROOT
HETATM    1  C6  UNL     1      25.423  44.281  43.702  1.00  0.00     0.158 C 
ENDROOT
BRANCH   1   2
HETATM    2  S1  UNL     1      24.902  45.749  44.562  1.00  0.00    -0.103 SA
BRANCH   2   3
HETATM    3  C5  UNL     1      25.784  46.009  46.078  1.00  0.00     0.089 A 
HETATM    4  N3  UNL     1      25.779  47.200  46.687  1.00  0.00    -0.333 N 
HETATM    5  C4  UNL     1      26.449  47.317  47.859  1.00  0.00     0.146 A 
ATOM      6  H3  UNL     1      25.286  47.996  46.282  1.00  0.00     0.168 HD
HETATM    7  C3  UNL     1      27.135  46.283  48.456  1.00  0.00     0.172 A 
HETATM    8  N1  UNL     1      27.863  46.150  49.588  1.00  0.00    -0.327 N 
HETATM    9  N10 UNL     1      27.134  45.092  47.833  1.00  0.00    -0.244 N 
HETATM   10  C2  UNL     1      28.310  44.878  49.664  1.00  0.00     0.094 A 
ATOM     11  H1  UNL     1      28.043  46.886  50.270  1.00  0.00     0.169 HD
HETATM   12  C1  UNL     1      29.142  44.232  50.704  1.00  0.00     0.090 C 
HETATM   13  N11 UNL     1      27.852  44.243  48.577  1.00  0.00    -0.281 N 
ATOM     14  H11 UNL     1      28.023  43.263  48.352  1.00  0.00     0.189 HD
HETATM   15  C12 UNL     1      26.481  44.942  46.676  1.00  0.00     0.155 A 
BRANCH   5  16
HETATM   16  N2  UNL     1      26.426  48.465  48.415  1.00  0.00    -0.382 N 
ATOM     17  H22 UNL     1      26.651  48.492  49.409  1.00  0.00     0.157 HD
ATOM     18  H21 UNL     1      26.188  49.288  47.863  1.00  0.00     0.157 HD
ENDBRANCH   5  16
ENDBRANCH   2   3
ENDBRANCH   1   2
BRANCH   1  19
HETATM   19  C7  UNL     1      25.612  44.530  42.256  1.00  0.00     0.123 A 
HETATM   20  N4  UNL     1      24.680  44.742  41.347  1.00  0.00    -0.179 N 
HETATM   21  C8  UNL     1      24.929  44.961  40.049  1.00  0.00     0.691 A 
ATOM     22  H4  UNL     1      23.707  44.739  41.652  1.00  0.00     0.185 HD
HETATM   23  N6  UNL     1      26.215  44.964  39.659  1.00  0.00    -0.021 N 
HETATM   24  C9  UNL     1      27.207  44.756  40.529  1.00  0.00     0.712 A 
ATOM     25  H6  UNL     1      26.438  45.129  38.678  1.00  0.00     0.203 HD
HETATM   26  N9  UNL     1      26.909  44.542  41.812  1.00  0.00    -0.177 N 
ATOM     27  H9  UNL     1      27.665  44.383  42.479  1.00  0.00     0.185 HD
BRANCH  21  28
HETATM   28  N5  UNL     1      23.975  45.165  39.194  1.00  0.00    -0.234 N 
ATOM     29  H52 UNL     1      23.084  44.677  39.281  1.00  0.00     0.174 HD
ATOM     30  H51 UNL     1      24.081  45.813  38.414  1.00  0.00     0.174 HD
ENDBRANCH  21  28
BRANCH  24  31
HETATM   31  N7  UNL     1      28.460  44.746  40.214  1.00  0.00    -0.134 N 
ATOM     32  H7  UNL     1      28.941  43.849  40.279  1.00  0.00     0.205 HD
BRANCH  31  33
HETATM   33  N8  UNL     1      29.210  45.817  39.800  1.00  0.00    -0.322 N 
HETATM   34  C10 UNL     1      30.103  45.692  38.636  1.00  0.00     0.171 C 
HETATM   35  C11 UNL     1      29.200  47.122  40.435  1.00  0.00     0.171 C 
ENDBRANCH  31  33
ENDBRANCH  24  31
ENDBRANCH   1  19
TORSDOF 7
ENDMDL
MODEL 3
REMARK VINA RESULT: -7.354088705      1.660      2.387
REMARK  7 active torsions:
REMARK  status: ('A' for Active; 'I' for Inactive)
REMARK    1  A    between atoms: C4_6  and  N2_7 
REMARK    2  A    between atoms: C5_12  and  S1_13 
REMARK    3  A    between atoms: S1_13  and  C6_14 
REMARK    4  A    between atoms: C6_14  and  C7_15 
REMARK    5  A    between atoms: C8_18  and  N5_19 
REMARK    6  A    between atoms: C9_24  and  N7_25 
REMARK    7  A    between atoms: N7_25  and  N8_27 
ROOT
HETATM    1  C6  UNL     1      25.815  45.589  43.541  1.00  0.00     0.158 C 
ENDROOT
BRANCH   1   2
HETATM    2  S1  UNL     1      24.980  46.476  44.837  1.00  0.00    -0.103 SA
BRANCH   2   3
HETATM    3  C5  UNL     1      25.882  46.481  46.362  1.00  0.00     0.089 A 
HETATM    4  N3  UNL     1      25.944  47.577  47.127  1.00  0.00    -0.333 N 
HETATM    5  C4  UNL     1      26.626  47.497  48.296  1.00  0.00     0.146 A 
ATOM      6  H3  UNL     1      25.493  48.445  46.841  1.00  0.00     0.168 HD
HETATM    7  C3  UNL     1      27.260  46.358  48.738  1.00  0.00     0.172 A 
HETATM    8  N1  UNL     1      27.986  46.033  49.832  1.00  0.00    -0.327 N 
HETATM    9  N10 UNL     1      27.191  45.264  47.959  1.00  0.00    -0.244 N 
HETATM   10  C2  UNL     1      28.365  44.741  49.729  1.00  0.00     0.094 A 
ATOM     11  H1  UNL     1      28.209  46.660  50.606  1.00  0.00     0.169 HD
HETATM   12  C1  UNL     1      29.167  43.917  50.661  1.00  0.00     0.090 C 
HETATM   13  N11 UNL     1      27.867  44.285  48.572  1.00  0.00    -0.281 N 
ATOM     14  H11 UNL     1      27.985  43.338  48.213  1.00  0.00     0.189 HD
HETATM   15  C12 UNL     1      26.525  45.308  46.802  1.00  0.00     0.155 A 
BRANCH   5  16
HETATM   16  N2  UNL     1      26.668  48.558  49.002  1.00  0.00    -0.382 N 
ATOM     17  H22 UNL     1      27.587  48.841  49.343  1.00  0.00     0.157 HD
ATOM     18  H21 UNL     1      25.807  49.069  49.198  1.00  0.00     0.157 HD
ENDBRANCH   5  16
ENDBRANCH   2   3
ENDBRANCH   1   2
BRANCH   1  19
HETATM   19  C7  UNL     1      25.257  44.231  43.357  1.00  0.00     0.123 A 
HETATM   20  N4  UNL     1      25.085  43.300  44.276  1.00  0.00    -0.179 N 
HETATM   21  C8  UNL     1      24.571  42.087  44.034  1.00  0.00     0.691 A 
ATOM     22  H4  UNL     1      25.361  43.518  45.233  1.00  0.00     0.185 HD
HETATM   23  N6  UNL     1      24.209  41.812  42.769  1.00  0.00    -0.021 N 
HETATM   24  C9  UNL     1      24.357  42.710  41.791  1.00  0.00     0.712 A 
ATOM     25  H6  UNL     1      23.813  40.898  42.552  1.00  0.00     0.203 HD
HETATM   26  N9  UNL     1      24.875  43.905  42.081  1.00  0.00    -0.177 N 
ATOM     27  H9  UNL     1      24.988  44.593  41.337  1.00  0.00     0.185 HD
BRANCH  21  28
HETATM   28  N5  UNL     1      24.422  41.206  44.974  1.00  0.00    -0.234 N 
ATOM     29  H52 UNL     1      24.567  41.457  45.952  1.00  0.00     0.174 HD
ATOM     30  H51 UNL     1      24.159  40.242  44.771  1.00  0.00     0.174 HD
ENDBRANCH  21  28
BRANCH  24  31
HETATM   31  N7  UNL     1      24.029  42.502  40.558  1.00  0.00    -0.134 N 
ATOM     32  H7  UNL     1      24.694  41.976  39.991  1.00  0.00     0.205 HD
BRANCH  31  33
HETATM   33  N8  UNL     1      22.881  42.916  39.934  1.00  0.00    -0.322 N 
HETATM   34  C10 UNL     1      21.613  42.204  40.162  1.00  0.00     0.171 C 
HETATM   35  C11 UNL     1      22.800  44.049  39.028  1.00  0.00     0.171 C 
ENDBRANCH  31  33
ENDBRANCH  24  31
ENDBRANCH   1  19
TORSDOF 7
ENDMDL
MODEL 4
REMARK VINA RESULT: -7.327967666      1.415      8.608
REMARK  7 active torsions:
REMARK  status: ('A' for Active; 'I' for Inactive)
REMARK    1  A    between atoms: C4_6  and  N2_7 
REMARK    2  A    between atoms: C5_12  and  S1_13 
REMARK    3  A    between atoms: S1_13  and  C6_14 
REMARK    4  A    between atoms: C6_14  and  C7_15 
REMARK    5  A    between atoms: C8_18  and  N5_19 
REMARK    6  A    between atoms: C9_24  and  N7_25 
REMARK    7  A    between atoms: N7_25  and  N8_27 
ROOT
HETATM    1  C6  UNL     1      25.674  44.785  45.817  1.00  0.00     0.158 C 
ENDROOT
BRANCH   1   2
HETATM    2  S1  UNL     1      25.053  45.833  44.521  1.00  0.00    -0.103 SA
BRANCH   2   3
HETATM    3  C5  UNL     1      25.743  45.449  42.934  1.00  0.00     0.089 A 
HETATM    4  N3  UNL     1      25.001  44.887  41.973  1.00  0.00    -0.333 N 
HETATM    5  C4  UNL     1      25.587  44.651  40.774  1.00  0.00     0.146 A 
ATOM      6  H3  UNL     1      24.025  44.643  42.138  1.00  0.00     0.168 HD
HETATM    7  C3  UNL     1      26.900  44.954  40.490  1.00  0.00     0.172 A 
HETATM    8  N1  UNL     1      27.696  44.819  39.404  1.00  0.00    -0.327 N 
HETATM    9  N10 UNL     1      27.635  45.517  41.464  1.00  0.00    -0.244 N 
HETATM   10  C2  UNL     1      28.921  45.300  39.709  1.00  0.00     0.094 A 
ATOM     11  H1  UNL     1      27.418  44.423  38.507  1.00  0.00     0.169 HD
HETATM   12  C1  UNL     1      30.137  45.380  38.869  1.00  0.00     0.090 C 
HETATM   13  N11 UNL     1      28.864  45.724  40.978  1.00  0.00    -0.281 N 
ATOM     14  H11 UNL     1      29.639  46.141  41.494  1.00  0.00     0.189 HD
HETATM   15  C12 UNL     1      27.087  45.765  42.657  1.00  0.00     0.155 A 
BRANCH   5  16
HETATM   16  N2  UNL     1      24.854  44.113  39.880  1.00  0.00    -0.382 N 
ATOM     17  H22 UNL     1      24.458  43.201  40.105  1.00  0.00     0.157 HD
ATOM     18  H21 UNL     1      24.697  44.598  38.996  1.00  0.00     0.157 HD
ENDBRANCH   5  16
ENDBRANCH   2   3
ENDBRANCH   1   2
BRANCH   1  19
HETATM   19  C7  UNL     1      26.172  45.571  46.967  1.00  0.00     0.123 A 
HETATM   20  N4  UNL     1      26.064  46.871  47.161  1.00  0.00    -0.179 N 
HETATM   21  C8  UNL     1      26.542  47.515  48.233  1.00  0.00     0.691 A 
ATOM     22  H4  UNL     1      25.584  47.421  46.449  1.00  0.00     0.185 HD
HETATM   23  N6  UNL     1      27.171  46.780  49.166  1.00  0.00    -0.021 N 
HETATM   24  C9  UNL     1      27.315  45.459  49.031  1.00  0.00     0.712 A 
ATOM     25  H6  UNL     1      27.545  47.241  49.995  1.00  0.00     0.203 HD
HETATM   26  N9  UNL     1      26.821  44.861  47.945  1.00  0.00    -0.177 N 
ATOM     27  H9  UNL     1      26.929  43.852  47.839  1.00  0.00     0.185 HD
BRANCH  21  28
HETATM   28  N5  UNL     1      26.409  48.798  48.376  1.00  0.00    -0.234 N 
ATOM     29  H52 UNL     1      26.285  49.403  47.566  1.00  0.00     0.174 HD
ATOM     30  H51 UNL     1      26.423  49.241  49.295  1.00  0.00     0.174 HD
ENDBRANCH  21  28
BRANCH  24  31
HETATM   31  N7  UNL     1      27.909  44.701  49.892  1.00  0.00    -0.134 N 
ATOM     32  H7  UNL     1      27.324  44.033  50.393  1.00  0.00     0.205 HD
BRANCH  31  33
HETATM   33  N8  UNL     1      29.245  44.701  50.202  1.00  0.00    -0.322 N 
HETATM   34  C10 UNL     1      30.055  43.489  49.998  1.00  0.00     0.171 C 
HETATM   35  C11 UNL     1      29.965  45.844  50.734  1.00  0.00     0.171 C 
ENDBRANCH  31  33
ENDBRANCH  24  31
ENDBRANCH   1  19
TORSDOF 7
ENDMDL
MODEL 5
REMARK VINA RESULT: -7.218666675      1.904      2.677
REMARK  7 active torsions:
REMARK  status: ('A' for Active; 'I' for Inactive)
REMARK    1  A    between atoms: C4_6  and  N2_7 
REMARK    2  A    between atoms: C5_12  and  S1_13 
REMARK    3  A    between atoms: S1_13  and  C6_14 
REMARK    4  A    between atoms: C6_14  and  C7_15 
REMARK    5  A    between atoms: C8_18  and  N5_19 
REMARK    6  A    between atoms: C9_24  and  N7_25 
REMARK    7  A    between atoms: N7_25  and  N8_27 
ROOT
HETATM    1  C6  UNL     1      26.002  44.968  43.228  1.00  0.00     0.158 C 
ENDROOT
BRANCH   1   2
HETATM    2  S1  UNL     1      24.977  45.736  44.463  1.00  0.00    -0.103 SA
BRANCH   2   3
HETATM    3  C5  UNL     1      25.823  45.993  45.999  1.00  0.00     0.089 A 
HETATM    4  N3  UNL     1      25.803  47.182  46.611  1.00  0.00    -0.333 N 
HETATM    5  C4  UNL     1      26.446  47.296  47.799  1.00  0.00     0.146 A 
ATOM      6  H3  UNL     1      25.319  47.979  46.198  1.00  0.00     0.168 HD
HETATM    7  C3  UNL     1      27.119  46.261  48.409  1.00  0.00     0.172 A 
HETATM    8  N1  UNL     1      27.820  46.125  49.557  1.00  0.00    -0.327 N 
HETATM    9  N10 UNL     1      27.133  45.071  47.782  1.00  0.00    -0.244 N 
HETATM   10  C2  UNL     1      28.267  44.853  49.640  1.00  0.00     0.094 A 
ATOM     11  H1  UNL     1      27.984  46.859  50.245  1.00  0.00     0.169 HD
HETATM   12  C1  UNL     1      29.075  44.204  50.697  1.00  0.00     0.090 C 
HETATM   13  N11 UNL     1      27.834  44.221  48.541  1.00  0.00    -0.281 N 
ATOM     14  H11 UNL     1      28.012  43.242  48.316  1.00  0.00     0.189 HD
HETATM   15  C12 UNL     1      26.507  44.925  46.611  1.00  0.00     0.155 A 
BRANCH   5  16
HETATM   16  N2  UNL     1      26.409  48.442  48.357  1.00  0.00    -0.382 N 
ATOM     17  H22 UNL     1      26.186  48.455  49.353  1.00  0.00     0.157 HD
ATOM     18  H21 UNL     1      26.595  49.279  47.805  1.00  0.00     0.157 HD
ENDBRANCH   5  16
ENDBRANCH   2   3
ENDBRANCH   1   2
BRANCH   1  19
HETATM   19  C7  UNL     1      25.196  44.371  42.140  1.00  0.00     0.123 A 
HETATM   20  N4  UNL     1      24.678  44.984  41.093  1.00  0.00    -0.179 N 
HETATM   21  C8  UNL     1      23.955  44.374  40.145  1.00  0.00     0.691 A 
ATOM     22  H4  UNL     1      24.838  45.986  41.000  1.00  0.00     0.185 HD
HETATM   23  N6  UNL     1      23.752  43.052  40.278  1.00  0.00    -0.021 N 
HETATM   24  C9  UNL     1      24.249  42.372  41.315  1.00  0.00     0.712 A 
ATOM     25  H6  UNL     1      23.207  42.558  39.572  1.00  0.00     0.203 HD
HETATM   26  N9  UNL     1      24.962  43.024  42.235  1.00  0.00    -0.177 N 
ATOM     27  H9  UNL     1      25.344  42.507  43.028  1.00  0.00     0.185 HD
BRANCH  21  28
HETATM   28  N5  UNL     1      23.468  45.022  39.133  1.00  0.00    -0.234 N 
ATOM     29  H52 UNL     1      23.798  45.960  38.906  1.00  0.00     0.174 HD
ATOM     30  H51 UNL     1      22.744  44.622  38.536  1.00  0.00     0.174 HD
ENDBRANCH  21  28
BRANCH  24  31
HETATM   31  N7  UNL     1      24.086  41.103  41.497  1.00  0.00    -0.134 N 
ATOM     32  H7  UNL     1      24.273  40.499  40.696  1.00  0.00     0.205 HD
BRANCH  31  33
HETATM   33  N8  UNL     1      23.688  40.484  42.654  1.00  0.00    -0.322 N 
HETATM   34  C10 UNL     1      24.438  39.329  43.174  1.00  0.00     0.171 C 
HETATM   35  C11 UNL     1      22.543  40.887  43.450  1.00  0.00     0.171 C 
ENDBRANCH  31  33
ENDBRANCH  24  31
ENDBRANCH   1  19
TORSDOF 7
ENDMDL
