MODEL 1
REMARK VINA RESULT: -7.732669675      0.000      0.000
REMARK  6 active torsions:
REMARK  status: ('A' for Active; 'I' for Inactive)
REMARK       I    between atoms: C1_2  and  N1_3 
REMARK    1  A    between atoms: C1_2  and  C8_19 
REMARK    2  A    between atoms: N1_3  and  N2_5 
REMARK    3  A    between atoms: C2_7  and  C3_8 
REMARK    4  A    between atoms: C4_9  and  O2_10 
REMARK    5  A    between atoms: C7_16  and  O5_17 
REMARK    6  A    between atoms: C11_28  and  N5_29 
ROOT
HETATM    1  O1  UNL     1      24.983  43.423  46.553  1.00  0.00    -0.264 OA
HETATM    2  C1  UNL     1      26.033  44.104  46.351  1.00  0.00     0.289 C 
HETATM    3  N1  UNL     1      26.650  43.937  45.084  1.00  0.00    -0.265 N 
ATOM      4  H1  UNL     1      27.499  44.451  44.848  1.00  0.00     0.190 HD
ENDROOT
BRANCH   3   5
HETATM    5  N2  UNL     1      26.074  43.058  44.168  1.00  0.00    -0.308 N 
HETATM    6  C2  UNL     1      25.266  43.446  43.260  1.00  0.00     0.126 C 
ATOM      7  H2  UNL     1      26.309  42.067  44.226  1.00  0.00     0.186 HD
BRANCH   6   8
HETATM    8  C3  UNL     1      24.680  42.514  42.317  1.00  0.00     0.072 A 
HETATM    9  C4  UNL     1      24.899  42.472  40.962  1.00  0.00     0.087 A 
HETATM   10  C5  UNL     1      24.242  41.491  40.180  1.00  0.00     0.120 A 
HETATM   11  C6  UNL     1      23.411  40.616  40.787  1.00  0.00     0.292 A 
HETATM   12  O3  UNL     1      22.805  39.720  40.098  1.00  0.00    -0.260 OA
HETATM   13  O4  UNL     1      23.202  40.657  42.087  1.00  0.00    -0.251 OA
HETATM   14  C7  UNL     1      23.795  41.552  42.836  1.00  0.00     0.201 A 
BRANCH   9  15
HETATM   15  O2  UNL     1      25.726  43.341  40.342  1.00  0.00    -0.359 OA
ATOM     16  H2  UNL     1      26.459  43.050  39.812  1.00  0.00     0.217 HD
ENDBRANCH   9  15
BRANCH  14  17
HETATM   17  O5  UNL     1      23.571  41.594  44.219  1.00  0.00    -0.340 OA
ATOM     18  H5  UNL     1      23.514  40.757  44.663  1.00  0.00     0.220 HD
ENDBRANCH  14  17
ENDBRANCH   6   8
ENDBRANCH   3   5
BRANCH   2  19
HETATM   19  C8  UNL     1      26.572  45.000  47.352  1.00  0.00     0.145 A 
HETATM   20  N3  UNL     1      27.173  44.526  48.444  1.00  0.00    -0.302 N 
HETATM   21  C9  UNL     1      27.686  45.385  49.376  1.00  0.00     0.327 A 
ATOM     22  H3  UNL     1      27.250  43.519  48.584  1.00  0.00     0.171 HD
HETATM   23  O6  UNL     1      28.240  44.887  50.384  1.00  0.00    -0.247 OA
HETATM   24  N4  UNL     1      27.597  46.711  49.214  1.00  0.00    -0.273 N 
HETATM   25  C10 UNL     1      27.005  47.242  48.140  1.00  0.00     0.285 A 
ATOM     26  H4  UNL     1      27.989  47.329  49.924  1.00  0.00     0.173 HD
HETATM   27  O7  UNL     1      26.930  48.490  48.004  1.00  0.00    -0.265 OA
HETATM   28  C11 UNL     1      26.481  46.355  47.190  1.00  0.00     0.203 A 
BRANCH  28  29
HETATM   29  N5  UNL     1      25.857  46.943  46.067  1.00  0.00    -0.107 N 
HETATM   30  O8  UNL     1      24.630  47.220  46.168  1.00  0.00    -0.531 OA
HETATM   31  O9  UNL     1      26.594  47.206  44.955  1.00  0.00    -0.531 OA
ENDBRANCH  28  29
ENDBRANCH   2  19
TORSDOF 6
ENDMDL
MODEL 2
REMARK VINA RESULT: -7.715927306      2.194      8.147
REMARK  6 active torsions:
REMARK  status: ('A' for Active; 'I' for Inactive)
REMARK       I    between atoms: C1_2  and  N1_3 
REMARK    1  A    between atoms: C1_2  and  C8_19 
REMARK    2  A    between atoms: N1_3  and  N2_5 
REMARK    3  A    between atoms: C2_7  and  C3_8 
REMARK    4  A    between atoms: C4_9  and  O2_10 
REMARK    5  A    between atoms: C7_16  and  O5_17 
REMARK    6  A    between atoms: C11_28  and  N5_29 
ROOT
HETATM    1  O1  UNL     1      26.514  42.894  43.051  1.00  0.00    -0.264 OA
HETATM    2  C1  UNL     1      25.331  43.188  42.704  1.00  0.00     0.289 C 
HETATM    3  N1  UNL     1      24.687  44.190  43.475  1.00  0.00    -0.265 N 
ATOM      4  H1  UNL     1      23.734  44.480  43.257  1.00  0.00     0.190 HD
ENDROOT
BRANCH   3   5
HETATM    5  N2  UNL     1      25.381  44.771  44.535  1.00  0.00    -0.308 N 
HETATM    6  C2  UNL     1      25.011  44.641  45.749  1.00  0.00     0.126 C 
ATOM      7  H2  UNL     1      26.216  45.321  44.332  1.00  0.00     0.186 HD
BRANCH   6   8
HETATM    8  C3  UNL     1      25.749  45.254  46.836  1.00  0.00     0.072 A 
HETATM    9  C4  UNL     1      26.587  44.618  47.719  1.00  0.00     0.087 A 
HETATM   10  C5  UNL     1      27.234  45.371  48.731  1.00  0.00     0.120 A 
HETATM   11  C6  UNL     1      27.010  46.700  48.804  1.00  0.00     0.292 A 
HETATM   12  O3  UNL     1      27.586  47.400  49.712  1.00  0.00    -0.260 OA
HETATM   13  O4  UNL     1      26.206  47.309  47.956  1.00  0.00    -0.251 OA
HETATM   14  C7  UNL     1      25.594  46.641  47.011  1.00  0.00     0.201 A 
BRANCH   9  15
HETATM   15  O2  UNL     1      26.820  43.290  47.657  1.00  0.00    -0.359 OA
ATOM     16  H2  UNL     1      26.170  42.650  47.925  1.00  0.00     0.217 HD
ENDBRANCH   9  15
BRANCH  14  17
HETATM   17  O5  UNL     1      24.739  47.290  46.111  1.00  0.00    -0.340 OA
ATOM     18  H5  UNL     1      24.455  48.163  46.353  1.00  0.00     0.220 HD
ENDBRANCH  14  17
ENDBRANCH   6   8
ENDBRANCH   3   5
BRANCH   2  19
HETATM   19  C8  UNL     1      24.674  42.542  41.588  1.00  0.00     0.145 A 
HETATM   20  N3  UNL     1      24.346  41.251  41.640  1.00  0.00    -0.302 N 
HETATM   21  C9  UNL     1      23.717  40.657  40.581  1.00  0.00     0.327 A 
ATOM     22  H3  UNL     1      24.564  40.705  42.473  1.00  0.00     0.171 HD
HETATM   23  O6  UNL     1      23.430  39.440  40.681  1.00  0.00    -0.247 OA
HETATM   24  N4  UNL     1      23.419  41.353  39.477  1.00  0.00    -0.273 N 
HETATM   25  C10 UNL     1      23.726  42.649  39.369  1.00  0.00     0.285 A 
ATOM     26  H4  UNL     1      22.949  40.885  38.702  1.00  0.00     0.173 HD
HETATM   27  O7  UNL     1      23.439  43.288  38.324  1.00  0.00    -0.265 OA
HETATM   28  C11 UNL     1      24.371  43.250  40.458  1.00  0.00     0.203 A 
BRANCH  28  29
HETATM   29  N5  UNL     1      24.687  44.620  40.315  1.00  0.00    -0.107 N 
HETATM   30  O8  UNL     1      23.829  45.454  40.716  1.00  0.00    -0.531 OA
HETATM   31  O9  UNL     1      25.889  44.976  39.788  1.00  0.00    -0.531 OA
ENDBRANCH  28  29
ENDBRANCH   2  19
TORSDOF 6
ENDMDL
MODEL 3
REMARK VINA RESULT: -7.644753097      2.183      8.093
REMARK  6 active torsions:
REMARK  status: ('A' for Active; 'I' for Inactive)
REMARK       I    between atoms: C1_2  and  N1_3 
REMARK    1  A    between atoms: C1_2  and  C8_19 
REMARK    2  A    between atoms: N1_3  and  N2_5 
REMARK    3  A    between atoms: C2_7  and  C3_8 
REMARK    4  A    between atoms: C4_9  and  O2_10 
REMARK    5  A    between atoms: C7_16  and  O5_17 
REMARK    6  A    between atoms: C11_28  and  N5_29 
ROOT
HETATM    1  O1  UNL     1      26.639  42.950  42.971  1.00  0.00    -0.264 OA
HETATM    2  C1  UNL     1      25.417  43.162  42.706  1.00  0.00     0.289 C 
HETATM    3  N1  UNL     1      24.745  44.078  43.554  1.00  0.00    -0.265 N 
ATOM      4  H1  UNL     1      23.761  44.298  43.404  1.00  0.00     0.190 HD
ENDROOT
BRANCH   3   5
HETATM    5  N2  UNL     1      25.454  44.671  44.598  1.00  0.00    -0.308 N 
HETATM    6  C2  UNL     1      24.957  44.830  45.762  1.00  0.00     0.126 C 
ATOM      7  H2  UNL     1      26.407  44.991  44.423  1.00  0.00     0.186 HD
BRANCH   6   8
HETATM    8  C3  UNL     1      25.714  45.449  46.832  1.00  0.00     0.072 A 
HETATM    9  C4  UNL     1      25.619  46.752  47.254  1.00  0.00     0.087 A 
HETATM   10  C5  UNL     1      26.438  47.201  48.321  1.00  0.00     0.120 A 
HETATM   11  C6  UNL     1      27.296  46.333  48.898  1.00  0.00     0.292 A 
HETATM   12  O3  UNL     1      28.047  46.717  49.865  1.00  0.00    -0.260 OA
HETATM   13  O4  UNL     1      27.385  45.082  48.492  1.00  0.00    -0.251 OA
HETATM   14  C7  UNL     1      26.642  44.639  47.509  1.00  0.00     0.201 A 
BRANCH   9  15
HETATM   15  O2  UNL     1      24.766  47.631  46.685  1.00  0.00    -0.359 OA
ATOM     16  H2  UNL     1      24.931  48.566  46.684  1.00  0.00     0.217 HD
ENDBRANCH   9  15
BRANCH  14  17
HETATM   17  O5  UNL     1      26.739  43.310  47.078  1.00  0.00    -0.340 OA
ATOM     18  H5  UNL     1      26.112  42.699  47.447  1.00  0.00     0.220 HD
ENDBRANCH  14  17
ENDBRANCH   6   8
ENDBRANCH   3   5
BRANCH   2  19
HETATM   19  C8  UNL     1      24.747  42.508  41.601  1.00  0.00     0.145 A 
HETATM   20  N3  UNL     1      24.434  41.214  41.659  1.00  0.00    -0.302 N 
HETATM   21  C9  UNL     1      23.793  40.612  40.612  1.00  0.00     0.327 A 
ATOM     22  H3  UNL     1      24.675  40.669  42.487  1.00  0.00     0.171 HD
HETATM   23  O6  UNL     1      23.522  39.393  40.717  1.00  0.00    -0.247 OA
HETATM   24  N4  UNL     1      23.465  41.305  39.514  1.00  0.00    -0.273 N 
HETATM   25  C10 UNL     1      23.755  42.605  39.402  1.00  0.00     0.285 A 
ATOM     26  H4  UNL     1      22.986  40.833  38.748  1.00  0.00     0.173 HD
HETATM   27  O7  UNL     1      23.441  43.241  38.362  1.00  0.00    -0.265 OA
HETATM   28  C11 UNL     1      24.414  43.213  40.478  1.00  0.00     0.203 A 
BRANCH  28  29
HETATM   29  N5  UNL     1      24.711  44.587  40.330  1.00  0.00    -0.107 N 
HETATM   30  O8  UNL     1      23.852  45.411  40.749  1.00  0.00    -0.531 OA
HETATM   31  O9  UNL     1      25.898  44.957  39.779  1.00  0.00    -0.531 OA
ENDBRANCH  28  29
ENDBRANCH   2  19
TORSDOF 6
ENDMDL
MODEL 4
REMARK VINA RESULT: -7.626301738      2.261      8.307
REMARK  6 active torsions:
REMARK  status: ('A' for Active; 'I' for Inactive)
REMARK       I    between atoms: C1_2  and  N1_3 
REMARK    1  A    between atoms: C1_2  and  C8_19 
REMARK    2  A    between atoms: N1_3  and  N2_5 
REMARK    3  A    between atoms: C2_7  and  C3_8 
REMARK    4  A    between atoms: C4_9  and  O2_10 
REMARK    5  A    between atoms: C7_16  and  O5_17 
REMARK    6  A    between atoms: C11_28  and  N5_29 
ROOT
HETATM    1  O1  UNL     1      24.910  46.198  43.067  1.00  0.00    -0.264 OA
HETATM    2  C1  UNL     1      25.413  45.039  42.961  1.00  0.00     0.289 C 
HETATM    3  N1  UNL     1      26.235  44.616  44.036  1.00  0.00    -0.265 N 
ATOM      4  H1  UNL     1      26.675  43.696  44.022  1.00  0.00     0.190 HD
ENDROOT
BRANCH   3   5
HETATM    5  N2  UNL     1      26.429  45.479  45.114  1.00  0.00    -0.308 N 
HETATM    6  C2  UNL     1      25.957  45.244  46.275  1.00  0.00     0.126 C 
ATOM      7  H2  UNL     1      26.970  46.332  44.967  1.00  0.00     0.186 HD
BRANCH   6   8
HETATM    8  C3  UNL     1      26.172  46.157  47.381  1.00  0.00     0.072 A 
HETATM    9  C4  UNL     1      27.001  45.957  48.457  1.00  0.00     0.087 A 
HETATM   10  C5  UNL     1      27.095  46.957  49.458  1.00  0.00     0.120 A 
HETATM   11  C6  UNL     1      26.366  48.086  49.328  1.00  0.00     0.292 A 
HETATM   12  O3  UNL     1      26.436  49.004  50.222  1.00  0.00    -0.260 OA
HETATM   13  O4  UNL     1      25.571  48.275  48.294  1.00  0.00    -0.251 OA
HETATM   14  C7  UNL     1      25.463  47.370  47.354  1.00  0.00     0.201 A 
BRANCH   9  15
HETATM   15  O2  UNL     1      27.735  44.834  48.600  1.00  0.00    -0.359 OA
ATOM     16  H2  UNL     1      27.506  44.156  49.225  1.00  0.00     0.217 HD
ENDBRANCH   9  15
BRANCH  14  17
HETATM   17  O5  UNL     1      24.618  47.574  46.256  1.00  0.00    -0.340 OA
ATOM     18  H5  UNL     1      23.732  47.240  46.336  1.00  0.00     0.220 HD
ENDBRANCH  14  17
ENDBRANCH   6   8
ENDBRANCH   3   5
BRANCH   2  19
HETATM   19  C8  UNL     1      25.164  44.197  41.810  1.00  0.00     0.145 A 
HETATM   20  N3  UNL     1      24.355  44.598  40.830  1.00  0.00    -0.302 N 
HETATM   21  C9  UNL     1      24.137  43.796  39.744  1.00  0.00     0.327 A 
ATOM     22  H3  UNL     1      23.896  45.507  40.889  1.00  0.00     0.171 HD
HETATM   23  O6  UNL     1      23.366  44.220  38.851  1.00  0.00    -0.247 OA
HETATM   24  N4  UNL     1      24.727  42.598  39.642  1.00  0.00    -0.273 N 
HETATM   25  C10 UNL     1      25.547  42.145  40.596  1.00  0.00     0.285 A 
ATOM     26  H4  UNL     1      24.548  42.020  38.821  1.00  0.00     0.173 HD
HETATM   27  O7  UNL     1      26.093  41.017  40.484  1.00  0.00    -0.265 OA
HETATM   28  C11 UNL     1      25.764  42.973  41.704  1.00  0.00     0.203 A 
BRANCH  28  29
HETATM   29  N5  UNL     1      26.632  42.467  42.698  1.00  0.00    -0.107 N 
HETATM   30  O8  UNL     1      26.116  41.763  43.610  1.00  0.00    -0.531 OA
HETATM   31  O9  UNL     1      27.964  42.731  42.619  1.00  0.00    -0.531 OA
ENDBRANCH  28  29
ENDBRANCH   2  19
TORSDOF 6
ENDMDL
MODEL 5
REMARK VINA RESULT: -7.620118544      2.341      8.468
REMARK  6 active torsions:
REMARK  status: ('A' for Active; 'I' for Inactive)
REMARK       I    between atoms: C1_2  and  N1_3 
REMARK    1  A    between atoms: C1_2  and  C8_19 
REMARK    2  A    between atoms: N1_3  and  N2_5 
REMARK    3  A    between atoms: C2_7  and  C3_8 
REMARK    4  A    between atoms: C4_9  and  O2_10 
REMARK    5  A    between atoms: C7_16  and  O5_17 
REMARK    6  A    between atoms: C11_28  and  N5_29 
ROOT
HETATM    1  O1  UNL     1      25.926  45.413  42.032  1.00  0.00    -0.264 OA
HETATM    2  C1  UNL     1      25.139  44.434  42.201  1.00  0.00     0.289 C 
HETATM    3  N1  UNL     1      24.874  44.073  43.546  1.00  0.00    -0.265 N 
ATOM      4  H1  UNL     1      24.250  43.295  43.762  1.00  0.00     0.190 HD
ENDROOT
BRANCH   3   5
HETATM    5  N2  UNL     1      25.481  44.800  44.569  1.00  0.00    -0.308 N 
HETATM    6  C2  UNL     1      25.126  44.693  45.790  1.00  0.00     0.126 C 
ATOM      7  H2  UNL     1      26.238  45.441  44.332  1.00  0.00     0.186 HD
BRANCH   6   8
HETATM    8  C3  UNL     1      25.773  45.460  46.837  1.00  0.00     0.072 A 
HETATM    9  C4  UNL     1      26.627  44.976  47.797  1.00  0.00     0.087 A 
HETATM   10  C5  UNL     1      27.175  45.866  48.755  1.00  0.00     0.120 A 
HETATM   11  C6  UNL     1      26.842  47.174  48.701  1.00  0.00     0.292 A 
HETATM   12  O3  UNL     1      27.326  47.997  49.557  1.00  0.00    -0.260 OA
HETATM   13  O4  UNL     1      26.022  47.636  47.778  1.00  0.00    -0.251 OA
HETATM   14  C7  UNL     1      25.500  46.838  46.880  1.00  0.00     0.201 A 
BRANCH   9  15
HETATM   15  O2  UNL     1      26.968  43.671  47.864  1.00  0.00    -0.359 OA
ATOM     16  H2  UNL     1      27.534  43.264  47.219  1.00  0.00     0.217 HD
ENDBRANCH   9  15
BRANCH  14  17
HETATM   17  O5  UNL     1      24.629  47.332  45.901  1.00  0.00    -0.340 OA
ATOM     18  H5  UNL     1      25.005  47.924  45.261  1.00  0.00     0.220 HD
ENDBRANCH  14  17
ENDBRANCH   6   8
ENDBRANCH   3   5
BRANCH   2  19
HETATM   19  C8  UNL     1      24.543  43.727  41.087  1.00  0.00     0.145 A 
HETATM   20  N3  UNL     1      23.590  44.294  40.346  1.00  0.00    -0.302 N 
HETATM   21  C9  UNL     1      23.044  43.618  39.291  1.00  0.00     0.327 A 
ATOM     22  H3  UNL     1      23.268  45.236  40.568  1.00  0.00     0.171 HD
HETATM   23  O6  UNL     1      22.152  44.196  38.627  1.00  0.00    -0.247 OA
HETATM   24  N4  UNL     1      23.452  42.381  38.979  1.00  0.00    -0.273 N 
HETATM   25  C10 UNL     1      24.402  41.764  39.688  1.00  0.00     0.285 A 
ATOM     26  H4  UNL     1      23.028  41.900  38.186  1.00  0.00     0.173 HD
HETATM   27  O7  UNL     1      24.772  40.601  39.381  1.00  0.00    -0.265 OA
HETATM   28  C11 UNL     1      24.955  42.464  40.768  1.00  0.00     0.203 A 
BRANCH  28  29
HETATM   29  N5  UNL     1      25.956  41.786  41.501  1.00  0.00    -0.107 N 
HETATM   30  O8  UNL     1      25.584  41.137  42.519  1.00  0.00    -0.531 OA
HETATM   31  O9  UNL     1      27.246  41.837  41.075  1.00  0.00    -0.531 OA
ENDBRANCH  28  29
ENDBRANCH   2  19
TORSDOF 6
ENDMDL
