MODEL 1
REMARK VINA RESULT: -6.501334976      0.000      0.000
REMARK  4 active torsions:
REMARK  status: ('A' for Active; 'I' for Inactive)
REMARK    1  A    between atoms: N2_3  and  C2_5 
REMARK    2  A    between atoms: C2_5  and  S2_7 
REMARK    3  A    between atoms: S2_7  and  C3_8 
REMARK    4  A    between atoms: C3_8  and  C4_9 
ROOT
HETATM    1  N1  UNL     1      36.223  75.871  59.622  1.00  0.00    -0.172 NA
HETATM    2  C1  UNL     1      36.649  74.980  58.983  1.00  0.00     0.183 C 
HETATM    3  N2  UNL     1      37.164  73.941  58.217  1.00  0.00    -0.279 N 
ATOM      4  H2  UNL     1      36.777  73.741  57.294  1.00  0.00     0.179 HD
ENDROOT
BRANCH   3   5
HETATM    5  C2  UNL     1      38.243  73.153  58.734  1.00  0.00     0.147 C 
HETATM    6  S1  UNL     1      38.396  71.645  58.110  1.00  0.00    -0.052 SA
BRANCH   5   7
HETATM    7  S2  UNL     1      39.226  73.841  60.000  1.00  0.00    -0.096 SA
BRANCH   7   8
HETATM    8  C3  UNL     1      39.960  72.761  61.195  1.00  0.00     0.115 C 
BRANCH   8   9
HETATM    9  C4  UNL     1      41.309  73.208  61.677  1.00  0.00    -0.074 C 
HETATM   10  C5  UNL     1      41.374  73.426  63.004  1.00  0.00    -0.023 C 
HETATM   11  C6  UNL     1      42.636  73.867  63.597  1.00  0.00     0.027 C 
HETATM   12  C7  UNL     1      43.787  73.236  62.884  1.00  0.00     0.004 C 
HETATM   13  C8  UNL     1      43.787  73.544  61.410  1.00  0.00     0.005 C 
HETATM   14  C9  UNL     1      42.435  73.368  60.774  1.00  0.00     0.034 C 
ENDBRANCH   8   9
ENDBRANCH   7   8
ENDBRANCH   5   7
ENDBRANCH   3   5
TORSDOF 4
ENDMDL
MODEL 2
REMARK VINA RESULT: -6.484910107      3.786      5.522
REMARK  4 active torsions:
REMARK  status: ('A' for Active; 'I' for Inactive)
REMARK    1  A    between atoms: N2_3  and  C2_5 
REMARK    2  A    between atoms: C2_5  and  S2_7 
REMARK    3  A    between atoms: S2_7  and  C3_8 
REMARK    4  A    between atoms: C3_8  and  C4_9 
ROOT
HETATM    1  N1  UNL     1      39.286  71.794  63.841  1.00  0.00    -0.172 NA
HETATM    2  C1  UNL     1      39.744  72.693  63.235  1.00  0.00     0.183 C 
HETATM    3  N2  UNL     1      40.292  73.763  62.537  1.00  0.00    -0.279 N 
ATOM      4  H2  UNL     1      39.789  74.648  62.476  1.00  0.00     0.179 HD
ENDROOT
BRANCH   3   5
HETATM    5  C2  UNL     1      41.569  73.611  61.905  1.00  0.00     0.147 C 
HETATM    6  S1  UNL     1      42.874  73.680  62.894  1.00  0.00    -0.052 SA
BRANCH   5   7
HETATM    7  S2  UNL     1      41.608  73.439  60.170  1.00  0.00    -0.096 SA
BRANCH   7   8
HETATM    8  C3  UNL     1      40.154  72.871  59.335  1.00  0.00     0.115 C 
BRANCH   8   9
HETATM    9  C4  UNL     1      40.231  71.445  58.873  1.00  0.00    -0.074 C 
HETATM   10  C5  UNL     1      39.103  70.994  58.293  1.00  0.00    -0.023 C 
HETATM   11  C6  UNL     1      39.050  69.618  57.801  1.00  0.00     0.027 C 
HETATM   12  C7  UNL     1      40.383  69.215  57.262  1.00  0.00     0.004 C 
HETATM   13  C8  UNL     1      41.480  69.344  58.285  1.00  0.00     0.005 C 
HETATM   14  C9  UNL     1      41.435  70.648  59.032  1.00  0.00     0.034 C 
ENDBRANCH   8   9
ENDBRANCH   7   8
ENDBRANCH   5   7
ENDBRANCH   3   5
TORSDOF 4
ENDMDL
MODEL 3
REMARK VINA RESULT: -6.461837003      1.650      2.759
REMARK  4 active torsions:
REMARK  status: ('A' for Active; 'I' for Inactive)
REMARK    1  A    between atoms: N2_3  and  C2_5 
REMARK    2  A    between atoms: C2_5  and  S2_7 
REMARK    3  A    between atoms: S2_7  and  C3_8 
REMARK    4  A    between atoms: C3_8  and  C4_9 
ROOT
HETATM    1  N1  UNL     1      36.110  76.026  59.327  1.00  0.00    -0.172 NA
HETATM    2  C1  UNL     1      36.930  75.183  59.363  1.00  0.00     0.183 C 
HETATM    3  N2  UNL     1      37.887  74.176  59.419  1.00  0.00    -0.279 N 
ATOM      4  H2  UNL     1      38.503  74.096  60.228  1.00  0.00     0.179 HD
ENDROOT
BRANCH   3   5
HETATM    5  C2  UNL     1      38.001  73.253  58.329  1.00  0.00     0.147 C 
HETATM    6  S1  UNL     1      37.300  73.711  56.921  1.00  0.00    -0.052 SA
BRANCH   5   7
HETATM    7  S2  UNL     1      38.803  71.732  58.626  1.00  0.00    -0.096 SA
BRANCH   7   8
HETATM    8  C3  UNL     1      38.536  70.912  60.171  1.00  0.00     0.115 C 
BRANCH   8   9
HETATM    9  C4  UNL     1      39.313  71.495  61.316  1.00  0.00    -0.074 C 
HETATM   10  C5  UNL     1      40.359  72.255  60.939  1.00  0.00    -0.023 C 
HETATM   11  C6  UNL     1      41.197  72.880  61.961  1.00  0.00     0.027 C 
HETATM   12  C7  UNL     1      40.363  73.281  63.133  1.00  0.00     0.004 C 
HETATM   13  C8  UNL     1      39.617  72.119  63.732  1.00  0.00     0.005 C 
HETATM   14  C9  UNL     1      38.939  71.262  62.699  1.00  0.00     0.034 C 
ENDBRANCH   8   9
ENDBRANCH   7   8
ENDBRANCH   5   7
ENDBRANCH   3   5
TORSDOF 4
ENDMDL
MODEL 4
REMARK VINA RESULT: -6.452963384      0.426      1.429
REMARK  4 active torsions:
REMARK  status: ('A' for Active; 'I' for Inactive)
REMARK    1  A    between atoms: N2_3  and  C2_5 
REMARK    2  A    between atoms: C2_5  and  S2_7 
REMARK    3  A    between atoms: S2_7  and  C3_8 
REMARK    4  A    between atoms: C3_8  and  C4_9 
ROOT
HETATM    1  N1  UNL     1      36.200  75.620  59.699  1.00  0.00    -0.172 NA
HETATM    2  C1  UNL     1      36.713  74.844  58.978  1.00  0.00     0.183 C 
HETATM    3  N2  UNL     1      37.331  73.943  58.119  1.00  0.00    -0.279 N 
ATOM      4  H2  UNL     1      37.019  73.859  57.151  1.00  0.00     0.179 HD
ENDROOT
BRANCH   3   5
HETATM    5  C2  UNL     1      38.409  73.134  58.605  1.00  0.00     0.147 C 
HETATM    6  S1  UNL     1      38.457  71.592  58.051  1.00  0.00    -0.052 SA
BRANCH   5   7
HETATM    7  S2  UNL     1      39.504  73.839  59.766  1.00  0.00    -0.096 SA
BRANCH   7   8
HETATM    8  C3  UNL     1      39.650  73.094  61.364  1.00  0.00     0.115 C 
BRANCH   8   9
HETATM    9  C4  UNL     1      41.045  73.100  61.917  1.00  0.00    -0.074 C 
HETATM   10  C5  UNL     1      42.007  73.162  60.977  1.00  0.00    -0.023 C 
HETATM   11  C6  UNL     1      43.411  73.172  61.387  1.00  0.00     0.027 C 
HETATM   12  C7  UNL     1      43.565  73.924  62.668  1.00  0.00     0.004 C 
HETATM   13  C8  UNL     1      42.720  73.353  63.775  1.00  0.00     0.005 C 
HETATM   14  C9  UNL     1      41.309  73.060  63.344  1.00  0.00     0.034 C 
ENDBRANCH   8   9
ENDBRANCH   7   8
ENDBRANCH   5   7
ENDBRANCH   3   5
TORSDOF 4
ENDMDL
MODEL 5
REMARK VINA RESULT: -6.445567145      2.649      3.273
REMARK  4 active torsions:
REMARK  status: ('A' for Active; 'I' for Inactive)
REMARK    1  A    between atoms: N2_3  and  C2_5 
REMARK    2  A    between atoms: C2_5  and  S2_7 
REMARK    3  A    between atoms: S2_7  and  C3_8 
REMARK    4  A    between atoms: C3_8  and  C4_9 
ROOT
HETATM    1  N1  UNL     1      38.041  71.047  62.699  1.00  0.00    -0.172 NA
HETATM    2  C1  UNL     1      38.570  70.611  61.742  1.00  0.00     0.183 C 
HETATM    3  N2  UNL     1      39.177  70.095  60.603  1.00  0.00    -0.279 N 
ATOM      4  H2  UNL     1      39.181  69.089  60.433  1.00  0.00     0.179 HD
ENDROOT
BRANCH   3   5
HETATM    5  C2  UNL     1      39.798  70.988  59.670  1.00  0.00     0.147 C 
HETATM    6  S1  UNL     1      41.100  70.398  58.867  1.00  0.00    -0.052 SA
BRANCH   5   7
HETATM    7  S2  UNL     1      39.158  72.605  59.535  1.00  0.00    -0.096 SA
BRANCH   7   8
HETATM    8  C3  UNL     1      40.136  73.962  60.114  1.00  0.00     0.115 C 
BRANCH   8   9
HETATM    9  C4  UNL     1      41.170  73.580  61.133  1.00  0.00    -0.074 C 
HETATM   10  C5  UNL     1      42.423  73.515  60.645  1.00  0.00    -0.023 C 
HETATM   11  C6  UNL     1      43.523  73.151  61.537  1.00  0.00     0.027 C 
HETATM   12  C7  UNL     1      43.278  73.703  62.903  1.00  0.00     0.004 C 
HETATM   13  C8  UNL     1      41.974  73.230  63.489  1.00  0.00     0.005 C 
HETATM   14  C9  UNL     1      40.828  73.326  62.520  1.00  0.00     0.034 C 
ENDBRANCH   8   9
ENDBRANCH   7   8
ENDBRANCH   5   7
ENDBRANCH   3   5
TORSDOF 4
ENDMDL
