MODEL 1
REMARK VINA RESULT: -7.212785073      0.000      0.000
REMARK  3 active torsions:
REMARK  status: ('A' for Active; 'I' for Inactive)
REMARK    1  A    between atoms: C4_4  and  C5_5 
REMARK    2  A    between atoms: C5_5  and  S1_6 
REMARK    3  A    between atoms: S1_6  and  C6_7 
ROOT
HETATM    1  S1  UNL     1      40.073  72.514  59.694  1.00  0.00    -0.112 SA
ENDROOT
BRANCH   1   2
HETATM    2  C5  UNL     1      39.946  70.767  60.058  1.00  0.00     0.119 C 
BRANCH   2   3
HETATM    3  C4  UNL     1      40.200  69.942  58.847  1.00  0.00    -0.049 A 
HETATM    4  C3  UNL     1      39.227  69.689  57.919  1.00  0.00     0.008 A 
HETATM    5  C2  UNL     1      39.542  68.930  56.801  1.00  0.00     0.001 A 
HETATM    6  C1  UNL     1      40.801  68.426  56.597  1.00  0.00     0.000 A 
HETATM    7  C12 UNL     1      41.768  68.694  57.549  1.00  0.00     0.001 A 
HETATM    8  C11 UNL     1      41.465  69.441  58.653  1.00  0.00     0.008 A 
ENDBRANCH   2   3
ENDBRANCH   1   2
BRANCH   1   9
HETATM    9  C6  UNL     1      38.529  73.282  59.287  1.00  0.00     0.042 C 
HETATM   10  N1  UNL     1      38.096  74.388  59.728  1.00  0.00    -0.388 N 
HETATM   11  C7  UNL     1      36.844  74.980  59.379  1.00  0.00     0.120 C 
ATOM     12  H1  UNL     1      38.689  74.897  60.383  1.00  0.00     0.159 HD
HETATM   13  C8  UNL     1      36.441  74.730  57.965  1.00  0.00     0.020 C 
HETATM   14  C9  UNL     1      37.284  73.693  57.263  1.00  0.00     0.008 C 
HETATM   15  C10 UNL     1      37.571  72.612  58.307  1.00  0.00     0.064 C 
ENDBRANCH   1   9
TORSDOF 3
ENDMDL
MODEL 2
REMARK VINA RESULT: -7.089551317      2.593      5.570
REMARK  3 active torsions:
REMARK  status: ('A' for Active; 'I' for Inactive)
REMARK    1  A    between atoms: C4_4  and  C5_5 
REMARK    2  A    between atoms: C5_5  and  S1_6 
REMARK    3  A    between atoms: S1_6  and  C6_7 
ROOT
HETATM    1  S1  UNL     1      38.373  71.840  58.749  1.00  0.00    -0.112 SA
ENDROOT
BRANCH   1   2
HETATM    2  C5  UNL     1      39.377  73.071  59.573  1.00  0.00     0.119 C 
BRANCH   2   3
HETATM    3  C4  UNL     1      39.580  72.731  61.007  1.00  0.00    -0.049 A 
HETATM    4  C3  UNL     1      38.773  71.847  61.670  1.00  0.00     0.008 A 
HETATM    5  C2  UNL     1      39.037  71.560  63.001  1.00  0.00     0.001 A 
HETATM    6  C1  UNL     1      40.082  72.137  63.675  1.00  0.00     0.000 A 
HETATM    7  C12 UNL     1      40.883  73.029  62.985  1.00  0.00     0.001 A 
HETATM    8  C11 UNL     1      40.630  73.317  61.673  1.00  0.00     0.008 A 
ENDBRANCH   2   3
ENDBRANCH   1   2
BRANCH   1   9
HETATM    9  C6  UNL     1      39.272  70.406  58.226  1.00  0.00     0.042 C 
HETATM   10  N1  UNL     1      39.182  69.827  57.103  1.00  0.00    -0.388 N 
HETATM   11  C7  UNL     1      39.921  68.669  56.711  1.00  0.00     0.120 C 
ATOM     12  H1  UNL     1      38.529  70.218  56.424  1.00  0.00     0.159 HD
HETATM   13  C8  UNL     1      41.307  68.634  57.264  1.00  0.00     0.020 C 
HETATM   14  C9  UNL     1      41.567  69.671  58.330  1.00  0.00     0.008 C 
HETATM   15  C10 UNL     1      40.283  69.748  59.159  1.00  0.00     0.064 C 
ENDBRANCH   1   9
TORSDOF 3
ENDMDL
MODEL 3
REMARK VINA RESULT: -7.041415849      2.601      5.644
REMARK  3 active torsions:
REMARK  status: ('A' for Active; 'I' for Inactive)
REMARK    1  A    between atoms: C4_4  and  C5_5 
REMARK    2  A    between atoms: C5_5  and  S1_6 
REMARK    3  A    between atoms: S1_6  and  C6_7 
ROOT
HETATM    1  S1  UNL     1      38.417  71.973  58.811  1.00  0.00    -0.112 SA
ENDROOT
BRANCH   1   2
HETATM    2  C5  UNL     1      39.509  73.249  59.427  1.00  0.00     0.119 C 
BRANCH   2   3
HETATM    3  C4  UNL     1      39.891  72.997  60.842  1.00  0.00    -0.049 A 
HETATM    4  C3  UNL     1      41.026  73.522  61.396  1.00  0.00     0.008 A 
HETATM    5  C2  UNL     1      41.308  73.265  62.730  1.00  0.00     0.001 A 
HETATM    6  C1  UNL     1      40.482  72.498  63.511  1.00  0.00     0.000 A 
HETATM    7  C12 UNL     1      39.341  71.977  62.929  1.00  0.00     0.001 A 
HETATM    8  C11 UNL     1      39.056  72.226  61.615  1.00  0.00     0.008 A 
ENDBRANCH   2   3
ENDBRANCH   1   2
BRANCH   1   9
HETATM    9  C6  UNL     1      39.250  70.505  58.273  1.00  0.00     0.042 C 
HETATM   10  N1  UNL     1      39.123  69.932  57.150  1.00  0.00    -0.388 N 
HETATM   11  C7  UNL     1      39.811  68.747  56.747  1.00  0.00     0.120 C 
ATOM     12  H1  UNL     1      38.478  70.351  56.480  1.00  0.00     0.159 HD
HETATM   13  C8  UNL     1      41.201  68.656  57.281  1.00  0.00     0.020 C 
HETATM   14  C9  UNL     1      41.516  69.680  58.346  1.00  0.00     0.008 C 
HETATM   15  C10 UNL     1      40.247  69.805  59.192  1.00  0.00     0.064 C 
ENDBRANCH   1   9
TORSDOF 3
ENDMDL
MODEL 4
REMARK VINA RESULT: -7.037052749      2.391      3.459
REMARK  3 active torsions:
REMARK  status: ('A' for Active; 'I' for Inactive)
REMARK    1  A    between atoms: C4_4  and  C5_5 
REMARK    2  A    between atoms: C5_5  and  S1_6 
REMARK    3  A    between atoms: S1_6  and  C6_7 
ROOT
HETATM    1  S1  UNL     1      38.398  70.875  60.446  1.00  0.00    -0.112 SA
ENDROOT
BRANCH   1   2
HETATM    2  C5  UNL     1      38.626  71.119  58.688  1.00  0.00     0.119 C 
BRANCH   2   3
HETATM    3  C4  UNL     1      39.592  70.137  58.127  1.00  0.00    -0.049 A 
HETATM    4  C3  UNL     1      39.313  69.393  57.013  1.00  0.00     0.008 A 
HETATM    5  C2  UNL     1      40.271  68.513  56.532  1.00  0.00     0.001 A 
HETATM    6  C1  UNL     1      41.491  68.366  57.139  1.00  0.00     0.000 A 
HETATM    7  C12 UNL     1      41.751  69.127  58.264  1.00  0.00     0.001 A 
HETATM    8  C11 UNL     1      40.812  69.996  58.745  1.00  0.00     0.008 A 
ENDBRANCH   2   3
ENDBRANCH   1   2
BRANCH   1   9
HETATM    9  C6  UNL     1      39.302  72.015  61.457  1.00  0.00     0.042 C 
HETATM   10  N1  UNL     1      39.439  71.964  62.716  1.00  0.00    -0.388 N 
HETATM   11  C7  UNL     1      40.175  72.901  63.503  1.00  0.00     0.120 C 
ATOM     12  H1  UNL     1      38.988  71.192  63.206  1.00  0.00     0.159 HD
HETATM   13  C8  UNL     1      41.389  73.430  62.816  1.00  0.00     0.020 C 
HETATM   14  C9  UNL     1      41.459  73.089  61.347  1.00  0.00     0.008 C 
HETATM   15  C10 UNL     1      40.025  73.200  60.825  1.00  0.00     0.064 C 
ENDBRANCH   1   9
TORSDOF 3
ENDMDL
MODEL 5
REMARK VINA RESULT: -6.992906049      3.302      4.732
REMARK  3 active torsions:
REMARK  status: ('A' for Active; 'I' for Inactive)
REMARK    1  A    between atoms: C4_4  and  C5_5 
REMARK    2  A    between atoms: C5_5  and  S1_6 
REMARK    3  A    between atoms: S1_6  and  C6_7 
ROOT
HETATM    1  S1  UNL     1      40.269  72.996  59.597  1.00  0.00    -0.112 SA
ENDROOT
BRANCH   1   2
HETATM    2  C5  UNL     1      40.511  72.550  61.312  1.00  0.00     0.119 C 
BRANCH   2   3
HETATM    3  C4  UNL     1      41.757  73.152  61.857  1.00  0.00    -0.049 A 
HETATM    4  C3  UNL     1      41.840  73.626  63.138  1.00  0.00     0.008 A 
HETATM    5  C2  UNL     1      43.043  74.153  63.587  1.00  0.00     0.001 A 
HETATM    6  C1  UNL     1      44.152  74.214  62.784  1.00  0.00     0.000 A 
HETATM    7  C12 UNL     1      44.045  73.730  61.493  1.00  0.00     0.001 A 
HETATM    8  C11 UNL     1      42.864  73.209  61.044  1.00  0.00     0.008 A 
ENDBRANCH   2   3
ENDBRANCH   1   2
BRANCH   1   9
HETATM    9  C6  UNL     1      38.621  73.520  59.211  1.00  0.00     0.042 C 
HETATM   10  N1  UNL     1      38.034  74.551  59.653  1.00  0.00    -0.388 N 
HETATM   11  C7  UNL     1      36.701  74.946  59.322  1.00  0.00     0.120 C 
ATOM     12  H1  UNL     1      38.553  75.149  60.296  1.00  0.00     0.159 HD
HETATM   13  C8  UNL     1      36.319  74.628  57.915  1.00  0.00     0.020 C 
HETATM   14  C9  UNL     1      37.298  73.724  57.205  1.00  0.00     0.008 C 
HETATM   15  C10 UNL     1      37.760  72.706  58.250  1.00  0.00     0.064 C 
ENDBRANCH   1   9
TORSDOF 3
ENDMDL
