MODEL 1
REMARK VINA RESULT: -7.271948994      0.000      0.000
REMARK  2 active torsions:
REMARK  status: ('A' for Active; 'I' for Inactive)
REMARK    1  A    between atoms: C2_6  and  C3_7 
REMARK    2  A    between atoms: C3_7  and  C4_8 
ROOT
HETATM    1  N1  UNL     1      36.502  75.607  59.258  1.00  0.00    -0.374 N 
ATOM      2  H11 UNL     1      35.858  75.900  58.522  1.00  0.00     0.158 HD
ATOM      3  H12 UNL     1      36.469  76.133  60.131  1.00  0.00     0.158 HD
HETATM    4  C1  UNL     1      37.324  74.625  59.113  1.00  0.00     0.175 C 
HETATM    5  O1  UNL     1      38.205  74.224  60.120  1.00  0.00    -0.325 OA
HETATM    6  C2  UNL     1      38.930  73.010  60.028  1.00  0.00     0.132 C 
HETATM    7  C10 UNL     1      38.188  71.887  59.401  1.00  0.00     0.043 C 
HETATM    8  C11 UNL     1      38.195  72.110  57.883  1.00  0.00     0.085 C 
HETATM    9  S1  UNL     1      37.382  73.705  57.584  1.00  0.00    -0.087 SA
ENDROOT
BRANCH   6  10
HETATM   10  C3  UNL     1      39.501  72.632  61.350  1.00  0.00     0.037 C 
BRANCH  10  11
HETATM   11  C4  UNL     1      40.759  73.284  61.769  1.00  0.00    -0.012 C 
HETATM   12  C5  UNL     1      41.062  73.403  63.206  1.00  0.00     0.005 C 
HETATM   13  C6  UNL     1      42.535  73.243  63.528  1.00  0.00     0.000 C 
HETATM   14  C7  UNL     1      43.441  73.802  62.498  1.00  0.00     0.000 C 
HETATM   15  C8  UNL     1      43.067  73.555  61.081  1.00  0.00     0.000 C 
HETATM   16  C9  UNL     1      41.899  72.598  61.006  1.00  0.00     0.005 C 
ENDBRANCH  10  11
ENDBRANCH   6  10
TORSDOF 2
ENDMDL
MODEL 2
REMARK VINA RESULT: -7.251013005      0.343      1.382
REMARK  2 active torsions:
REMARK  status: ('A' for Active; 'I' for Inactive)
REMARK    1  A    between atoms: C2_6  and  C3_7 
REMARK    2  A    between atoms: C3_7  and  C4_8 
ROOT
HETATM    1  N1  UNL     1      36.512  75.562  59.080  1.00  0.00    -0.374 N 
ATOM      2  H11 UNL     1      35.956  75.869  58.282  1.00  0.00     0.158 HD
ATOM      3  H12 UNL     1      36.403  76.090  59.946  1.00  0.00     0.158 HD
HETATM    4  C1  UNL     1      37.320  74.559  59.021  1.00  0.00     0.175 C 
HETATM    5  O1  UNL     1      38.082  74.138  60.114  1.00  0.00    -0.325 OA
HETATM    6  C2  UNL     1      38.781  72.906  60.097  1.00  0.00     0.132 C 
HETATM    7  C10 UNL     1      38.080  71.800  59.395  1.00  0.00     0.043 C 
HETATM    8  C11 UNL     1      38.250  72.020  57.886  1.00  0.00     0.085 C 
HETATM    9  S1  UNL     1      37.513  73.635  57.506  1.00  0.00    -0.087 SA
ENDROOT
BRANCH   6  10
HETATM   10  C3  UNL     1      39.202  72.515  61.470  1.00  0.00     0.037 C 
BRANCH  10  11
HETATM   11  C4  UNL     1      40.647  72.538  61.780  1.00  0.00    -0.012 C 
HETATM   12  C5  UNL     1      41.614  72.692  60.679  1.00  0.00     0.005 C 
HETATM   13  C6  UNL     1      42.826  73.525  61.051  1.00  0.00     0.000 C 
HETATM   14  C7  UNL     1      43.271  73.350  62.453  1.00  0.00     0.000 C 
HETATM   15  C8  UNL     1      42.202  73.280  63.484  1.00  0.00     0.000 C 
HETATM   16  C9  UNL     1      40.858  73.597  62.869  1.00  0.00     0.005 C 
ENDBRANCH  10  11
ENDBRANCH   6  10
TORSDOF 2
ENDMDL
MODEL 3
REMARK VINA RESULT: -7.126514915      3.534      5.291
REMARK  2 active torsions:
REMARK  status: ('A' for Active; 'I' for Inactive)
REMARK    1  A    between atoms: C2_6  and  C3_7 
REMARK    2  A    between atoms: C3_7  and  C4_8 
ROOT
HETATM    1  N1  UNL     1      40.657  74.038  61.933  1.00  0.00    -0.374 N 
ATOM      2  H11 UNL     1      40.960  74.318  62.867  1.00  0.00     0.158 HD
ATOM      3  H12 UNL     1      41.022  74.580  61.151  1.00  0.00     0.158 HD
HETATM    4  C1  UNL     1      39.854  73.050  61.730  1.00  0.00     0.175 C 
HETATM    5  O1  UNL     1      39.440  72.666  60.452  1.00  0.00    -0.325 OA
HETATM    6  C2  UNL     1      38.750  71.448  60.234  1.00  0.00     0.132 C 
HETATM    7  C10 UNL     1      39.200  70.315  61.082  1.00  0.00     0.043 C 
HETATM    8  C11 UNL     1      38.599  70.508  62.481  1.00  0.00     0.085 C 
HETATM    9  S1  UNL     1      39.214  72.101  63.099  1.00  0.00    -0.087 SA
ENDROOT
BRANCH   6  10
HETATM   10  C3  UNL     1      38.744  71.093  58.788  1.00  0.00     0.037 C 
BRANCH  10  11
HETATM   11  C4  UNL     1      39.529  69.915  58.365  1.00  0.00    -0.012 C 
HETATM   12  C5  UNL     1      39.117  69.172  57.161  1.00  0.00     0.005 C 
HETATM   13  C6  UNL     1      40.284  68.642  56.349  1.00  0.00     0.000 C 
HETATM   14  C7  UNL     1      41.439  68.208  57.168  1.00  0.00     0.000 C 
HETATM   15  C8  UNL     1      41.804  69.080  58.315  1.00  0.00     0.000 C 
HETATM   16  C9  UNL     1      40.996  70.357  58.282  1.00  0.00     0.005 C 
ENDBRANCH  10  11
ENDBRANCH   6  10
TORSDOF 2
ENDMDL
MODEL 4
REMARK VINA RESULT: -7.111718674      3.744      4.556
REMARK  2 active torsions:
REMARK  status: ('A' for Active; 'I' for Inactive)
REMARK    1  A    between atoms: C2_6  and  C3_7 
REMARK    2  A    between atoms: C3_7  and  C4_8 
ROOT
HETATM    1  N1  UNL     1      38.305  68.221  56.145  1.00  0.00    -0.374 N 
ATOM      2  H11 UNL     1      38.527  67.388  55.599  1.00  0.00     0.158 HD
ATOM      3  H12 UNL     1      37.326  68.503  56.171  1.00  0.00     0.158 HD
HETATM    4  C1  UNL     1      39.201  68.898  56.778  1.00  0.00     0.175 C 
HETATM    5  O1  UNL     1      38.896  70.038  57.526  1.00  0.00    -0.325 OA
HETATM    6  C2  UNL     1      39.848  70.629  58.394  1.00  0.00     0.132 C 
HETATM    7  C10 UNL     1      40.727  69.665  59.104  1.00  0.00     0.043 C 
HETATM    8  C11 UNL     1      41.796  69.186  58.113  1.00  0.00     0.085 C 
HETATM    9  S1  UNL     1      40.916  68.404  56.731  1.00  0.00    -0.087 SA
ENDROOT
BRANCH   6  10
HETATM   10  C3  UNL     1      39.191  71.580  59.332  1.00  0.00     0.037 C 
BRANCH  10  11
HETATM   11  C4  UNL     1      39.733  71.680  60.703  1.00  0.00    -0.012 C 
HETATM   12  C5  UNL     1      40.579  72.832  61.058  1.00  0.00     0.005 C 
HETATM   13  C6  UNL     1      40.371  73.319  62.479  1.00  0.00     0.000 C 
HETATM   14  C7  UNL     1      40.089  72.238  63.452  1.00  0.00     0.000 C 
HETATM   15  C8  UNL     1      39.163  71.167  63.001  1.00  0.00     0.000 C 
HETATM   16  C9  UNL     1      38.550  71.529  61.667  1.00  0.00     0.005 C 
ENDBRANCH  10  11
ENDBRANCH   6  10
TORSDOF 2
ENDMDL
MODEL 5
REMARK VINA RESULT: -6.717191841      3.653      5.465
REMARK  2 active torsions:
REMARK  status: ('A' for Active; 'I' for Inactive)
REMARK    1  A    between atoms: C2_6  and  C3_7 
REMARK    2  A    between atoms: C3_7  and  C4_8 
ROOT
HETATM    1  N1  UNL     1      39.524  72.632  63.841  1.00  0.00    -0.374 N 
ATOM      2  H11 UNL     1      39.862  73.100  64.682  1.00  0.00     0.158 HD
ATOM      3  H12 UNL     1      38.603  72.197  63.898  1.00  0.00     0.158 HD
HETATM    4  C1  UNL     1      40.208  72.581  62.750  1.00  0.00     0.175 C 
HETATM    5  O1  UNL     1      39.744  71.941  61.598  1.00  0.00    -0.325 OA
HETATM    6  C2  UNL     1      40.401  72.093  60.352  1.00  0.00     0.132 C 
HETATM    7  C10 UNL     1      40.956  73.447  60.101  1.00  0.00     0.043 C 
HETATM    8  C11 UNL     1      42.257  73.578  60.904  1.00  0.00     0.085 C 
HETATM    9  S1  UNL     1      41.820  73.342  62.650  1.00  0.00    -0.087 SA
ENDROOT
BRANCH   6  10
HETATM   10  C3  UNL     1      39.534  71.630  59.235  1.00  0.00     0.037 C 
BRANCH  10  11
HETATM   11  C4  UNL     1      40.127  70.719  58.234  1.00  0.00    -0.012 C 
HETATM   12  C5  UNL     1      41.485  70.191  58.460  1.00  0.00     0.005 C 
HETATM   13  C6  UNL     1      41.664  68.762  57.985  1.00  0.00     0.000 C 
HETATM   14  C7  UNL     1      40.902  68.435  56.757  1.00  0.00     0.000 C 
HETATM   15  C8  UNL     1      39.516  68.966  56.677  1.00  0.00     0.000 C 
HETATM   16  C9  UNL     1      39.116  69.592  57.993  1.00  0.00     0.005 C 
ENDBRANCH  10  11
ENDBRANCH   6  10
TORSDOF 2
ENDMDL
