MODEL 1
REMARK VINA RESULT: -8.053099738      0.000      0.000
REMARK  4 active torsions:
REMARK  status: ('A' for Active; 'I' for Inactive)
REMARK    1  A    between atoms: C2_2  and  C3_3 
REMARK    2  A    between atoms: C2_2  and  C7_14 
REMARK    3  A    between atoms: C3_3  and  N1_4 
REMARK    4  A    between atoms: N3_10  and  O1_12 
ROOT
HETATM    1  N1  UNL     1      41.181  71.054  58.783  1.00  0.00    -0.279 N 
HETATM    2  N2  UNL     1      39.835  71.430  58.475  1.00  0.00    -0.312 N 
ATOM      3  H2  UNL     1      39.328  72.164  58.970  1.00  0.00     0.185 HD
HETATM    4  C4  UNL     1      39.343  70.764  57.535  1.00  0.00     0.088 A 
HETATM    5  C5  UNL     1      40.298  69.782  57.001  1.00  0.00     0.126 A 
HETATM    6  C6  UNL     1      41.497  70.013  57.896  1.00  0.00     0.122 A 
HETATM    7  N3  UNL     1      42.584  69.308  57.863  1.00  0.00    -0.255 N 
ATOM      8  H3  UNL     1      43.330  69.485  58.536  1.00  0.00     0.195 HD
ENDROOT
BRANCH   1   9
HETATM    9  C3  UNL     1      41.981  71.724  59.765  1.00  0.00     0.155 C 
BRANCH   9  10
HETATM   10  C2  UNL     1      41.534  73.044  60.287  1.00  0.00     0.010 C 
HETATM   11  C1  UNL     1      41.952  74.150  59.394  1.00  0.00     0.012 C 
BRANCH  10  12
HETATM   12  C7  UNL     1      42.156  73.237  61.643  1.00  0.00     0.023 C 
HETATM   13  C8  UNL     1      43.631  72.764  61.709  1.00  0.00     0.088 C 
HETATM   14  C9  UNL     1      43.688  71.826  62.770  1.00  0.00    -0.182 C 
HETATM   15  C10 UNL     1      43.649  70.893  63.813  1.00  0.00     0.083 C 
HETATM   16  C11 UNL     1      42.163  70.833  64.297  1.00  0.00     0.038 C 
HETATM   17  C12 UNL     1      41.204  71.445  63.274  1.00  0.00    -0.029 C 
HETATM   18  C13 UNL     1      41.342  72.804  62.811  1.00  0.00    -0.025 C 
ENDBRANCH  10  12
ENDBRANCH   9  10
ENDBRANCH   1   9
BRANCH   7  19
HETATM   19  O1  UNL     1      42.725  68.320  56.916  1.00  0.00    -0.288 OA
ATOM     20  H1  UNL     1      43.584  68.136  56.555  1.00  0.00     0.244 HD
ENDBRANCH   7  19
TORSDOF 4
ENDMDL
MODEL 2
REMARK VINA RESULT: -7.968392934      1.746      2.244
REMARK  4 active torsions:
REMARK  status: ('A' for Active; 'I' for Inactive)
REMARK    1  A    between atoms: C2_2  and  C3_3 
REMARK    2  A    between atoms: C2_2  and  C7_14 
REMARK    3  A    between atoms: C3_3  and  N1_4 
REMARK    4  A    between atoms: N3_10  and  O1_12 
ROOT
HETATM    1  N1  UNL     1      41.465  71.696  59.087  1.00  0.00    -0.279 N 
HETATM    2  N2  UNL     1      42.166  70.538  58.622  1.00  0.00    -0.312 N 
ATOM      3  H2  UNL     1      43.112  70.297  58.917  1.00  0.00     0.185 HD
HETATM    4  C4  UNL     1      41.497  69.851  57.815  1.00  0.00     0.088 A 
HETATM    5  C5  UNL     1      40.166  70.428  57.578  1.00  0.00     0.126 A 
HETATM    6  C6  UNL     1      40.219  71.671  58.439  1.00  0.00     0.122 A 
HETATM    7  N3  UNL     1      39.285  72.568  58.494  1.00  0.00    -0.255 N 
ATOM      8  H3  UNL     1      39.414  73.410  59.054  1.00  0.00     0.195 HD
ENDROOT
BRANCH   1   9
HETATM    9  C3  UNL     1      41.991  72.592  60.073  1.00  0.00     0.155 C 
BRANCH   9  10
HETATM   10  C2  UNL     1      41.050  73.320  60.967  1.00  0.00     0.010 C 
HETATM   11  C1  UNL     1      40.862  74.724  60.528  1.00  0.00     0.012 C 
BRANCH  10  12
HETATM   12  C7  UNL     1      41.630  73.306  62.355  1.00  0.00     0.023 C 
HETATM   13  C8  UNL     1      43.164  73.088  62.372  1.00  0.00     0.088 C 
HETATM   14  C9  UNL     1      43.384  71.959  63.200  1.00  0.00    -0.182 C 
HETATM   15  C10 UNL     1      43.509  70.822  64.008  1.00  0.00     0.083 C 
HETATM   16  C11 UNL     1      42.057  70.404  64.408  1.00  0.00     0.038 C 
HETATM   17  C12 UNL     1      41.005  71.059  63.510  1.00  0.00    -0.029 C 
HETATM   18  C13 UNL     1      40.904  72.490  63.366  1.00  0.00    -0.025 C 
ENDBRANCH  10  12
ENDBRANCH   9  10
ENDBRANCH   1   9
BRANCH   7  19
HETATM   19  O1  UNL     1      38.118  72.376  57.791  1.00  0.00    -0.288 OA
ATOM     20  H1  UNL     1      37.521  73.104  57.666  1.00  0.00     0.244 HD
ENDBRANCH   7  19
TORSDOF 4
ENDMDL
MODEL 3
REMARK VINA RESULT: -7.968379676      1.626      2.263
REMARK  4 active torsions:
REMARK  status: ('A' for Active; 'I' for Inactive)
REMARK    1  A    between atoms: C2_2  and  C3_3 
REMARK    2  A    between atoms: C2_2  and  C7_14 
REMARK    3  A    between atoms: C3_3  and  N1_4 
REMARK    4  A    between atoms: N3_10  and  O1_12 
ROOT
HETATM    1  N1  UNL     1      41.300  70.715  58.336  1.00  0.00    -0.279 N 
HETATM    2  N2  UNL     1      42.535  70.024  58.118  1.00  0.00    -0.312 N 
ATOM      3  H2  UNL     1      43.402  70.256  58.601  1.00  0.00     0.185 HD
HETATM    4  C4  UNL     1      42.439  69.104  57.273  1.00  0.00     0.088 A 
HETATM    5  C5  UNL     1      41.072  68.986  56.745  1.00  0.00     0.126 A 
HETATM    6  C6  UNL     1      40.369  70.107  57.479  1.00  0.00     0.122 A 
HETATM    7  N3  UNL     1      39.137  70.458  57.277  1.00  0.00    -0.255 N 
ATOM      8  H3  UNL     1      38.746  71.262  57.769  1.00  0.00     0.195 HD
ENDROOT
BRANCH   1   9
HETATM    9  C3  UNL     1      41.140  71.752  59.311  1.00  0.00     0.155 C 
BRANCH   9  10
HETATM   10  C2  UNL     1      40.660  71.398  60.674  1.00  0.00     0.010 C 
HETATM   11  C1  UNL     1      39.203  71.633  60.815  1.00  0.00     0.012 C 
BRANCH  10  12
HETATM   12  C7  UNL     1      41.400  72.259  61.661  1.00  0.00     0.023 C 
HETATM   13  C8  UNL     1      42.879  72.501  61.268  1.00  0.00     0.088 C 
HETATM   14  C9  UNL     1      43.649  72.070  62.377  1.00  0.00    -0.182 C 
HETATM   15  C10 UNL     1      44.332  71.597  63.505  1.00  0.00     0.083 C 
HETATM   16  C11 UNL     1      43.241  71.074  64.494  1.00  0.00     0.038 C 
HETATM   17  C12 UNL     1      41.894  70.860  63.800  1.00  0.00    -0.029 C 
HETATM   18  C13 UNL     1      41.216  71.923  63.099  1.00  0.00    -0.025 C 
ENDBRANCH  10  12
ENDBRANCH   9  10
ENDBRANCH   1   9
BRANCH   7  19
HETATM   19  O1  UNL     1      38.362  69.740  56.396  1.00  0.00    -0.288 OA
ATOM     20  H1  UNL     1      37.983  68.914  56.671  1.00  0.00     0.244 HD
ENDBRANCH   7  19
TORSDOF 4
ENDMDL
MODEL 4
REMARK VINA RESULT: -7.707169827      2.572      3.920
REMARK  4 active torsions:
REMARK  status: ('A' for Active; 'I' for Inactive)
REMARK    1  A    between atoms: C2_2  and  C3_3 
REMARK    2  A    between atoms: C2_2  and  C7_14 
REMARK    3  A    between atoms: C3_3  and  N1_4 
REMARK    4  A    between atoms: N3_10  and  O1_12 
ROOT
HETATM    1  N1  UNL     1      40.065  73.293  61.408  1.00  0.00    -0.279 N 
HETATM    2  N2  UNL     1      39.968  74.655  60.981  1.00  0.00    -0.312 N 
ATOM      3  H2  UNL     1      40.102  75.451  61.603  1.00  0.00     0.185 HD
HETATM    4  C4  UNL     1      39.702  74.768  59.761  1.00  0.00     0.088 A 
HETATM    5  C5  UNL     1      39.573  73.459  59.106  1.00  0.00     0.126 A 
HETATM    6  C6  UNL     1      39.802  72.517  60.268  1.00  0.00     0.122 A 
HETATM    7  N3  UNL     1      39.702  71.226  60.199  1.00  0.00    -0.255 N 
ATOM      8  H3  UNL     1      39.815  70.657  61.038  1.00  0.00     0.195 HD
ENDROOT
BRANCH   1   9
HETATM    9  C3  UNL     1      40.436  72.909  62.738  1.00  0.00     0.155 C 
BRANCH   9  10
HETATM   10  C2  UNL     1      41.487  71.873  62.927  1.00  0.00     0.010 C 
HETATM   11  C1  UNL     1      41.062  70.841  63.904  1.00  0.00     0.012 C 
BRANCH  10  12
HETATM   12  C7  UNL     1      42.725  72.560  63.436  1.00  0.00     0.023 C 
HETATM   13  C8  UNL     1      42.660  74.103  63.309  1.00  0.00     0.088 C 
HETATM   14  C9  UNL     1      43.805  74.476  62.561  1.00  0.00    -0.182 C 
HETATM   15  C10 UNL     1      44.944  74.754  61.794  1.00  0.00     0.083 C 
HETATM   16  C11 UNL     1      45.611  73.375  61.481  1.00  0.00     0.038 C 
HETATM   17  C12 UNL     1      44.653  72.207  61.723  1.00  0.00    -0.029 C 
HETATM   18  C13 UNL     1      44.026  71.983  63.002  1.00  0.00    -0.025 C 
ENDBRANCH  10  12
ENDBRANCH   9  10
ENDBRANCH   1   9
BRANCH   7  19
HETATM   19  O1  UNL     1      39.441  70.630  58.987  1.00  0.00    -0.288 OA
ATOM     20  H1  UNL     1      40.161  70.418  58.404  1.00  0.00     0.244 HD
ENDBRANCH   7  19
TORSDOF 4
ENDMDL
MODEL 5
REMARK VINA RESULT: -7.630876623      2.775      4.271
REMARK  4 active torsions:
REMARK  status: ('A' for Active; 'I' for Inactive)
REMARK    1  A    between atoms: C2_2  and  C3_3 
REMARK    2  A    between atoms: C2_2  and  C7_14 
REMARK    3  A    between atoms: C3_3  and  N1_4 
REMARK    4  A    between atoms: N3_10  and  O1_12 
ROOT
HETATM    1  N1  UNL     1      40.317  72.196  61.220  1.00  0.00    -0.279 N 
HETATM    2  N2  UNL     1      40.598  71.103  60.339  1.00  0.00    -0.312 N 
ATOM      3  H2  UNL     1      41.058  70.243  60.638  1.00  0.00     0.185 HD
HETATM    4  C4  UNL     1      40.218  71.311  59.163  1.00  0.00     0.088 A 
HETATM    5  C5  UNL     1      39.578  72.627  59.020  1.00  0.00     0.126 A 
HETATM    6  C6  UNL     1      39.699  73.175  60.425  1.00  0.00     0.122 A 
HETATM    7  N3  UNL     1      39.344  74.369  60.781  1.00  0.00    -0.255 N 
ATOM      8  H3  UNL     1      39.507  74.690  61.736  1.00  0.00     0.195 HD
ENDROOT
BRANCH   1   9
HETATM    9  C3  UNL     1      40.584  72.162  62.627  1.00  0.00     0.155 C 
BRANCH   9  10
HETATM   10  C2  UNL     1      41.717  71.339  63.131  1.00  0.00     0.010 C 
HETATM   11  C1  UNL     1      41.322  70.541  64.317  1.00  0.00     0.012 C 
BRANCH  10  12
HETATM   12  C7  UNL     1      42.834  72.273  63.509  1.00  0.00     0.023 C 
HETATM   13  C8  UNL     1      42.483  73.765  63.279  1.00  0.00     0.088 C 
HETATM   14  C9  UNL     1      43.501  74.274  62.433  1.00  0.00    -0.182 C 
HETATM   15  C10 UNL     1      44.529  74.687  61.577  1.00  0.00     0.083 C 
HETATM   16  C11 UNL     1      45.419  73.428  61.318  1.00  0.00     0.038 C 
HETATM   17  C12 UNL     1      44.702  72.132  61.702  1.00  0.00    -0.029 C 
HETATM   18  C13 UNL     1      44.194  71.903  63.032  1.00  0.00    -0.025 C 
ENDBRANCH  10  12
ENDBRANCH   9  10
ENDBRANCH   1   9
BRANCH   7  19
HETATM   19  O1  UNL     1      38.744  75.201  59.864  1.00  0.00    -0.288 OA
ATOM     20  H1  UNL     1      38.515  76.088  60.115  1.00  0.00     0.244 HD
ENDBRANCH   7  19
TORSDOF 4
ENDMDL
