MODEL 1
REMARK VINA RESULT: -6.620285291      0.000      0.000
REMARK  3 active torsions:
REMARK  status: ('A' for Active; 'I' for Inactive)
REMARK    1  A    between atoms: C3_5  and  C4_6 
REMARK    2  A    between atoms: C4_6  and  N2_7 
REMARK    3  A    between atoms: N2_7  and  N3_9 
ROOT
HETATM    1  N2  UNL     1      40.432  74.711  61.430  1.00  0.00    -0.333 N 
ATOM      2  H2  UNL     1      39.527  74.891  61.865  1.00  0.00     0.180 HD
ENDROOT
BRANCH   1   3
HETATM    3  C4  UNL     1      40.593  74.844  60.004  1.00  0.00     0.169 C 
BRANCH   3   4
HETATM    4  C3  UNL     1      39.762  73.859  59.259  1.00  0.00     0.032 C 
HETATM    5  C2  UNL     1      40.219  72.640  59.053  1.00  0.00     0.078 C 
HETATM    6  N1  UNL     1      41.427  72.136  59.461  1.00  0.00    -0.354 N 
HETATM    7  S1  UNL     1      39.259  71.410  58.160  1.00  0.00    -0.034 SA
HETATM    8  C1  UNL     1      41.970  71.117  59.042  1.00  0.00     0.146 C 
ATOM      9  H1  UNL     1      41.924  72.657  60.183  1.00  0.00     0.166 HD
HETATM   10  S2  UNL     1      41.049  70.242  57.776  1.00  0.00    -0.046 SA
ENDBRANCH   3   4
ENDBRANCH   1   3
BRANCH   1  11
HETATM   11  N3  UNL     1      41.515  74.336  62.202  1.00  0.00    -0.313 N 
HETATM   12  C5  UNL     1      41.657  73.234  62.820  1.00  0.00     0.003 C 
HETATM   13  C6  UNL     1      40.617  72.201  62.761  1.00  0.00     0.054 C 
HETATM   14  C10 UNL     1      42.883  72.985  63.606  1.00  0.00     0.054 C 
HETATM   15  C7  UNL     1      40.689  71.221  63.900  1.00  0.00     0.006 C 
HETATM   16  C8  UNL     1      42.066  70.737  64.210  1.00  0.00     0.001 C 
HETATM   17  C9  UNL     1      43.163  71.493  63.520  1.00  0.00     0.006 C 
ATOM     18  H3  UNL     1      42.276  75.010  62.285  1.00  0.00     0.185 HD
ENDBRANCH   1  11
TORSDOF 3
ENDMDL
MODEL 2
REMARK VINA RESULT: -6.469810044      4.253      5.483
REMARK  3 active torsions:
REMARK  status: ('A' for Active; 'I' for Inactive)
REMARK    1  A    between atoms: C3_5  and  C4_6 
REMARK    2  A    between atoms: C4_6  and  N2_7 
REMARK    3  A    between atoms: N2_7  and  N3_9 
ROOT
HETATM    1  N2  UNL     1      40.755  69.682  64.601  1.00  0.00    -0.333 N 
ATOM      2  H2  UNL     1      41.598  69.178  64.328  1.00  0.00     0.180 HD
ENDROOT
BRANCH   1   3
HETATM    3  C4  UNL     1      40.596  71.073  64.261  1.00  0.00     0.169 C 
BRANCH   3   4
HETATM    4  C3  UNL     1      41.661  71.541  63.331  1.00  0.00     0.032 C 
HETATM    5  C2  UNL     1      41.394  71.682  62.048  1.00  0.00     0.078 C 
HETATM    6  N1  UNL     1      40.195  71.441  61.427  1.00  0.00    -0.354 N 
HETATM    7  S1  UNL     1      42.641  72.242  60.881  1.00  0.00    -0.034 SA
HETATM    8  C1  UNL     1      40.016  71.300  60.220  1.00  0.00     0.146 C 
ATOM      9  H1  UNL     1      39.372  71.372  62.025  1.00  0.00     0.166 HD
HETATM   10  S2  UNL     1      41.499  71.432  59.221  1.00  0.00    -0.046 SA
ENDBRANCH   3   4
ENDBRANCH   1   3
BRANCH   1  11
HETATM   11  N3  UNL     1      39.753  69.037  65.302  1.00  0.00    -0.313 N 
HETATM   12  C5  UNL     1      39.815  67.874  65.810  1.00  0.00     0.003 C 
HETATM   13  C6  UNL     1      41.033  67.065  65.689  1.00  0.00     0.054 C 
HETATM   14  C10 UNL     1      38.650  67.324  66.534  1.00  0.00     0.054 C 
HETATM   15  C7  UNL     1      40.789  65.593  65.876  1.00  0.00     0.006 C 
HETATM   16  C8  UNL     1      39.901  65.257  67.028  1.00  0.00     0.001 C 
HETATM   17  C9  UNL     1      39.199  66.435  67.637  1.00  0.00     0.006 C 
ATOM     18  H3  UNL     1      38.876  69.545  65.423  1.00  0.00     0.185 HD
ENDBRANCH   1  11
TORSDOF 3
ENDMDL
MODEL 3
REMARK VINA RESULT: -6.390557573      4.793      6.271
REMARK  3 active torsions:
REMARK  status: ('A' for Active; 'I' for Inactive)
REMARK    1  A    between atoms: C3_5  and  C4_6 
REMARK    2  A    between atoms: C4_6  and  N2_7 
REMARK    3  A    between atoms: N2_7  and  N3_9 
ROOT
HETATM    1  N2  UNL     1      40.669  69.236  64.567  1.00  0.00    -0.333 N 
ATOM      2  H2  UNL     1      41.233  68.635  63.966  1.00  0.00     0.180 HD
ENDROOT
BRANCH   1   3
HETATM    3  C4  UNL     1      40.891  70.660  64.589  1.00  0.00     0.169 C 
BRANCH   3   4
HETATM    4  C3  UNL     1      42.223  71.020  64.029  1.00  0.00     0.032 C 
HETATM    5  C2  UNL     1      42.370  72.147  63.361  1.00  0.00     0.078 C 
HETATM    6  N1  UNL     1      41.399  73.080  63.102  1.00  0.00    -0.354 N 
HETATM    7  S1  UNL     1      43.954  72.631  62.663  1.00  0.00    -0.034 SA
HETATM    8  C1  UNL     1      41.454  73.973  62.260  1.00  0.00     0.146 C 
ATOM      9  H1  UNL     1      40.548  73.028  63.662  1.00  0.00     0.166 HD
HETATM   10  S2  UNL     1      42.972  74.014  61.307  1.00  0.00    -0.046 SA
ENDBRANCH   3   4
ENDBRANCH   1   3
BRANCH   1  11
HETATM   11  N3  UNL     1      39.683  68.692  65.369  1.00  0.00    -0.313 N 
HETATM   12  C5  UNL     1      39.735  67.578  65.978  1.00  0.00     0.003 C 
HETATM   13  C6  UNL     1      40.921  66.719  65.875  1.00  0.00     0.054 C 
HETATM   14  C10 UNL     1      38.591  67.136  66.802  1.00  0.00     0.054 C 
HETATM   15  C7  UNL     1      40.641  65.279  66.207  1.00  0.00     0.006 C 
HETATM   16  C8  UNL     1      39.801  65.079  67.424  1.00  0.00     0.001 C 
HETATM   17  C9  UNL     1      39.166  66.330  67.955  1.00  0.00     0.006 C 
ATOM     18  H3  UNL     1      38.830  69.239  65.484  1.00  0.00     0.185 HD
ENDBRANCH   1  11
TORSDOF 3
ENDMDL
MODEL 4
REMARK VINA RESULT: -6.341367470      1.015      1.249
REMARK  3 active torsions:
REMARK  status: ('A' for Active; 'I' for Inactive)
REMARK    1  A    between atoms: C3_5  and  C4_6 
REMARK    2  A    between atoms: C4_6  and  N2_7 
REMARK    3  A    between atoms: N2_7  and  N3_9 
ROOT
HETATM    1  N2  UNL     1      42.295  74.604  61.927  1.00  0.00    -0.333 N 
ATOM      2  H2  UNL     1      41.747  75.380  62.297  1.00  0.00     0.180 HD
ENDROOT
BRANCH   1   3
HETATM    3  C4  UNL     1      42.473  74.450  60.505  1.00  0.00     0.169 C 
BRANCH   3   4
HETATM    4  C3  UNL     1      41.180  74.199  59.810  1.00  0.00     0.032 C 
HETATM    5  C2  UNL     1      40.860  72.974  59.446  1.00  0.00     0.078 C 
HETATM    6  N1  UNL     1      41.606  71.839  59.636  1.00  0.00    -0.354 N 
HETATM    7  S1  UNL     1      39.313  72.614  58.603  1.00  0.00    -0.034 SA
HETATM    8  C1  UNL     1      41.453  70.763  59.064  1.00  0.00     0.146 C 
ATOM      9  H1  UNL     1      42.362  71.893  60.319  1.00  0.00     0.166 HD
HETATM   10  S2  UNL     1      40.109  70.728  57.877  1.00  0.00    -0.046 SA
ENDBRANCH   3   4
ENDBRANCH   1   3
BRANCH   1  11
HETATM   11  N3  UNL     1      42.876  73.688  62.785  1.00  0.00    -0.313 N 
HETATM   12  C5  UNL     1      42.296  72.705  63.345  1.00  0.00     0.003 C 
HETATM   13  C6  UNL     1      40.872  72.442  63.113  1.00  0.00     0.054 C 
HETATM   14  C10 UNL     1      43.062  71.813  64.240  1.00  0.00     0.054 C 
HETATM   15  C7  UNL     1      40.240  71.604  64.191  1.00  0.00     0.006 C 
HETATM   16  C8  UNL     1      41.056  70.429  64.615  1.00  0.00     0.001 C 
HETATM   17  C9  UNL     1      42.462  70.424  64.092  1.00  0.00     0.006 C 
ATOM     18  H3  UNL     1      43.867  73.814  62.989  1.00  0.00     0.185 HD
ENDBRANCH   1  11
TORSDOF 3
ENDMDL
MODEL 5
REMARK VINA RESULT: -6.259235342      0.696      1.457
REMARK  3 active torsions:
REMARK  status: ('A' for Active; 'I' for Inactive)
REMARK    1  A    between atoms: C3_5  and  C4_6 
REMARK    2  A    between atoms: C4_6  and  N2_7 
REMARK    3  A    between atoms: N2_7  and  N3_9 
ROOT
HETATM    1  N2  UNL     1      40.768  74.552  61.946  1.00  0.00    -0.333 N 
ATOM      2  H2  UNL     1      40.704  75.388  62.526  1.00  0.00     0.180 HD
ENDROOT
BRANCH   1   3
HETATM    3  C4  UNL     1      41.115  74.657  60.551  1.00  0.00     0.169 C 
BRANCH   3   4
HETATM    4  C3  UNL     1      40.109  73.991  59.679  1.00  0.00     0.032 C 
HETATM    5  C2  UNL     1      40.294  72.743  59.299  1.00  0.00     0.078 C 
HETATM    6  N1  UNL     1      41.354  71.935  59.623  1.00  0.00    -0.354 N 
HETATM    7  S1  UNL     1      39.113  71.891  58.246  1.00  0.00    -0.034 SA
HETATM    8  C1  UNL     1      41.672  70.891  59.060  1.00  0.00     0.146 C 
ATOM      9  H1  UNL     1      41.935  72.229  60.409  1.00  0.00     0.166 HD
HETATM   10  S2  UNL     1      40.615  70.425  57.689  1.00  0.00    -0.046 SA
ENDBRANCH   3   4
ENDBRANCH   1   3
BRANCH   1  11
HETATM   11  N3  UNL     1      40.523  73.305  62.491  1.00  0.00    -0.313 N 
HETATM   12  C5  UNL     1      41.385  72.517  62.992  1.00  0.00     0.003 C 
HETATM   13  C6  UNL     1      42.804  72.887  63.038  1.00  0.00     0.054 C 
HETATM   14  C10 UNL     1      40.959  71.211  63.537  1.00  0.00     0.054 C 
HETATM   15  C7  UNL     1      43.722  71.704  63.175  1.00  0.00     0.006 C 
HETATM   16  C8  UNL     1      43.282  70.697  64.184  1.00  0.00     0.001 C 
HETATM   17  C9  UNL     1      41.888  70.898  64.699  1.00  0.00     0.006 C 
ATOM     18  H3  UNL     1      39.554  72.985  62.490  1.00  0.00     0.185 HD
ENDBRANCH   1  11
TORSDOF 3
ENDMDL
