MODEL 1
REMARK VINA RESULT: -5.561403015      0.000      0.000
REMARK  4 active torsions:
REMARK  status: ('A' for Active; 'I' for Inactive)
REMARK    1  A    between atoms: C2_2  and  C3_3 
REMARK    2  A    between atoms: C3_3  and  S1_4 
REMARK    3  A    between atoms: C3_3  and  C5_6 
REMARK    4  A    between atoms: N3_13  and  C7_14 
ROOT
HETATM    1  C5  UNL     1      42.549  72.338  61.456  1.00  0.00     0.114 A 
HETATM    2  N1  UNL     1      43.283  72.290  60.348  1.00  0.00    -0.286 N 
ATOM      3  H1  UNL     1      44.266  72.557  60.301  1.00  0.00     0.188 HD
HETATM    4  N2  UNL     1      42.580  71.856  59.314  1.00  0.00    -0.275 N 
ATOM      5  H2  UNL     1      42.904  71.727  58.355  1.00  0.00     0.189 HD
HETATM    6  C6  UNL     1      41.345  71.619  59.801  1.00  0.00     0.194 A 
HETATM    7  S2  UNL     1      40.123  71.057  58.854  1.00  0.00    -0.039 SA
HETATM    8  N3  UNL     1      41.319  71.912  61.113  1.00  0.00    -0.306 N 
ENDROOT
BRANCH   1   9
HETATM    9  C3  UNL     1      43.012  72.775  62.800  1.00  0.00     0.115 C 
BRANCH   9  10
HETATM   10  C2  UNL     1      44.152  71.870  63.230  1.00  0.00     0.018 C 
HETATM   11  C1  UNL     1      43.736  70.809  64.192  1.00  0.00     0.006 C 
ENDBRANCH   9  10
BRANCH   9  12
HETATM   12  S1  UNL     1      43.646  74.445  62.669  1.00  0.00    -0.161 SA
HETATM   13  C4  UNL     1      45.412  74.515  62.357  1.00  0.00     0.090 C 
ENDBRANCH   9  12
ENDBRANCH   1   9
BRANCH   8  14
HETATM   14  C7  UNL     1      40.166  71.778  61.950  1.00  0.00     0.085 C 
HETATM   15  C8  UNL     1      39.598  73.167  62.168  1.00  0.00     0.032 C 
HETATM   16  C9  UNL     1      40.418  71.173  63.283  1.00  0.00     0.032 C 
ENDBRANCH   8  14
TORSDOF 4
ENDMDL
MODEL 2
REMARK VINA RESULT: -5.397139220      1.822      4.639
REMARK  4 active torsions:
REMARK  status: ('A' for Active; 'I' for Inactive)
REMARK    1  A    between atoms: C2_2  and  C3_3 
REMARK    2  A    between atoms: C3_3  and  S1_4 
REMARK    3  A    between atoms: C3_3  and  C5_6 
REMARK    4  A    between atoms: N3_13  and  C7_14 
ROOT
HETATM    1  C5  UNL     1      42.151  73.057  60.104  1.00  0.00     0.114 A 
HETATM    2  N1  UNL     1      43.019  73.448  59.174  1.00  0.00    -0.286 N 
ATOM      3  H1  UNL     1      42.880  73.321  58.172  1.00  0.00     0.188 HD
HETATM    4  N2  UNL     1      44.084  74.023  59.711  1.00  0.00    -0.275 N 
ATOM      5  H2  UNL     1      44.893  74.409  59.222  1.00  0.00     0.189 HD
HETATM    6  C6  UNL     1      43.871  73.989  61.042  1.00  0.00     0.194 A 
HETATM    7  S2  UNL     1      44.953  74.602  62.118  1.00  0.00    -0.039 SA
HETATM    8  N3  UNL     1      42.688  73.399  61.289  1.00  0.00    -0.306 N 
ENDROOT
BRANCH   1   9
HETATM    9  C3  UNL     1      40.850  72.379  59.862  1.00  0.00     0.115 C 
BRANCH   9  10
HETATM   10  C2  UNL     1      39.990  73.290  59.003  1.00  0.00     0.018 C 
HETATM   11  C1  UNL     1      39.542  74.523  59.712  1.00  0.00     0.006 C 
ENDBRANCH   9  10
BRANCH   9  12
HETATM   12  S1  UNL     1      41.154  70.872  58.942  1.00  0.00    -0.161 SA
HETATM   13  C4  UNL     1      39.930  70.554  57.669  1.00  0.00     0.090 C 
ENDBRANCH   9  12
ENDBRANCH   1   9
BRANCH   8  14
HETATM   14  C7  UNL     1      42.142  73.195  62.597  1.00  0.00     0.085 C 
HETATM   15  C8  UNL     1      41.995  71.699  62.800  1.00  0.00     0.032 C 
HETATM   16  C9  UNL     1      40.817  73.821  62.834  1.00  0.00     0.032 C 
ENDBRANCH   8  14
TORSDOF 4
ENDMDL
MODEL 3
REMARK VINA RESULT: -5.376436314      2.443      4.010
REMARK  4 active torsions:
REMARK  status: ('A' for Active; 'I' for Inactive)
REMARK    1  A    between atoms: C2_2  and  C3_3 
REMARK    2  A    between atoms: C3_3  and  S1_4 
REMARK    3  A    between atoms: C3_3  and  C5_6 
REMARK    4  A    between atoms: N3_13  and  C7_14 
ROOT
HETATM    1  C5  UNL     1      40.948  72.091  63.027  1.00  0.00     0.114 A 
HETATM    2  N1  UNL     1      40.023  72.940  63.465  1.00  0.00    -0.286 N 
ATOM      3  H1  UNL     1      39.554  72.862  64.367  1.00  0.00     0.188 HD
HETATM    4  N2  UNL     1      39.785  73.900  62.585  1.00  0.00    -0.275 N 
ATOM      5  H2  UNL     1      39.125  74.673  62.673  1.00  0.00     0.189 HD
HETATM    6  C6  UNL     1      40.603  73.637  61.546  1.00  0.00     0.194 A 
HETATM    7  S2  UNL     1      40.647  74.586  60.203  1.00  0.00    -0.039 SA
HETATM    8  N3  UNL     1      41.319  72.530  61.811  1.00  0.00    -0.306 N 
ENDROOT
BRANCH   1   9
HETATM    9  C3  UNL     1      41.460  70.899  63.753  1.00  0.00     0.115 C 
BRANCH   9  10
HETATM   10  C2  UNL     1      42.736  71.292  64.478  1.00  0.00     0.018 C 
HETATM   11  C1  UNL     1      43.841  70.306  64.308  1.00  0.00     0.006 C 
ENDBRANCH   9  10
BRANCH   9  12
HETATM   12  S1  UNL     1      40.250  70.415  64.982  1.00  0.00    -0.161 SA
HETATM   13  C4  UNL     1      40.116  68.638  65.191  1.00  0.00     0.090 C 
ENDBRANCH   9  12
ENDBRANCH   1   9
BRANCH   8  14
HETATM   14  C7  UNL     1      42.289  71.961  60.925  1.00  0.00     0.085 C 
HETATM   15  C8  UNL     1      43.477  72.903  60.885  1.00  0.00     0.032 C 
HETATM   16  C9  UNL     1      41.826  71.750  59.530  1.00  0.00     0.032 C 
ENDBRANCH   8  14
TORSDOF 4
ENDMDL
MODEL 4
REMARK VINA RESULT: -5.230676674      1.908      2.633
REMARK  4 active torsions:
REMARK  status: ('A' for Active; 'I' for Inactive)
REMARK    1  A    between atoms: C2_2  and  C3_3 
REMARK    2  A    between atoms: C3_3  and  S1_4 
REMARK    3  A    between atoms: C3_3  and  C5_6 
REMARK    4  A    between atoms: N3_13  and  C7_14 
ROOT
HETATM    1  C5  UNL     1      41.525  73.445  62.184  1.00  0.00     0.114 A 
HETATM    2  N1  UNL     1      41.125  74.712  62.259  1.00  0.00    -0.286 N 
ATOM      3  H1  UNL     1      41.354  75.340  63.029  1.00  0.00     0.188 HD
HETATM    4  N2  UNL     1      40.394  75.056  61.210  1.00  0.00    -0.275 N 
ATOM      5  H2  UNL     1      39.967  75.963  61.023  1.00  0.00     0.189 HD
HETATM    6  C6  UNL     1      40.334  73.949  60.443  1.00  0.00     0.194 A 
HETATM    7  S2  UNL     1      39.515  73.915  59.016  1.00  0.00    -0.039 SA
HETATM    8  N3  UNL     1      41.026  72.958  61.034  1.00  0.00    -0.306 N 
ENDROOT
BRANCH   1   9
HETATM    9  C3  UNL     1      42.360  72.727  63.184  1.00  0.00     0.115 C 
BRANCH   9  10
HETATM   10  C2  UNL     1      41.703  71.391  63.483  1.00  0.00     0.018 C 
HETATM   11  C1  UNL     1      42.559  70.477  64.292  1.00  0.00     0.006 C 
ENDBRANCH   9  10
BRANCH   9  12
HETATM   12  S1  UNL     1      43.967  72.406  62.460  1.00  0.00    -0.161 SA
HETATM   13  C4  UNL     1      44.546  73.727  61.394  1.00  0.00     0.090 C 
ENDBRANCH   9  12
ENDBRANCH   1   9
BRANCH   8  14
HETATM   14  C7  UNL     1      41.175  71.640  60.494  1.00  0.00     0.085 C 
HETATM   15  C8  UNL     1      42.028  71.753  59.246  1.00  0.00     0.032 C 
HETATM   16  C9  UNL     1      39.907  70.962  60.123  1.00  0.00     0.032 C 
ENDBRANCH   8  14
TORSDOF 4
ENDMDL
MODEL 5
REMARK VINA RESULT: -5.216665429      1.608      1.657
REMARK  4 active torsions:
REMARK  status: ('A' for Active; 'I' for Inactive)
REMARK    1  A    between atoms: C2_2  and  C3_3 
REMARK    2  A    between atoms: C3_3  and  S1_4 
REMARK    3  A    between atoms: C3_3  and  C5_6 
REMARK    4  A    between atoms: N3_13  and  C7_14 
ROOT
HETATM    1  C5  UNL     1      42.301  73.827  61.232  1.00  0.00     0.114 A 
HETATM    2  N1  UNL     1      42.779  74.453  60.160  1.00  0.00    -0.286 N 
ATOM      3  H1  UNL     1      43.724  74.829  60.091  1.00  0.00     0.188 HD
HETATM    4  N2  UNL     1      41.876  74.528  59.195  1.00  0.00    -0.275 N 
ATOM      5  H2  UNL     1      41.986  74.955  58.275  1.00  0.00     0.189 HD
HETATM    6  C6  UNL     1      40.780  73.918  59.689  1.00  0.00     0.194 A 
HETATM    7  S2  UNL     1      39.391  73.773  58.820  1.00  0.00    -0.039 SA
HETATM    8  N3  UNL     1      41.034  73.485  60.937  1.00  0.00    -0.306 N 
ENDROOT
BRANCH   1   9
HETATM    9  C3  UNL     1      43.037  73.565  62.498  1.00  0.00     0.115 C 
BRANCH   9  10
HETATM   10  C2  UNL     1      43.758  72.235  62.364  1.00  0.00     0.018 C 
HETATM   11  C1  UNL     1      43.752  71.428  63.618  1.00  0.00     0.006 C 
ENDBRANCH   9  10
BRANCH   9  12
HETATM   12  S1  UNL     1      44.270  74.846  62.718  1.00  0.00    -0.161 SA
HETATM   13  C4  UNL     1      45.942  74.293  62.378  1.00  0.00     0.090 C 
ENDBRANCH   9  12
ENDBRANCH   1   9
BRANCH   8  14
HETATM   14  C7  UNL     1      40.091  72.792  61.762  1.00  0.00     0.085 C 
HETATM   15  C8  UNL     1      40.082  73.476  63.116  1.00  0.00     0.032 C 
HETATM   16  C9  UNL     1      40.380  71.352  61.979  1.00  0.00     0.032 C 
ENDBRANCH   8  14
TORSDOF 4
ENDMDL
