MODEL 1
REMARK VINA RESULT: -6.976110656      0.000      0.000
REMARK  4 active torsions:
REMARK  status: ('A' for Active; 'I' for Inactive)
REMARK    1  A    between atoms: O1_1  and  N1_3 
REMARK    2  A    between atoms: C1_5  and  C2_6 
REMARK    3  A    between atoms: C1_5  and  C9_13 
REMARK    4  A    between atoms: C2_6  and  C3_7 
ROOT
HETATM    1  N1  UNL     1      40.378  74.185  59.951  1.00  0.00    -0.272 N 
ATOM      2  H1  UNL     1      40.372  74.401  58.954  1.00  0.00     0.194 HD
HETATM    3  C1  UNL     1      40.382  72.962  60.359  1.00  0.00     0.050 C 
ENDROOT
BRANCH   3   4
HETATM    4  C2  UNL     1      40.391  72.673  61.788  1.00  0.00     0.065 C 
BRANCH   4   5
HETATM    5  C3  UNL     1      41.437  71.700  62.260  1.00  0.00    -0.009 C 
HETATM    6  C4  UNL     1      42.723  72.489  62.429  1.00  0.00     0.005 C 
HETATM    7  C5  UNL     1      43.813  71.659  63.061  1.00  0.00     0.000 C 
HETATM    8  C6  UNL     1      43.341  71.334  64.464  1.00  0.00     0.000 C 
HETATM    9  C7  UNL     1      42.144  70.417  64.294  1.00  0.00     0.000 C 
HETATM   10  C8  UNL     1      41.023  71.179  63.629  1.00  0.00     0.005 C 
ENDBRANCH   4   5
ENDBRANCH   3   4
BRANCH   3  11
HETATM   11  C9  UNL     1      40.351  71.947  59.290  1.00  0.00     0.045 A 
HETATM   12  C10 UNL     1      39.359  71.610  58.406  1.00  0.00     0.109 A 
HETATM   13  N2  UNL     1      39.599  70.673  57.547  1.00  0.00    -0.368 N 
HETATM   14  C11 UNL     1      40.774  70.065  57.539  1.00  0.00     0.138 A 
ATOM     15  H2  UNL     1      38.881  70.401  56.876  1.00  0.00     0.165 HD
HETATM   16  S1  UNL     1      41.599  70.853  58.809  1.00  0.00    -0.082 SA
ENDBRANCH   3  11
BRANCH   1  17
HETATM   17  O1  UNL     1      40.383  75.189  60.882  1.00  0.00    -0.290 OA
ATOM     18  H1  UNL     1      40.751  76.032  60.643  1.00  0.00     0.244 HD
ENDBRANCH   1  17
TORSDOF 4
ENDMDL
MODEL 2
REMARK VINA RESULT: -6.972447910      1.115      1.183
REMARK  4 active torsions:
REMARK  status: ('A' for Active; 'I' for Inactive)
REMARK    1  A    between atoms: O1_1  and  N1_3 
REMARK    2  A    between atoms: C1_5  and  C2_6 
REMARK    3  A    between atoms: C1_5  and  C9_13 
REMARK    4  A    between atoms: C2_6  and  C3_7 
ROOT
HETATM    1  N1  UNL     1      39.548  73.284  59.019  1.00  0.00    -0.272 N 
ATOM      2  H1  UNL     1      39.592  73.438  58.011  1.00  0.00     0.194 HD
HETATM    3  C1  UNL     1      39.861  72.140  59.523  1.00  0.00     0.050 C 
ENDROOT
BRANCH   3   4
HETATM    4  C2  UNL     1      39.792  71.937  60.965  1.00  0.00     0.065 C 
BRANCH   4   5
HETATM    5  C3  UNL     1      41.040  71.414  61.621  1.00  0.00    -0.009 C 
HETATM    6  C4  UNL     1      42.087  72.508  61.503  1.00  0.00     0.005 C 
HETATM    7  C5  UNL     1      43.341  72.171  62.272  1.00  0.00     0.000 C 
HETATM    8  C6  UNL     1      42.945  72.134  63.736  1.00  0.00     0.000 C 
HETATM    9  C7  UNL     1      42.016  70.943  63.881  1.00  0.00     0.000 C 
HETATM   10  C8  UNL     1      40.750  71.200  63.100  1.00  0.00     0.005 C 
ENDBRANCH   4   5
ENDBRANCH   3   4
BRANCH   3  11
HETATM   11  C9  UNL     1      40.248  71.109  58.542  1.00  0.00     0.045 A 
HETATM   12  C10 UNL     1      39.521  70.498  57.553  1.00  0.00     0.109 A 
HETATM   13  N2  UNL     1      40.115  69.619  56.813  1.00  0.00    -0.368 N 
HETATM   14  C11 UNL     1      41.389  69.330  57.018  1.00  0.00     0.138 A 
ATOM     15  H2  UNL     1      39.600  69.148  56.069  1.00  0.00     0.165 HD
HETATM   16  S1  UNL     1      41.786  70.350  58.328  1.00  0.00    -0.082 SA
ENDBRANCH   3  11
BRANCH   1  17
HETATM   17  O1  UNL     1      39.154  74.289  59.861  1.00  0.00    -0.290 OA
ATOM     18  H1  UNL     1      39.792  74.944  60.120  1.00  0.00     0.244 HD
ENDBRANCH   1  17
TORSDOF 4
ENDMDL
MODEL 3
REMARK VINA RESULT: -6.885050416      0.819      1.566
REMARK  4 active torsions:
REMARK  status: ('A' for Active; 'I' for Inactive)
REMARK    1  A    between atoms: O1_1  and  N1_3 
REMARK    2  A    between atoms: C1_5  and  C2_6 
REMARK    3  A    between atoms: C1_5  and  C9_13 
REMARK    4  A    between atoms: C2_6  and  C3_7 
ROOT
HETATM    1  N1  UNL     1      40.280  74.107  61.034  1.00  0.00    -0.272 N 
ATOM      2  H1  UNL     1      39.377  74.234  60.578  1.00  0.00     0.194 HD
HETATM    3  C1  UNL     1      41.078  73.166  60.660  1.00  0.00     0.050 C 
ENDROOT
BRANCH   3   4
HETATM    4  C2  UNL     1      42.365  72.998  61.323  1.00  0.00     0.065 C 
BRANCH   4   5
HETATM    5  C3  UNL     1      42.318  72.546  62.757  1.00  0.00    -0.009 C 
HETATM    6  C4  UNL     1      41.326  71.397  62.820  1.00  0.00     0.005 C 
HETATM    7  C5  UNL     1      41.311  70.742  64.179  1.00  0.00     0.000 C 
HETATM    8  C6  UNL     1      42.680  70.116  64.365  1.00  0.00     0.000 C 
HETATM    9  C7  UNL     1      43.654  71.276  64.455  1.00  0.00     0.000 C 
HETATM   10  C8  UNL     1      43.690  72.002  63.133  1.00  0.00     0.005 C 
ENDBRANCH   4   5
ENDBRANCH   3   4
BRANCH   3  11
HETATM   11  C9  UNL     1      40.568  72.310  59.573  1.00  0.00     0.045 A 
HETATM   12  C10 UNL     1      39.416  72.395  58.833  1.00  0.00     0.109 A 
HETATM   13  N2  UNL     1      39.213  71.505  57.917  1.00  0.00    -0.368 N 
HETATM   14  C11 UNL     1      40.100  70.546  57.713  1.00  0.00     0.138 A 
ATOM     15  H2  UNL     1      38.366  71.542  57.350  1.00  0.00     0.165 HD
HETATM   16  S1  UNL     1      41.299  70.908  58.874  1.00  0.00    -0.082 SA
ENDBRANCH   3  11
BRANCH   1  17
HETATM   17  O1  UNL     1      40.669  74.933  62.054  1.00  0.00    -0.290 OA
ATOM     18  H1  UNL     1      41.320  74.620  62.671  1.00  0.00     0.244 HD
ENDBRANCH   1  17
TORSDOF 4
ENDMDL
MODEL 4
REMARK VINA RESULT: -6.547494731      1.359      1.995
REMARK  4 active torsions:
REMARK  status: ('A' for Active; 'I' for Inactive)
REMARK    1  A    between atoms: O1_1  and  N1_3 
REMARK    2  A    between atoms: C1_5  and  C2_6 
REMARK    3  A    between atoms: C1_5  and  C9_13 
REMARK    4  A    between atoms: C2_6  and  C3_7 
ROOT
HETATM    1  N1  UNL     1      39.535  74.052  59.578  1.00  0.00    -0.272 N 
ATOM      2  H1  UNL     1      39.889  74.231  58.639  1.00  0.00     0.194 HD
HETATM    3  C1  UNL     1      39.776  72.931  60.168  1.00  0.00     0.050 C 
ENDROOT
BRANCH   3   4
HETATM    4  C2  UNL     1      39.263  72.691  61.511  1.00  0.00     0.065 C 
BRANCH   4   5
HETATM    5  C3  UNL     1      40.267  72.777  62.628  1.00  0.00    -0.009 C 
HETATM    6  C4  UNL     1      40.921  71.410  62.735  1.00  0.00     0.005 C 
HETATM    7  C5  UNL     1      42.070  71.410  63.712  1.00  0.00     0.000 C 
HETATM    8  C6  UNL     1      43.125  72.328  63.127  1.00  0.00     0.000 C 
HETATM    9  C7  UNL     1      42.526  73.721  63.164  1.00  0.00     0.000 C 
HETATM   10  C8  UNL     1      41.342  73.780  62.231  1.00  0.00     0.005 C 
ENDBRANCH   4   5
ENDBRANCH   3   4
BRANCH   3  11
HETATM   11  C9  UNL     1      40.557  71.963  59.375  1.00  0.00     0.045 A 
HETATM   12  C10 UNL     1      41.908  71.729  59.329  1.00  0.00     0.109 A 
HETATM   13  N2  UNL     1      42.339  70.798  58.540  1.00  0.00    -0.368 N 
HETATM   14  C11 UNL     1      41.487  70.104  57.805  1.00  0.00     0.138 A 
ATOM     15  H2  UNL     1      43.338  70.600  58.485  1.00  0.00     0.165 HD
HETATM   16  S1  UNL     1      39.986  70.790  58.242  1.00  0.00    -0.082 SA
ENDBRANCH   3  11
BRANCH   1  17
HETATM   17  O1  UNL     1      38.796  74.997  60.238  1.00  0.00    -0.290 OA
ATOM     18  H1  UNL     1      38.919  75.911  60.014  1.00  0.00     0.244 HD
ENDBRANCH   1  17
TORSDOF 4
ENDMDL
MODEL 5
REMARK VINA RESULT: -6.474461094      1.462      1.475
REMARK  4 active torsions:
REMARK  status: ('A' for Active; 'I' for Inactive)
REMARK    1  A    between atoms: O1_1  and  N1_3 
REMARK    2  A    between atoms: C1_5  and  C2_6 
REMARK    3  A    between atoms: C1_5  and  C9_13 
REMARK    4  A    between atoms: C2_6  and  C3_7 
ROOT
HETATM    1  N1  UNL     1      42.907  73.476  59.143  1.00  0.00    -0.272 N 
ATOM      2  H1  UNL     1      43.005  73.366  58.133  1.00  0.00     0.194 HD
HETATM    3  C1  UNL     1      42.002  72.825  59.790  1.00  0.00     0.050 C 
ENDROOT
BRANCH   3   4
HETATM    4  C2  UNL     1      41.876  72.994  61.232  1.00  0.00     0.065 C 
BRANCH   4   5
HETATM    5  C3  UNL     1      42.229  71.797  62.072  1.00  0.00    -0.009 C 
HETATM    6  C4  UNL     1      43.571  72.097  62.718  1.00  0.00     0.005 C 
HETATM    7  C5  UNL     1      43.961  71.041  63.722  1.00  0.00     0.000 C 
HETATM    8  C6  UNL     1      42.939  71.119  64.839  1.00  0.00     0.000 C 
HETATM    9  C7  UNL     1      41.625  70.670  64.227  1.00  0.00     0.000 C 
HETATM   10  C8  UNL     1      41.194  71.669  63.182  1.00  0.00     0.005 C 
ENDBRANCH   4   5
ENDBRANCH   3   4
BRANCH   3  11
HETATM   11  C9  UNL     1      41.140  71.962  58.961  1.00  0.00     0.045 A 
HETATM   12  C10 UNL     1      39.825  72.098  58.596  1.00  0.00     0.109 A 
HETATM   13  N2  UNL     1      39.304  71.186  57.841  1.00  0.00    -0.368 N 
HETATM   14  C11 UNL     1      40.034  70.159  57.441  1.00  0.00     0.138 A 
ATOM     15  H2  UNL     1      38.329  71.260  57.552  1.00  0.00     0.165 HD
HETATM   16  S1  UNL     1      41.546  70.483  58.164  1.00  0.00    -0.082 SA
ENDBRANCH   3  11
BRANCH   1  17
HETATM   17  O1  UNL     1      43.735  74.318  59.836  1.00  0.00    -0.290 OA
ATOM     18  H1  UNL     1      44.328  74.878  59.350  1.00  0.00     0.244 HD
ENDBRANCH   1  17
TORSDOF 4
ENDMDL
