MODEL 1
REMARK VINA RESULT: -6.551019548      0.000      0.000
REMARK  4 active torsions:
REMARK  status: ('A' for Active; 'I' for Inactive)
REMARK    1  A    between atoms: C2_2  and  C3_3 
REMARK    2  A    between atoms: C3_3  and  S1_6 
REMARK    3  A    between atoms: S1_6  and  C6_7 
REMARK    4  A    between atoms: N1_14  and  O2_16 
ROOT
HETATM    1  C6  UNL     1      41.257  72.185  60.395  1.00  0.00     0.231 C 
HETATM    2  O1  UNL     1      40.763  73.455  60.334  1.00  0.00    -0.365 OA
HETATM    3  C7  UNL     1      40.076  73.772  59.186  1.00  0.00     0.119 C 
HETATM    4  C8  UNL     1      39.133  74.919  59.494  1.00  0.00     0.039 C 
HETATM    5  C9  UNL     1      39.213  72.643  58.667  1.00  0.00     0.037 C 
HETATM    6  C10 UNL     1      40.039  71.427  58.289  1.00  0.00     0.060 C 
HETATM    7  C11 UNL     1      41.217  71.402  59.161  1.00  0.00     0.048 C 
HETATM    8  N1  UNL     1      42.223  70.677  58.820  1.00  0.00    -0.274 N 
ATOM      9  H1  UNL     1      43.038  70.669  59.433  1.00  0.00     0.193 HD
ENDROOT
BRANCH   1  10
HETATM   10  S1  UNL     1      42.961  72.303  61.067  1.00  0.00    -0.118 SA
BRANCH  10  11
HETATM   11  C3  UNL     1      42.797  72.360  62.870  1.00  0.00     0.021 C 
HETATM   12  C4  UNL     1      42.754  73.804  63.317  1.00  0.00     0.031 C 
HETATM   13  C5  UNL     1      41.468  71.664  63.199  1.00  0.00     0.031 C 
BRANCH  11  14
HETATM   14  C2  UNL     1      43.911  71.631  63.542  1.00  0.00    -0.017 C 
HETATM   15  C1  UNL     1      43.604  70.583  64.270  1.00  0.00     0.008 C 
ENDBRANCH  11  14
ENDBRANCH  10  11
ENDBRANCH   1  10
BRANCH   8  16
HETATM   16  O2  UNL     1      42.264  69.914  57.679  1.00  0.00    -0.290 OA
ATOM     17  H2  UNL     1      42.924  69.252  57.509  1.00  0.00     0.244 HD
ENDBRANCH   8  16
TORSDOF 4
ENDMDL
MODEL 2
REMARK VINA RESULT: -6.219067973      0.379      1.578
REMARK  4 active torsions:
REMARK  status: ('A' for Active; 'I' for Inactive)
REMARK    1  A    between atoms: C2_2  and  C3_3 
REMARK    2  A    between atoms: C3_3  and  S1_6 
REMARK    3  A    between atoms: S1_6  and  C6_7 
REMARK    4  A    between atoms: N1_14  and  O2_16 
ROOT
HETATM    1  C6  UNL     1      41.243  72.186  60.361  1.00  0.00     0.231 C 
HETATM    2  O1  UNL     1      40.744  73.454  60.301  1.00  0.00    -0.365 OA
HETATM    3  C7  UNL     1      40.055  73.768  59.153  1.00  0.00     0.119 C 
HETATM    4  C8  UNL     1      39.108  74.911  59.461  1.00  0.00     0.039 C 
HETATM    5  C9  UNL     1      39.197  72.635  58.634  1.00  0.00     0.037 C 
HETATM    6  C10 UNL     1      40.027  71.423  58.256  1.00  0.00     0.060 C 
HETATM    7  C11 UNL     1      41.206  71.402  59.127  1.00  0.00     0.048 C 
HETATM    8  N1  UNL     1      42.215  70.682  58.786  1.00  0.00    -0.274 N 
ATOM      9  H1  UNL     1      43.030  70.677  59.399  1.00  0.00     0.193 HD
ENDROOT
BRANCH   1  10
HETATM   10  S1  UNL     1      42.947  72.310  61.033  1.00  0.00    -0.118 SA
BRANCH  10  11
HETATM   11  C3  UNL     1      42.787  72.303  62.837  1.00  0.00     0.021 C 
HETATM   12  C4  UNL     1      41.552  71.520  63.221  1.00  0.00     0.031 C 
HETATM   13  C5  UNL     1      44.046  71.603  63.373  1.00  0.00     0.031 C 
BRANCH  11  14
HETATM   14  C2  UNL     1      42.727  73.689  63.384  1.00  0.00    -0.017 C 
HETATM   15  C1  UNL     1      43.469  74.606  62.810  1.00  0.00     0.008 C 
ENDBRANCH  11  14
ENDBRANCH  10  11
ENDBRANCH   1  10
BRANCH   8  16
HETATM   16  O2  UNL     1      42.258  69.918  57.645  1.00  0.00    -0.290 OA
ATOM     17  H2  UNL     1      43.064  69.646  57.222  1.00  0.00     0.244 HD
ENDBRANCH   8  16
TORSDOF 4
ENDMDL
MODEL 3
REMARK VINA RESULT: -6.114837319      3.227      4.710
REMARK  4 active torsions:
REMARK  status: ('A' for Active; 'I' for Inactive)
REMARK    1  A    between atoms: C2_2  and  C3_3 
REMARK    2  A    between atoms: C3_3  and  S1_6 
REMARK    3  A    between atoms: S1_6  and  C6_7 
REMARK    4  A    between atoms: N1_14  and  O2_16 
ROOT
HETATM    1  C6  UNL     1      42.835  73.701  60.758  1.00  0.00     0.231 C 
HETATM    2  O1  UNL     1      43.229  74.044  59.498  1.00  0.00    -0.365 OA
HETATM    3  C7  UNL     1      44.302  74.901  59.422  1.00  0.00     0.119 C 
HETATM    4  C8  UNL     1      44.963  74.721  58.070  1.00  0.00     0.039 C 
HETATM    5  C9  UNL     1      45.371  74.622  60.457  1.00  0.00     0.037 C 
HETATM    6  C10 UNL     1      44.850  74.795  61.871  1.00  0.00     0.060 C 
HETATM    7  C11 UNL     1      43.423  74.459  61.862  1.00  0.00     0.048 C 
HETATM    8  N1  UNL     1      42.690  74.844  62.846  1.00  0.00    -0.274 N 
ATOM      9  H1  UNL     1      41.699  74.606  62.828  1.00  0.00     0.193 HD
ENDROOT
BRANCH   1  10
HETATM   10  S1  UNL     1      41.001  73.777  60.787  1.00  0.00    -0.118 SA
BRANCH  10  11
HETATM   11  C3  UNL     1      40.443  72.315  61.699  1.00  0.00     0.021 C 
HETATM   12  C4  UNL     1      39.570  72.755  62.853  1.00  0.00     0.031 C 
HETATM   13  C5  UNL     1      39.625  71.478  60.704  1.00  0.00     0.031 C 
BRANCH  11  14
HETATM   14  C2  UNL     1      41.596  71.505  62.188  1.00  0.00    -0.017 C 
HETATM   15  C1  UNL     1      41.678  71.274  63.477  1.00  0.00     0.008 C 
ENDBRANCH  11  14
ENDBRANCH  10  11
ENDBRANCH   1  10
BRANCH   8  16
HETATM   16  O2  UNL     1      43.166  75.558  63.920  1.00  0.00    -0.290 OA
ATOM     17  H2  UNL     1      43.920  75.297  64.435  1.00  0.00     0.244 HD
ENDBRANCH   8  16
TORSDOF 4
ENDMDL
MODEL 4
REMARK VINA RESULT: -6.105914957      2.175      5.125
REMARK  4 active torsions:
REMARK  status: ('A' for Active; 'I' for Inactive)
REMARK    1  A    between atoms: C2_2  and  C3_3 
REMARK    2  A    between atoms: C3_3  and  S1_6 
REMARK    3  A    between atoms: S1_6  and  C6_7 
REMARK    4  A    between atoms: N1_14  and  O2_16 
ROOT
HETATM    1  C6  UNL     1      42.064  72.396  61.936  1.00  0.00     0.231 C 
HETATM    2  O1  UNL     1      41.274  71.569  62.679  1.00  0.00    -0.365 OA
HETATM    3  C7  UNL     1      41.932  70.783  63.596  1.00  0.00     0.119 C 
HETATM    4  C8  UNL     1      40.951  70.398  64.686  1.00  0.00     0.039 C 
HETATM    5  C9  UNL     1      43.077  71.490  64.286  1.00  0.00     0.037 C 
HETATM    6  C10 UNL     1      44.156  71.911  63.307  1.00  0.00     0.060 C 
HETATM    7  C11 UNL     1      43.508  72.180  62.020  1.00  0.00     0.048 C 
HETATM    8  N1  UNL     1      44.232  72.224  60.959  1.00  0.00    -0.274 N 
ATOM      9  H1  UNL     1      43.770  72.410  60.069  1.00  0.00     0.193 HD
ENDROOT
BRANCH   1  10
HETATM   10  S1  UNL     1      41.465  72.297  60.203  1.00  0.00    -0.118 SA
BRANCH  10  11
HETATM   11  C3  UNL     1      40.820  73.939  59.791  1.00  0.00     0.021 C 
HETATM   12  C4  UNL     1      40.428  74.651  61.066  1.00  0.00     0.031 C 
HETATM   13  C5  UNL     1      41.970  74.687  59.099  1.00  0.00     0.031 C 
BRANCH  11  14
HETATM   14  C2  UNL     1      39.661  73.851  58.856  1.00  0.00    -0.017 C 
HETATM   15  C1  UNL     1      39.238  72.655  58.519  1.00  0.00     0.008 C 
ENDBRANCH  11  14
ENDBRANCH  10  11
ENDBRANCH   1  10
BRANCH   8  16
HETATM   16  O2  UNL     1      45.593  72.033  60.954  1.00  0.00    -0.290 OA
ATOM     17  H2  UNL     1      46.107  71.874  61.736  1.00  0.00     0.244 HD
ENDBRANCH   8  16
TORSDOF 4
ENDMDL
MODEL 5
REMARK VINA RESULT: -6.060105527      2.405      5.363
REMARK  4 active torsions:
REMARK  status: ('A' for Active; 'I' for Inactive)
REMARK    1  A    between atoms: C2_2  and  C3_3 
REMARK    2  A    between atoms: C3_3  and  S1_6 
REMARK    3  A    between atoms: S1_6  and  C6_7 
REMARK    4  A    between atoms: N1_14  and  O2_16 
ROOT
HETATM    1  C6  UNL     1      41.701  71.879  62.041  1.00  0.00     0.231 C 
HETATM    2  O1  UNL     1      42.833  72.627  61.907  1.00  0.00    -0.365 OA
HETATM    3  C7  UNL     1      43.661  72.655  63.006  1.00  0.00     0.119 C 
HETATM    4  C8  UNL     1      45.063  72.993  62.539  1.00  0.00     0.039 C 
HETATM    5  C9  UNL     1      43.761  71.325  63.720  1.00  0.00     0.037 C 
HETATM    6  C10 UNL     1      42.420  70.875  64.269  1.00  0.00     0.060 C 
HETATM    7  C11 UNL     1      41.377  71.405  63.386  1.00  0.00     0.048 C 
HETATM    8  N1  UNL     1      40.166  71.449  63.814  1.00  0.00    -0.274 N 
ATOM      9  H1  UNL     1      39.449  71.821  63.192  1.00  0.00     0.193 HD
ENDROOT
BRANCH   1  10
HETATM   10  S1  UNL     1      40.323  72.855  61.319  1.00  0.00    -0.118 SA
BRANCH  10  11
HETATM   11  C3  UNL     1      40.650  72.962  59.540  1.00  0.00     0.021 C 
HETATM   12  C4  UNL     1      39.338  73.105  58.804  1.00  0.00     0.031 C 
HETATM   13  C5  UNL     1      41.510  74.220  59.340  1.00  0.00     0.031 C 
BRANCH  11  14
HETATM   14  C2  UNL     1      41.404  71.772  59.052  1.00  0.00    -0.017 C 
HETATM   15  C1  UNL     1      40.714  70.775  58.549  1.00  0.00     0.008 C 
ENDBRANCH  11  14
ENDBRANCH  10  11
ENDBRANCH   1  10
BRANCH   8  16
HETATM   16  O2  UNL     1      39.781  71.023  65.063  1.00  0.00    -0.290 OA
ATOM     17  H2  UNL     1      38.951  70.599  65.244  1.00  0.00     0.244 HD
ENDBRANCH   8  16
TORSDOF 4
ENDMDL
