MODEL 1
REMARK VINA RESULT: -6.485409811      0.000      0.000
REMARK  5 active torsions:
REMARK  status: ('A' for Active; 'I' for Inactive)
REMARK    1  A    between atoms: C4_4  and  C5_5 
REMARK    2  A    between atoms: C5_5  and  C6_6 
REMARK    3  A    between atoms: C6_6  and  C7_7 
REMARK    4  A    between atoms: C10_10  and  O1_11 
REMARK    5  A    between atoms: O1_11  and  O2_12 
ROOT
HETATM    1  C7  UNL     1      40.413  73.067  61.294  1.00  0.00     0.007 C 
HETATM    2  C8  UNL     1      39.370  72.785  62.354  1.00  0.00     0.027 C 
HETATM    3  C9  UNL     1      39.769  73.899  60.221  1.00  0.00     0.056 C 
HETATM    4  C10 UNL     1      39.807  73.269  58.910  1.00  0.00     0.171 C 
HETATM    5  C11 UNL     1      39.713  71.774  59.026  1.00  0.00     0.109 C 
HETATM    6  S1  UNL     1      40.776  71.489  60.473  1.00  0.00    -0.157 SA
ENDROOT
BRANCH   1   7
HETATM    7  C6  UNL     1      41.647  73.690  61.846  1.00  0.00     0.024 C 
BRANCH   7   8
HETATM    8  C5  UNL     1      41.936  73.436  63.276  1.00  0.00     0.029 C 
BRANCH   8   9
HETATM    9  C4  UNL     1      43.007  72.452  63.548  1.00  0.00    -0.025 C 
HETATM   10  C2  UNL     1      42.745  71.257  64.047  1.00  0.00    -0.091 C 
HETATM   11  C1  UNL     1      41.382  70.772  64.389  1.00  0.00     0.042 C 
HETATM   12  C3  UNL     1      43.857  70.268  64.317  1.00  0.00     0.042 C 
ENDBRANCH   8   9
ENDBRANCH   7   8
ENDBRANCH   1   7
BRANCH   4  13
HETATM   13  O1  UNL     1      38.716  73.692  58.149  1.00  0.00    -0.237 OA
BRANCH  13  14
HETATM   14  O2  UNL     1      38.013  72.675  57.699  1.00  0.00    -0.250 OA
ATOM     15  H2  UNL     1      37.081  72.811  57.822  1.00  0.00     0.253 HD
ENDBRANCH  13  14
ENDBRANCH   4  13
TORSDOF 5
ENDMDL
MODEL 2
REMARK VINA RESULT: -6.467341840      1.732      2.062
REMARK  5 active torsions:
REMARK  status: ('A' for Active; 'I' for Inactive)
REMARK    1  A    between atoms: C4_4  and  C5_5 
REMARK    2  A    between atoms: C5_5  and  C6_6 
REMARK    3  A    between atoms: C6_6  and  C7_7 
REMARK    4  A    between atoms: C10_10  and  O1_11 
REMARK    5  A    between atoms: O1_11  and  O2_12 
ROOT
HETATM    1  C7  UNL     1      41.153  73.619  60.751  1.00  0.00     0.007 C 
HETATM    2  C8  UNL     1      40.737  74.691  59.767  1.00  0.00     0.027 C 
HETATM    3  C9  UNL     1      41.631  72.431  59.965  1.00  0.00     0.056 C 
HETATM    4  C10 UNL     1      40.871  71.221  60.239  1.00  0.00     0.171 C 
HETATM    5  C11 UNL     1      39.435  71.543  60.543  1.00  0.00     0.109 C 
HETATM    6  S1  UNL     1      39.641  73.031  61.566  1.00  0.00    -0.157 SA
ENDROOT
BRANCH   1   7
HETATM    7  C6  UNL     1      42.155  74.098  61.742  1.00  0.00     0.024 C 
BRANCH   7   8
HETATM    8  C5  UNL     1      42.024  73.575  63.122  1.00  0.00     0.029 C 
BRANCH   8   9
HETATM    9  C4  UNL     1      43.019  72.553  63.516  1.00  0.00    -0.025 C 
HETATM   10  C2  UNL     1      42.658  71.345  63.913  1.00  0.00    -0.091 C 
HETATM   11  C1  UNL     1      41.248  70.882  64.011  1.00  0.00     0.042 C 
HETATM   12  C3  UNL     1      43.693  70.317  64.311  1.00  0.00     0.042 C 
ENDBRANCH   8   9
ENDBRANCH   7   8
ENDBRANCH   1   7
BRANCH   4  13
HETATM   13  O1  UNL     1      40.878  70.391  59.117  1.00  0.00    -0.237 OA
BRANCH  13  14
HETATM   14  O2  UNL     1      39.707  70.373  58.519  1.00  0.00    -0.250 OA
ATOM     15  H2  UNL     1      39.695  69.763  57.790  1.00  0.00     0.253 HD
ENDBRANCH  13  14
ENDBRANCH   4  13
TORSDOF 5
ENDMDL
MODEL 3
REMARK VINA RESULT: -6.428892200      2.519      3.685
REMARK  5 active torsions:
REMARK  status: ('A' for Active; 'I' for Inactive)
REMARK    1  A    between atoms: C4_4  and  C5_5 
REMARK    2  A    between atoms: C5_5  and  C6_6 
REMARK    3  A    between atoms: C6_6  and  C7_7 
REMARK    4  A    between atoms: C10_10  and  O1_11 
REMARK    5  A    between atoms: O1_11  and  O2_12 
ROOT
HETATM    1  C7  UNL     1      41.000  71.849  63.057  1.00  0.00     0.007 C 
HETATM    2  C8  UNL     1      42.499  71.646  63.038  1.00  0.00     0.027 C 
HETATM    3  C9  UNL     1      40.436  71.259  61.795  1.00  0.00     0.056 C 
HETATM    4  C10 UNL     1      39.723  72.230  60.979  1.00  0.00     0.171 C 
HETATM    5  C11 UNL     1      40.339  73.595  61.102  1.00  0.00     0.109 C 
HETATM    6  S1  UNL     1      40.704  73.632  62.882  1.00  0.00    -0.157 SA
ENDROOT
BRANCH   1   7
HETATM    7  C6  UNL     1      40.356  71.309  64.285  1.00  0.00     0.024 C 
BRANCH   7   8
HETATM    8  C5  UNL     1      40.737  69.934  64.684  1.00  0.00     0.029 C 
BRANCH   8   9
HETATM    9  C4  UNL     1      39.727  69.194  65.473  1.00  0.00    -0.025 C 
HETATM   10  C2  UNL     1      39.878  67.916  65.775  1.00  0.00    -0.091 C 
HETATM   11  C1  UNL     1      41.046  67.091  65.368  1.00  0.00     0.042 C 
HETATM   12  C3  UNL     1      38.831  67.180  66.581  1.00  0.00     0.042 C 
ENDBRANCH   8   9
ENDBRANCH   7   8
ENDBRANCH   1   7
BRANCH   4  13
HETATM   13  O1  UNL     1      39.798  71.866  59.633  1.00  0.00    -0.237 OA
BRANCH  13  14
HETATM   14  O2  UNL     1      38.820  72.394  58.931  1.00  0.00    -0.250 OA
ATOM     15  H2  UNL     1      38.243  72.920  59.473  1.00  0.00     0.253 HD
ENDBRANCH  13  14
ENDBRANCH   4  13
TORSDOF 5
ENDMDL
MODEL 4
REMARK VINA RESULT: -6.335355742      1.564      1.822
REMARK  5 active torsions:
REMARK  status: ('A' for Active; 'I' for Inactive)
REMARK    1  A    between atoms: C4_4  and  C5_5 
REMARK    2  A    between atoms: C5_5  and  C6_6 
REMARK    3  A    between atoms: C6_6  and  C7_7 
REMARK    4  A    between atoms: C10_10  and  O1_11 
REMARK    5  A    between atoms: O1_11  and  O2_12 
ROOT
HETATM    1  C7  UNL     1      40.488  73.024  60.813  1.00  0.00     0.007 C 
HETATM    2  C8  UNL     1      39.724  71.860  61.405  1.00  0.00     0.027 C 
HETATM    3  C9  UNL     1      39.660  74.264  61.002  1.00  0.00     0.056 C 
HETATM    4  C10 UNL     1      39.324  74.922  59.748  1.00  0.00     0.171 C 
HETATM    5  C11 UNL     1      39.152  73.921  58.641  1.00  0.00     0.109 C 
HETATM    6  S1  UNL     1      40.518  72.781  59.014  1.00  0.00    -0.157 SA
ENDROOT
BRANCH   1   7
HETATM    7  C6  UNL     1      41.863  73.157  61.367  1.00  0.00     0.024 C 
BRANCH   7   8
HETATM    8  C5  UNL     1      41.998  73.063  62.839  1.00  0.00     0.029 C 
BRANCH   8   9
HETATM    9  C4  UNL     1      43.056  72.151  63.327  1.00  0.00    -0.025 C 
HETATM   10  C2  UNL     1      42.772  71.043  63.988  1.00  0.00    -0.091 C 
HETATM   11  C1  UNL     1      41.392  70.592  64.314  1.00  0.00     0.042 C 
HETATM   12  C3  UNL     1      43.871  70.127  64.478  1.00  0.00     0.042 C 
ENDBRANCH   8   9
ENDBRANCH   7   8
ENDBRANCH   1   7
BRANCH   4  13
HETATM   13  O1  UNL     1      38.112  75.602  59.879  1.00  0.00    -0.237 OA
BRANCH  13  14
HETATM   14  O2  UNL     1      38.286  76.905  59.908  1.00  0.00    -0.250 OA
ATOM     15  H2  UNL     1      37.983  77.318  59.108  1.00  0.00     0.253 HD
ENDBRANCH  13  14
ENDBRANCH   4  13
TORSDOF 5
ENDMDL
MODEL 5
REMARK VINA RESULT: -6.317691594      1.725      2.473
REMARK  5 active torsions:
REMARK  status: ('A' for Active; 'I' for Inactive)
REMARK    1  A    between atoms: C4_4  and  C5_5 
REMARK    2  A    between atoms: C5_5  and  C6_6 
REMARK    3  A    between atoms: C6_6  and  C7_7 
REMARK    4  A    between atoms: C10_10  and  O1_11 
REMARK    5  A    between atoms: O1_11  and  O2_12 
ROOT
HETATM    1  C7  UNL     1      40.509  72.295  60.092  1.00  0.00     0.007 C 
HETATM    2  C8  UNL     1      39.941  71.685  58.829  1.00  0.00     0.027 C 
HETATM    3  C9  UNL     1      39.683  73.503  60.434  1.00  0.00     0.056 C 
HETATM    4  C10 UNL     1      40.461  74.732  60.481  1.00  0.00     0.171 C 
HETATM    5  C11 UNL     1      41.583  74.699  59.482  1.00  0.00     0.109 C 
HETATM    6  S1  UNL     1      42.137  72.978  59.666  1.00  0.00    -0.157 SA
ENDROOT
BRANCH   1   7
HETATM    7  C6  UNL     1      40.604  71.323  61.215  1.00  0.00     0.024 C 
BRANCH   7   8
HETATM    8  C5  UNL     1      40.912  71.882  62.552  1.00  0.00     0.029 C 
BRANCH   8   9
HETATM    9  C4  UNL     1      41.705  71.006  63.444  1.00  0.00    -0.025 C 
HETATM   10  C2  UNL     1      43.006  71.168  63.602  1.00  0.00    -0.091 C 
HETATM   11  C1  UNL     1      43.810  72.218  62.921  1.00  0.00     0.042 C 
HETATM   12  C3  UNL     1      43.796  70.260  64.518  1.00  0.00     0.042 C 
ENDBRANCH   8   9
ENDBRANCH   7   8
ENDBRANCH   1   7
BRANCH   4  13
HETATM   13  O1  UNL     1      39.650  75.820  60.152  1.00  0.00    -0.237 OA
BRANCH  13  14
HETATM   14  O2  UNL     1      38.419  75.445  59.883  1.00  0.00    -0.250 OA
ATOM     15  H2  UNL     1      37.795  76.143  60.044  1.00  0.00     0.253 HD
ENDBRANCH  13  14
ENDBRANCH   4  13
TORSDOF 5
ENDMDL
