MODEL 1
REMARK VINA RESULT: -10.690696837      0.000      0.000
REMARK  6 active torsions:
REMARK  status: ('A' for Active; 'I' for Inactive)
REMARK    1  A    between atoms: C2_2  and  C3_3 
REMARK    2  A    between atoms: C3_3  and  N1_4 
REMARK    3  A    between atoms: C3_3  and  C17_19 
REMARK    4  A    between atoms: N1_4  and  C4_6 
REMARK    5  A    between atoms: C4_6  and  C5_7 
REMARK    6  A    between atoms: C8_10  and  C9_11 
ROOT
HETATM    1  C5  UNL     1      44.193   3.249  10.067  1.00  0.00    -0.021 A 
HETATM    2  C6  UNL     1      44.196   4.612  10.060  1.00  0.00     0.013 A 
HETATM    3  C7  UNL     1      45.361   5.341  10.284  1.00  0.00     0.013 A 
HETATM    4  C8  UNL     1      46.547   4.687  10.520  1.00  0.00    -0.026 A 
HETATM    5  C15 UNL     1      46.549   3.309  10.529  1.00  0.00     0.013 A 
HETATM    6  C16 UNL     1      45.373   2.584  10.302  1.00  0.00     0.013 A 
ENDROOT
BRANCH   1   7
HETATM    7  C4  UNL     1      42.953   2.432   9.822  1.00  0.00     0.099 C 
BRANCH   7   8
HETATM    8  N1  UNL     1      43.281   1.104  10.026  1.00  0.00    -0.368 N 
ATOM      9  H1  UNL     1      44.060   0.727   9.485  1.00  0.00     0.165 HD
BRANCH   8  10
HETATM   10  C3  UNL     1      42.639   0.239  10.907  1.00  0.00     0.019 C 
BRANCH  10  11
HETATM   11  C2  UNL     1      42.048  -0.971  10.300  1.00  0.00     0.053 C 
HETATM   12  C1  UNL     1      41.995  -1.081   8.822  1.00  0.00     0.011 C 
ENDBRANCH  10  11
BRANCH  10  13
HETATM   13  C17 UNL     1      43.368  -0.014  12.174  1.00  0.00    -0.014 A 
HETATM   14  C18 UNL     1      43.233  -1.195  12.830  1.00  0.00     0.013 A 
HETATM   15  C19 UNL     1      43.934  -1.384  14.013  1.00  0.00     0.001 A 
HETATM   16  C20 UNL     1      44.748  -0.395  14.508  1.00  0.00     0.000 A 
HETATM   17  C21 UNL     1      44.898   0.814  13.853  1.00  0.00     0.001 A 
HETATM   18  C22 UNL     1      44.179   0.961  12.675  1.00  0.00     0.013 A 
ENDBRANCH  10  13
ENDBRANCH   8  10
ENDBRANCH   7   8
ENDBRANCH   1   7
BRANCH   4  19
HETATM   19  C9  UNL     1      47.773   5.439  10.752  1.00  0.00    -0.026 A 
HETATM   20  C10 UNL     1      48.977   4.828  10.489  1.00  0.00     0.012 A 
HETATM   21  C11 UNL     1      50.156   5.515  10.704  1.00  0.00     0.001 A 
HETATM   22  C12 UNL     1      50.104   6.809  11.181  1.00  0.00     0.000 A 
HETATM   23  C13 UNL     1      48.910   7.447  11.453  1.00  0.00     0.001 A 
HETATM   24  C14 UNL     1      47.738   6.731  11.227  1.00  0.00     0.012 A 
ENDBRANCH   4  19
TORSDOF 6
ENDMDL
MODEL 2
REMARK VINA RESULT: -10.650422047      1.519      3.217
REMARK  6 active torsions:
REMARK  status: ('A' for Active; 'I' for Inactive)
REMARK    1  A    between atoms: C2_2  and  C3_3 
REMARK    2  A    between atoms: C3_3  and  N1_4 
REMARK    3  A    between atoms: C3_3  and  C17_19 
REMARK    4  A    between atoms: N1_4  and  C4_6 
REMARK    5  A    between atoms: C4_6  and  C5_7 
REMARK    6  A    between atoms: C8_10  and  C9_11 
ROOT
HETATM    1  C5  UNL     1      47.338   4.236  10.517  1.00  0.00    -0.021 A 
HETATM    2  C6  UNL     1      48.693   4.304  10.658  1.00  0.00     0.013 A 
HETATM    3  C7  UNL     1      49.340   5.511  10.912  1.00  0.00     0.013 A 
HETATM    4  C8  UNL     1      48.613   6.672  11.026  1.00  0.00    -0.026 A 
HETATM    5  C15 UNL     1      47.243   6.607  10.884  1.00  0.00     0.013 A 
HETATM    6  C16 UNL     1      46.601   5.390  10.629  1.00  0.00     0.013 A 
ENDROOT
BRANCH   1   7
HETATM    7  C4  UNL     1      46.608   2.947  10.250  1.00  0.00     0.099 C 
BRANCH   7   8
HETATM    8  N1  UNL     1      45.896   2.627  11.392  1.00  0.00    -0.368 N 
ATOM      9  H1  UNL     1      46.388   2.694  12.283  1.00  0.00     0.165 HD
BRANCH   8  10
HETATM   10  C3  UNL     1      44.564   2.223  11.427  1.00  0.00     0.019 C 
BRANCH  10  11
HETATM   11  C2  UNL     1      43.859   2.226  10.129  1.00  0.00     0.053 C 
HETATM   12  C1  UNL     1      42.864   3.290   9.855  1.00  0.00     0.011 C 
ENDBRANCH  10  11
BRANCH  10  13
HETATM   13  C17 UNL     1      44.300   1.022  12.257  1.00  0.00    -0.014 A 
HETATM   14  C18 UNL     1      43.568  -0.012  11.770  1.00  0.00     0.013 A 
HETATM   15  C19 UNL     1      43.347  -1.114  12.584  1.00  0.00     0.001 A 
HETATM   16  C20 UNL     1      43.859  -1.155  13.858  1.00  0.00     0.000 A 
HETATM   17  C21 UNL     1      44.607  -0.111  14.371  1.00  0.00     0.001 A 
HETATM   18  C22 UNL     1      44.804   0.970  13.524  1.00  0.00     0.013 A 
ENDBRANCH  10  13
ENDBRANCH   8  10
ENDBRANCH   7   8
ENDBRANCH   1   7
BRANCH   4  19
HETATM   19  C9  UNL     1      49.278   7.939  11.295  1.00  0.00    -0.026 A 
HETATM   20  C10 UNL     1      48.935   8.633  12.431  1.00  0.00     0.012 A 
HETATM   21  C11 UNL     1      49.547   9.840  12.709  1.00  0.00     0.001 A 
HETATM   22  C12 UNL     1      50.496  10.330  11.837  1.00  0.00     0.000 A 
HETATM   23  C13 UNL     1      50.861   9.655  10.689  1.00  0.00     0.001 A 
HETATM   24  C14 UNL     1      50.230   8.441  10.433  1.00  0.00     0.012 A 
ENDBRANCH   4  19
TORSDOF 6
ENDMDL
MODEL 3
REMARK VINA RESULT: -10.630605404      1.517      3.111
REMARK  6 active torsions:
REMARK  status: ('A' for Active; 'I' for Inactive)
REMARK    1  A    between atoms: C2_2  and  C3_3 
REMARK    2  A    between atoms: C3_3  and  N1_4 
REMARK    3  A    between atoms: C3_3  and  C17_19 
REMARK    4  A    between atoms: N1_4  and  C4_6 
REMARK    5  A    between atoms: C4_6  and  C5_7 
REMARK    6  A    between atoms: C8_10  and  C9_11 
ROOT
HETATM    1  C5  UNL     1      47.317   4.246  10.504  1.00  0.00    -0.021 A 
HETATM    2  C6  UNL     1      48.673   4.321  10.633  1.00  0.00     0.013 A 
HETATM    3  C7  UNL     1      49.315   5.526  10.903  1.00  0.00     0.013 A 
HETATM    4  C8  UNL     1      48.582   6.681  11.045  1.00  0.00    -0.026 A 
HETATM    5  C15 UNL     1      47.212   6.610  10.916  1.00  0.00     0.013 A 
HETATM    6  C16 UNL     1      46.574   5.394  10.645  1.00  0.00     0.013 A 
ENDROOT
BRANCH   1   7
HETATM    7  C4  UNL     1      46.591   2.959  10.221  1.00  0.00     0.099 C 
BRANCH   7   8
HETATM    8  N1  UNL     1      45.895   2.612  11.365  1.00  0.00    -0.368 N 
ATOM      9  H1  UNL     1      46.402   2.649  12.249  1.00  0.00     0.165 HD
BRANCH   8  10
HETATM   10  C3  UNL     1      44.561   2.218  11.410  1.00  0.00     0.019 C 
BRANCH  10  11
HETATM   11  C2  UNL     1      43.847   2.222  10.117  1.00  0.00     0.053 C 
HETATM   12  C1  UNL     1      42.840   3.278   9.855  1.00  0.00     0.011 C 
ENDBRANCH  10  11
BRANCH  10  13
HETATM   13  C17 UNL     1      44.292   1.023  12.247  1.00  0.00    -0.014 A 
HETATM   14  C18 UNL     1      43.597  -0.032  11.750  1.00  0.00     0.013 A 
HETATM   15  C19 UNL     1      43.370  -1.127  12.571  1.00  0.00     0.001 A 
HETATM   16  C20 UNL     1      43.841  -1.142  13.861  1.00  0.00     0.000 A 
HETATM   17  C21 UNL     1      44.551  -0.077  14.385  1.00  0.00     0.001 A 
HETATM   18  C22 UNL     1      44.754   0.997  13.530  1.00  0.00     0.013 A 
ENDBRANCH  10  13
ENDBRANCH   8  10
ENDBRANCH   7   8
ENDBRANCH   1   7
BRANCH   4  19
HETATM   19  C9  UNL     1      49.243   7.947  11.331  1.00  0.00    -0.026 A 
HETATM   20  C10 UNL     1      50.170   8.421  10.432  1.00  0.00     0.012 A 
HETATM   21  C11 UNL     1      50.816   9.616  10.679  1.00  0.00     0.001 A 
HETATM   22  C12 UNL     1      50.518  10.317  11.829  1.00  0.00     0.000 A 
HETATM   23  C13 UNL     1      49.592   9.866  12.749  1.00  0.00     0.001 A 
HETATM   24  C14 UNL     1      48.956   8.659  12.475  1.00  0.00     0.012 A 
ENDBRANCH   4  19
TORSDOF 6
ENDMDL
MODEL 4
REMARK VINA RESULT: -10.630407129      0.819      1.263
REMARK  6 active torsions:
REMARK  status: ('A' for Active; 'I' for Inactive)
REMARK    1  A    between atoms: C2_2  and  C3_3 
REMARK    2  A    between atoms: C3_3  and  N1_4 
REMARK    3  A    between atoms: C3_3  and  C17_19 
REMARK    4  A    between atoms: N1_4  and  C4_6 
REMARK    5  A    between atoms: C4_6  and  C5_7 
REMARK    6  A    between atoms: C8_10  and  C9_11 
ROOT
HETATM    1  C5  UNL     1      44.355   3.249   9.736  1.00  0.00    -0.021 A 
HETATM    2  C6  UNL     1      45.369   2.691  10.458  1.00  0.00     0.013 A 
HETATM    3  C7  UNL     1      46.519   3.408  10.775  1.00  0.00     0.013 A 
HETATM    4  C8  UNL     1      46.654   4.712  10.360  1.00  0.00    -0.026 A 
HETATM    5  C15 UNL     1      45.632   5.280   9.629  1.00  0.00     0.013 A 
HETATM    6  C16 UNL     1      44.479   4.551   9.315  1.00  0.00     0.013 A 
ENDROOT
BRANCH   1   7
HETATM    7  C4  UNL     1      43.096   2.503   9.382  1.00  0.00     0.099 C 
BRANCH   7   8
HETATM    8  N1  UNL     1      42.736   1.748  10.483  1.00  0.00    -0.368 N 
ATOM      9  H1  UNL     1      42.361   2.248  11.289  1.00  0.00     0.165 HD
BRANCH   8  10
HETATM   10  C3  UNL     1      42.841   0.364  10.584  1.00  0.00     0.019 C 
BRANCH  10  11
HETATM   11  C2  UNL     1      43.404  -0.323   9.403  1.00  0.00     0.053 C 
HETATM   12  C1  UNL     1      44.840  -0.690   9.403  1.00  0.00     0.011 C 
ENDBRANCH  10  11
BRANCH  10  13
HETATM   13  C17 UNL     1      43.368  -0.128  11.880  1.00  0.00    -0.014 A 
HETATM   14  C18 UNL     1      43.097  -1.388  12.308  1.00  0.00     0.013 A 
HETATM   15  C19 UNL     1      43.611  -1.803  13.527  1.00  0.00     0.001 A 
HETATM   16  C20 UNL     1      44.381  -0.955  14.285  1.00  0.00     0.000 A 
HETATM   17  C21 UNL     1      44.669   0.331  13.866  1.00  0.00     0.001 A 
HETATM   18  C22 UNL     1      44.134   0.705  12.641  1.00  0.00     0.013 A 
ENDBRANCH  10  13
ENDBRANCH   8  10
ENDBRANCH   7   8
ENDBRANCH   1   7
BRANCH   4  19
HETATM   19  C9  UNL     1      47.852   5.474  10.689  1.00  0.00    -0.026 A 
HETATM   20  C10 UNL     1      49.079   4.886  10.490  1.00  0.00     0.012 A 
HETATM   21  C11 UNL     1      50.231   5.583  10.798  1.00  0.00     0.001 A 
HETATM   22  C12 UNL     1      50.129   6.863  11.302  1.00  0.00     0.000 A 
HETATM   23  C13 UNL     1      48.910   7.478  11.512  1.00  0.00     0.001 A 
HETATM   24  C14 UNL     1      47.766   6.754  11.193  1.00  0.00     0.012 A 
ENDBRANCH   4  19
TORSDOF 6
ENDMDL
MODEL 5
REMARK VINA RESULT: -10.621876069      0.821      1.613
REMARK  6 active torsions:
REMARK  status: ('A' for Active; 'I' for Inactive)
REMARK    1  A    between atoms: C2_2  and  C3_3 
REMARK    2  A    between atoms: C3_3  and  N1_4 
REMARK    3  A    between atoms: C3_3  and  C17_19 
REMARK    4  A    between atoms: N1_4  and  C4_6 
REMARK    5  A    between atoms: C4_6  and  C5_7 
REMARK    6  A    between atoms: C8_10  and  C9_11 
ROOT
HETATM    1  C5  UNL     1      44.371   3.258   9.741  1.00  0.00    -0.021 A 
HETATM    2  C6  UNL     1      45.384   2.690  10.456  1.00  0.00     0.013 A 
HETATM    3  C7  UNL     1      46.538   3.401  10.778  1.00  0.00     0.013 A 
HETATM    4  C8  UNL     1      46.677   4.707  10.373  1.00  0.00    -0.026 A 
HETATM    5  C15 UNL     1      45.656   5.285   9.650  1.00  0.00     0.013 A 
HETATM    6  C16 UNL     1      44.499   4.564   9.331  1.00  0.00     0.013 A 
ENDROOT
BRANCH   1   7
HETATM    7  C4  UNL     1      43.109   2.521   9.383  1.00  0.00     0.099 C 
BRANCH   7   8
HETATM    8  N1  UNL     1      42.741   1.766  10.482  1.00  0.00    -0.368 N 
ATOM      9  H1  UNL     1      42.363   2.266  11.287  1.00  0.00     0.165 HD
BRANCH   8  10
HETATM   10  C3  UNL     1      42.844   0.381  10.581  1.00  0.00     0.019 C 
BRANCH  10  11
HETATM   11  C2  UNL     1      43.405  -0.306   9.400  1.00  0.00     0.053 C 
HETATM   12  C1  UNL     1      44.840  -0.679   9.400  1.00  0.00     0.011 C 
ENDBRANCH  10  11
BRANCH  10  13
HETATM   13  C17 UNL     1      43.371  -0.113  11.877  1.00  0.00    -0.014 A 
HETATM   14  C18 UNL     1      43.101  -1.374  12.302  1.00  0.00     0.013 A 
HETATM   15  C19 UNL     1      43.616  -1.790  13.522  1.00  0.00     0.001 A 
HETATM   16  C20 UNL     1      44.383  -0.943  14.282  1.00  0.00     0.000 A 
HETATM   17  C21 UNL     1      44.669   0.345  13.865  1.00  0.00     0.001 A 
HETATM   18  C22 UNL     1      44.134   0.720  12.640  1.00  0.00     0.013 A 
ENDBRANCH  10  13
ENDBRANCH   8  10
ENDBRANCH   7   8
ENDBRANCH   1   7
BRANCH   4  19
HETATM   19  C9  UNL     1      47.878   5.461  10.707  1.00  0.00    -0.026 A 
HETATM   20  C10 UNL     1      47.736   6.742  11.189  1.00  0.00     0.012 A 
HETATM   21  C11 UNL     1      48.858   7.482  11.510  1.00  0.00     0.001 A 
HETATM   22  C12 UNL     1      50.106   6.920  11.340  1.00  0.00     0.000 A 
HETATM   23  C13 UNL     1      50.278   5.637  10.859  1.00  0.00     0.001 A 
HETATM   24  C14 UNL     1      49.132   4.914  10.544  1.00  0.00     0.012 A 
ENDBRANCH   4  19
TORSDOF 6
ENDMDL
