MODEL 1
REMARK VINA RESULT: -9.370785062      0.000      0.000
REMARK  5 active torsions:
REMARK  status: ('A' for Active; 'I' for Inactive)
REMARK    1  A    between atoms: C2_2  and  C3_3 
REMARK    2  A    between atoms: C6_8  and  C7_9 
REMARK    3  A    between atoms: C7_9  and  S1_10 
REMARK    4  A    between atoms: S1_10  and  C8_11 
REMARK    5  A    between atoms: C11_14  and  C12_15 
ROOT
HETATM    1  C8  UNL     1      44.144   2.539  10.062  1.00  0.00     0.000 A 
HETATM    2  C9  UNL     1      45.319   2.092  10.689  1.00  0.00     0.019 A 
HETATM    3  C10 UNL     1      46.398   2.915  10.902  1.00  0.00     0.013 A 
HETATM    4  C11 UNL     1      46.365   4.231  10.500  1.00  0.00    -0.026 A 
HETATM    5  C18 UNL     1      45.224   4.696   9.883  1.00  0.00     0.013 A 
HETATM    6  C19 UNL     1      44.142   3.846   9.677  1.00  0.00     0.019 A 
ENDROOT
BRANCH   1   7
HETATM    7  S1  UNL     1      42.804   1.403   9.863  1.00  0.00    -0.125 SA
BRANCH   7   8
HETATM    8  C7  UNL     1      42.476   0.342  11.245  1.00  0.00     0.120 C 
BRANCH   8   9
HETATM    9  C6  UNL     1      43.345  -0.848  11.324  1.00  0.00    -0.026 A 
HETATM   10  C3  UNL     1      43.771  -1.443  12.511  1.00  0.00    -0.035 A 
HETATM   11  C4  UNL     1      44.527  -2.546  12.240  1.00  0.00     0.095 A 
HETATM   12  N1  UNL     1      44.584  -2.653  10.909  1.00  0.00    -0.374 N 
HETATM   13  C5  UNL     1      43.879  -1.641  10.343  1.00  0.00     0.096 A 
ATOM     14  H1  UNL     1      45.081  -3.383  10.398  1.00  0.00     0.164 HD
BRANCH  10  15
HETATM   15  C2  UNL     1      43.430  -0.929  13.856  1.00  0.00     0.036 C 
HETATM   16  C1  UNL     1      44.452   0.063  14.361  1.00  0.00     0.010 C 
ENDBRANCH  10  15
ENDBRANCH   8   9
ENDBRANCH   7   8
ENDBRANCH   1   7
BRANCH   4  17
HETATM   17  C12 UNL     1      47.525   5.117  10.729  1.00  0.00    -0.026 A 
HETATM   18  C13 UNL     1      47.344   6.435  11.018  1.00  0.00     0.012 A 
HETATM   19  C14 UNL     1      48.440   7.270  11.236  1.00  0.00     0.001 A 
HETATM   20  C15 UNL     1      49.715   6.717  11.149  1.00  0.00     0.000 A 
HETATM   21  C16 UNL     1      49.914   5.389  10.858  1.00  0.00     0.001 A 
HETATM   22  C17 UNL     1      48.799   4.615  10.653  1.00  0.00     0.012 A 
ENDBRANCH   4  17
TORSDOF 5
ENDMDL
MODEL 2
REMARK VINA RESULT: -9.276363934      1.526      2.581
REMARK  5 active torsions:
REMARK  status: ('A' for Active; 'I' for Inactive)
REMARK    1  A    between atoms: C2_2  and  C3_3 
REMARK    2  A    between atoms: C6_8  and  C7_9 
REMARK    3  A    between atoms: C7_9  and  S1_10 
REMARK    4  A    between atoms: S1_10  and  C8_11 
REMARK    5  A    between atoms: C11_14  and  C12_15 
ROOT
HETATM    1  C8  UNL     1      45.227   3.266  10.418  1.00  0.00     0.000 A 
HETATM    2  C9  UNL     1      44.877   4.625  10.477  1.00  0.00     0.019 A 
HETATM    3  C10 UNL     1      45.817   5.624  10.560  1.00  0.00     0.013 A 
HETATM    4  C11 UNL     1      47.160   5.321  10.590  1.00  0.00    -0.026 A 
HETATM    5  C18 UNL     1      47.530   3.996  10.533  1.00  0.00     0.013 A 
HETATM    6  C19 UNL     1      46.564   2.999  10.449  1.00  0.00     0.019 A 
ENDROOT
BRANCH   1   7
HETATM    7  S1  UNL     1      43.939   2.064  10.283  1.00  0.00    -0.125 SA
BRANCH   7   8
HETATM    8  C7  UNL     1      44.393   0.393  10.663  1.00  0.00     0.120 C 
BRANCH   8   9
HETATM    9  C6  UNL     1      44.340   0.055  12.099  1.00  0.00    -0.026 A 
HETATM   10  C3  UNL     1      43.928  -1.175  12.610  1.00  0.00    -0.035 A 
HETATM   11  C4  UNL     1      44.034  -1.178  13.971  1.00  0.00     0.095 A 
HETATM   12  N1  UNL     1      44.503   0.022  14.321  1.00  0.00    -0.374 N 
HETATM   13  C5  UNL     1      44.694   0.776  13.209  1.00  0.00     0.096 A 
ATOM     14  H1  UNL     1      44.690   0.326  15.277  1.00  0.00     0.164 HD
BRANCH  10  15
HETATM   15  C2  UNL     1      43.451  -2.296  11.770  1.00  0.00     0.036 C 
HETATM   16  C1  UNL     1      41.994  -2.150  11.399  1.00  0.00     0.010 C 
ENDBRANCH  10  15
ENDBRANCH   8   9
ENDBRANCH   7   8
ENDBRANCH   1   7
BRANCH   4  17
HETATM   17  C12 UNL     1      48.171   6.395  10.680  1.00  0.00    -0.026 A 
HETATM   18  C13 UNL     1      49.271   6.380   9.877  1.00  0.00     0.012 A 
HETATM   19  C14 UNL     1      50.224   7.395   9.961  1.00  0.00     0.001 A 
HETATM   20  C15 UNL     1      50.017   8.416  10.886  1.00  0.00     0.000 A 
HETATM   21  C16 UNL     1      48.913   8.444  11.702  1.00  0.00     0.001 A 
HETATM   22  C17 UNL     1      48.008   7.420  11.576  1.00  0.00     0.012 A 
ENDBRANCH   4  17
TORSDOF 5
ENDMDL
MODEL 3
REMARK VINA RESULT: -9.260971968      1.523      2.407
REMARK  5 active torsions:
REMARK  status: ('A' for Active; 'I' for Inactive)
REMARK    1  A    between atoms: C2_2  and  C3_3 
REMARK    2  A    between atoms: C6_8  and  C7_9 
REMARK    3  A    between atoms: C7_9  and  S1_10 
REMARK    4  A    between atoms: S1_10  and  C8_11 
REMARK    5  A    between atoms: C11_14  and  C12_15 
ROOT
HETATM    1  C8  UNL     1      45.227   3.252  10.417  1.00  0.00     0.000 A 
HETATM    2  C9  UNL     1      44.875   4.610  10.481  1.00  0.00     0.019 A 
HETATM    3  C10 UNL     1      45.814   5.610  10.566  1.00  0.00     0.013 A 
HETATM    4  C11 UNL     1      47.156   5.309  10.593  1.00  0.00    -0.026 A 
HETATM    5  C18 UNL     1      47.529   3.985  10.531  1.00  0.00     0.013 A 
HETATM    6  C19 UNL     1      46.564   2.987  10.444  1.00  0.00     0.019 A 
ENDROOT
BRANCH   1   7
HETATM    7  S1  UNL     1      43.940   2.048  10.280  1.00  0.00    -0.125 SA
BRANCH   7   8
HETATM    8  C7  UNL     1      44.393   0.380  10.672  1.00  0.00     0.120 C 
BRANCH   8   9
HETATM    9  C6  UNL     1      44.316   0.046  12.107  1.00  0.00    -0.026 A 
HETATM   10  C3  UNL     1      43.881  -1.178  12.615  1.00  0.00    -0.035 A 
HETATM   11  C4  UNL     1      43.969  -1.181  13.977  1.00  0.00     0.095 A 
HETATM   12  N1  UNL     1      44.450   0.014  14.332  1.00  0.00    -0.374 N 
HETATM   13  C5  UNL     1      44.666   0.763  13.221  1.00  0.00     0.096 A 
ATOM     14  H1  UNL     1      44.628   0.317  15.289  1.00  0.00     0.164 HD
BRANCH  10  15
HETATM   15  C2  UNL     1      43.400  -2.294  11.771  1.00  0.00     0.036 C 
HETATM   16  C1  UNL     1      41.947  -2.132  11.387  1.00  0.00     0.010 C 
ENDBRANCH  10  15
ENDBRANCH   8   9
ENDBRANCH   7   8
ENDBRANCH   1   7
BRANCH   4  17
HETATM   17  C12 UNL     1      48.166   6.384  10.684  1.00  0.00    -0.026 A 
HETATM   18  C13 UNL     1      48.021   7.398  11.582  1.00  0.00     0.012 A 
HETATM   19  C14 UNL     1      48.975   8.411  11.669  1.00  0.00     0.001 A 
HETATM   20  C15 UNL     1      50.074   8.353  10.815  1.00  0.00     0.000 A 
HETATM   21  C16 UNL     1      50.235   7.337   9.905  1.00  0.00     0.001 A 
HETATM   22  C17 UNL     1      49.265   6.367   9.863  1.00  0.00     0.012 A 
ENDBRANCH   4  17
TORSDOF 5
ENDMDL
MODEL 4
REMARK VINA RESULT: -9.238096299      0.254      1.484
REMARK  5 active torsions:
REMARK  status: ('A' for Active; 'I' for Inactive)
REMARK    1  A    between atoms: C2_2  and  C3_3 
REMARK    2  A    between atoms: C6_8  and  C7_9 
REMARK    3  A    between atoms: C7_9  and  S1_10 
REMARK    4  A    between atoms: S1_10  and  C8_11 
REMARK    5  A    between atoms: C11_14  and  C12_15 
ROOT
HETATM    1  C8  UNL     1      44.001   2.564  10.165  1.00  0.00     0.000 A 
HETATM    2  C9  UNL     1      44.074   3.896   9.723  1.00  0.00     0.019 A 
HETATM    3  C10 UNL     1      45.195   4.671   9.904  1.00  0.00     0.013 A 
HETATM    4  C11 UNL     1      46.305   4.159  10.536  1.00  0.00    -0.026 A 
HETATM    5  C18 UNL     1      46.260   2.856  10.979  1.00  0.00     0.013 A 
HETATM    6  C19 UNL     1      45.116   2.087  10.787  1.00  0.00     0.019 A 
ENDROOT
BRANCH   1   7
HETATM    7  S1  UNL     1      42.521   1.649   9.855  1.00  0.00    -0.125 SA
BRANCH   7   8
HETATM    8  C7  UNL     1      42.152   0.358  11.012  1.00  0.00     0.120 C 
BRANCH   8   9
HETATM    9  C6  UNL     1      43.159  -0.719  11.071  1.00  0.00    -0.026 A 
HETATM   10  C3  UNL     1      43.684  -1.252  12.248  1.00  0.00    -0.035 A 
HETATM   11  C4  UNL     1      44.559  -2.258  11.960  1.00  0.00     0.095 A 
HETATM   12  N1  UNL     1      44.593  -2.366  10.628  1.00  0.00    -0.374 N 
HETATM   13  C5  UNL     1      43.757  -1.449  10.078  1.00  0.00     0.096 A 
ATOM     14  H1  UNL     1      45.160  -3.034  10.106  1.00  0.00     0.164 HD
BRANCH  10  15
HETATM   15  C2  UNL     1      43.321  -0.774  13.600  1.00  0.00     0.036 C 
HETATM   16  C1  UNL     1      44.443   0.003  14.249  1.00  0.00     0.010 C 
ENDBRANCH  10  15
ENDBRANCH   8   9
ENDBRANCH   7   8
ENDBRANCH   1   7
BRANCH   4  17
HETATM   17  C12 UNL     1      47.510   4.991  10.731  1.00  0.00    -0.026 A 
HETATM   18  C13 UNL     1      48.753   4.445  10.631  1.00  0.00     0.012 A 
HETATM   19  C14 UNL     1      49.891   5.232  10.813  1.00  0.00     0.001 A 
HETATM   20  C15 UNL     1      49.716   6.583  11.098  1.00  0.00     0.000 A 
HETATM   21  C16 UNL     1      48.468   7.149  11.203  1.00  0.00     0.001 A 
HETATM   22  C17 UNL     1      47.385   6.327  11.014  1.00  0.00     0.012 A 
ENDBRANCH   4  17
TORSDOF 5
ENDMDL
MODEL 5
REMARK VINA RESULT: -9.055672384      2.517      7.858
REMARK  5 active torsions:
REMARK  status: ('A' for Active; 'I' for Inactive)
REMARK    1  A    between atoms: C2_2  and  C3_3 
REMARK    2  A    between atoms: C6_8  and  C7_9 
REMARK    3  A    between atoms: C7_9  and  S1_10 
REMARK    4  A    between atoms: S1_10  and  C8_11 
REMARK    5  A    between atoms: C11_14  and  C12_15 
ROOT
HETATM    1  C8  UNL     1      44.970   3.623  10.080  1.00  0.00     0.000 A 
HETATM    2  C9  UNL     1      45.710   2.729  10.872  1.00  0.00     0.019 A 
HETATM    3  C10 UNL     1      45.216   1.507  11.260  1.00  0.00     0.013 A 
HETATM    4  C11 UNL     1      43.954   1.109  10.880  1.00  0.00    -0.026 A 
HETATM    5  C18 UNL     1      43.207   1.967  10.103  1.00  0.00     0.013 A 
HETATM    6  C19 UNL     1      43.725   3.200   9.720  1.00  0.00     0.019 A 
ENDROOT
BRANCH   1   7
HETATM    7  S1  UNL     1      45.712   5.157   9.614  1.00  0.00    -0.125 SA
BRANCH   7   8
HETATM    8  C7  UNL     1      46.766   5.909  10.827  1.00  0.00     0.120 C 
BRANCH   8   9
HETATM    9  C6  UNL     1      48.202   5.622  10.652  1.00  0.00    -0.026 A 
HETATM   10  C3  UNL     1      49.236   6.428  11.129  1.00  0.00    -0.035 A 
HETATM   11  C4  UNL     1      50.444   5.863  10.838  1.00  0.00     0.095 A 
HETATM   12  N1  UNL     1      50.188   4.723  10.191  1.00  0.00    -0.374 N 
HETATM   13  C5  UNL     1      48.846   4.562  10.071  1.00  0.00     0.096 A 
ATOM     14  H1  UNL     1      50.893   4.073   9.841  1.00  0.00     0.164 HD
BRANCH  10  15
HETATM   15  C2  UNL     1      49.021   7.704  11.845  1.00  0.00     0.036 C 
HETATM   16  C1  UNL     1      49.801   8.841  11.228  1.00  0.00     0.010 C 
ENDBRANCH  10  15
ENDBRANCH   8   9
ENDBRANCH   7   8
ENDBRANCH   1   7
BRANCH   4  17
HETATM   17  C12 UNL     1      43.422  -0.205  11.296  1.00  0.00    -0.026 A 
HETATM   18  C13 UNL     1      42.332  -0.738  10.680  1.00  0.00     0.012 A 
HETATM   19  C14 UNL     1      41.832  -1.980  11.073  1.00  0.00     0.001 A 
HETATM   20  C15 UNL     1      42.478  -2.651  12.108  1.00  0.00     0.000 A 
HETATM   21  C16 UNL     1      43.579  -2.125  12.739  1.00  0.00     0.001 A 
HETATM   22  C17 UNL     1      44.028  -0.901  12.311  1.00  0.00     0.012 A 
ENDBRANCH   4  17
TORSDOF 5
ENDMDL
