MODEL 1
REMARK VINA RESULT: -9.398678295      0.000      0.000
REMARK  6 active torsions:
REMARK  status: ('A' for Active; 'I' for Inactive)
REMARK    1  A    between atoms: C2_2  and  C3_3 
REMARK    2  A    between atoms: C3_3  and  N1_4 
REMARK    3  A    between atoms: C3_3  and  C17_19 
REMARK    4  A    between atoms: N1_4  and  C4_6 
REMARK    5  A    between atoms: C4_6  and  C5_7 
REMARK    6  A    between atoms: C4_6  and  C11_13 
ROOT
HETATM    1  C4  UNL     1      44.621   1.416  11.088  1.00  0.00     0.148 C 
ENDROOT
BRANCH   1   2
HETATM    2  N1  UNL     1      44.571   2.824  11.194  1.00  0.00    -0.380 N 
ATOM      3  H1  UNL     1      44.208   3.272  12.036  1.00  0.00     0.160 HD
BRANCH   2   4
HETATM    4  C3  UNL     1      45.035   3.596  10.111  1.00  0.00     0.015 C 
BRANCH   4   5
HETATM    5  C2  UNL     1      44.116   4.476   9.356  1.00  0.00     0.053 C 
HETATM    6  C1  UNL     1      42.680   4.470   9.797  1.00  0.00     0.011 C 
ENDBRANCH   4   5
BRANCH   4   7
HETATM    7  C17 UNL     1      46.338   4.277  10.403  1.00  0.00    -0.014 A 
HETATM    8  C18 UNL     1      47.497   3.548  10.425  1.00  0.00     0.013 A 
HETATM    9  C19 UNL     1      48.685   4.220  10.682  1.00  0.00     0.001 A 
HETATM   10  C20 UNL     1      48.741   5.580  10.915  1.00  0.00     0.000 A 
HETATM   11  C21 UNL     1      47.571   6.290  10.890  1.00  0.00     0.001 A 
HETATM   12  C22 UNL     1      46.369   5.649  10.635  1.00  0.00     0.013 A 
ENDBRANCH   4   7
ENDBRANCH   2   4
ENDBRANCH   1   2
BRANCH   1  13
HETATM   13  C5  UNL     1      44.637   0.781  12.465  1.00  0.00    -0.031 A 
HETATM   14  C6  UNL     1      44.150  -0.502  12.568  1.00  0.00     0.009 A 
HETATM   15  C7  UNL     1      44.127  -1.186  13.777  1.00  0.00     0.001 A 
HETATM   16  C8  UNL     1      44.609  -0.561  14.920  1.00  0.00     0.000 A 
HETATM   17  C9  UNL     1      45.095   0.724  14.807  1.00  0.00     0.001 A 
HETATM   18  C10 UNL     1      45.105   1.387  13.578  1.00  0.00     0.009 A 
ENDBRANCH   1  13
BRANCH   1  19
HETATM   19  C11 UNL     1      43.551   0.746  10.298  1.00  0.00    -0.031 A 
HETATM   20  C12 UNL     1      43.883  -0.221   9.337  1.00  0.00     0.009 A 
HETATM   21  C13 UNL     1      42.967  -0.906   8.598  1.00  0.00     0.001 A 
HETATM   22  C14 UNL     1      41.617  -0.665   8.774  1.00  0.00     0.000 A 
HETATM   23  C15 UNL     1      41.262   0.280   9.713  1.00  0.00     0.001 A 
HETATM   24  C16 UNL     1      42.204   0.979  10.467  1.00  0.00     0.009 A 
ENDBRANCH   1  19
TORSDOF 6
ENDMDL
MODEL 2
REMARK VINA RESULT: -9.097531422      0.424      3.815
REMARK  6 active torsions:
REMARK  status: ('A' for Active; 'I' for Inactive)
REMARK    1  A    between atoms: C2_2  and  C3_3 
REMARK    2  A    between atoms: C3_3  and  N1_4 
REMARK    3  A    between atoms: C3_3  and  C17_19 
REMARK    4  A    between atoms: N1_4  and  C4_6 
REMARK    5  A    between atoms: C4_6  and  C5_7 
REMARK    6  A    between atoms: C4_6  and  C11_13 
ROOT
HETATM    1  C4  UNL     1      44.153   1.680  11.328  1.00  0.00     0.148 C 
ENDROOT
BRANCH   1   2
HETATM    2  N1  UNL     1      45.297   2.229  10.707  1.00  0.00    -0.380 N 
ATOM      3  H1  UNL     1      46.150   1.678  10.604  1.00  0.00     0.160 HD
BRANCH   2   4
HETATM    4  C3  UNL     1      45.233   3.553  10.232  1.00  0.00     0.015 C 
BRANCH   4   5
HETATM    5  C2  UNL     1      44.041   4.393  10.482  1.00  0.00     0.053 C 
HETATM    6  C1  UNL     1      43.012   4.427   9.388  1.00  0.00     0.011 C 
ENDBRANCH   4   5
BRANCH   4   7
HETATM    7  C17 UNL     1      46.504   4.312  10.465  1.00  0.00    -0.014 A 
HETATM    8  C18 UNL     1      46.460   5.666  10.674  1.00  0.00     0.013 A 
HETATM    9  C19 UNL     1      47.658   6.329  10.905  1.00  0.00     0.001 A 
HETATM   10  C20 UNL     1      48.879   5.683  10.930  1.00  0.00     0.000 A 
HETATM   11  C21 UNL     1      48.901   4.331  10.718  1.00  0.00     0.001 A 
HETATM   12  C22 UNL     1      47.722   3.640  10.486  1.00  0.00     0.013 A 
ENDBRANCH   4   7
ENDBRANCH   2   4
ENDBRANCH   1   2
BRANCH   1  13
HETATM   13  C5  UNL     1      43.423   0.755  10.374  1.00  0.00    -0.031 A 
HETATM   14  C6  UNL     1      42.048   0.776  10.411  1.00  0.00     0.009 A 
HETATM   15  C7  UNL     1      41.276  -0.020   9.574  1.00  0.00     0.001 A 
HETATM   16  C8  UNL     1      41.907  -0.866   8.671  1.00  0.00     0.000 A 
HETATM   17  C9  UNL     1      43.285  -0.880   8.641  1.00  0.00     0.001 A 
HETATM   18  C10 UNL     1      44.034  -0.069   9.494  1.00  0.00     0.009 A 
ENDBRANCH   1  13
BRANCH   1  19
HETATM   19  C11 UNL     1      44.351   0.940  12.605  1.00  0.00    -0.031 A 
HETATM   20  C12 UNL     1      43.865  -0.369  12.747  1.00  0.00     0.009 A 
HETATM   21  C13 UNL     1      44.033  -1.128  13.865  1.00  0.00     0.001 A 
HETATM   22  C14 UNL     1      44.719  -0.616  14.950  1.00  0.00     0.000 A 
HETATM   23  C15 UNL     1      45.208   0.668  14.839  1.00  0.00     0.001 A 
HETATM   24  C16 UNL     1      45.033   1.441  13.693  1.00  0.00     0.009 A 
ENDBRANCH   1  19
TORSDOF 6
ENDMDL
MODEL 3
REMARK VINA RESULT: -8.860721796      6.380     11.239
REMARK  6 active torsions:
REMARK  status: ('A' for Active; 'I' for Inactive)
REMARK    1  A    between atoms: C2_2  and  C3_3 
REMARK    2  A    between atoms: C3_3  and  N1_4 
REMARK    3  A    between atoms: C3_3  and  C17_19 
REMARK    4  A    between atoms: N1_4  and  C4_6 
REMARK    5  A    between atoms: C4_6  and  C5_7 
REMARK    6  A    between atoms: C4_6  and  C11_13 
ROOT
HETATM    1  C4  UNL     1      50.290  10.224  10.543  1.00  0.00     0.148 C 
ENDROOT
BRANCH   1   2
HETATM    2  N1  UNL     1      50.226  10.092  11.949  1.00  0.00    -0.380 N 
ATOM      3  H1  UNL     1      50.944  10.505  12.545  1.00  0.00     0.160 HD
BRANCH   2   4
HETATM    4  C3  UNL     1      49.149   9.378  12.508  1.00  0.00     0.015 C 
BRANCH   4   5
HETATM    5  C2  UNL     1      47.838  10.029  12.727  1.00  0.00     0.053 C 
HETATM    6  C1  UNL     1      47.803  11.118  13.762  1.00  0.00     0.011 C 
ENDBRANCH   4   5
BRANCH   4   7
HETATM    7  C17 UNL     1      48.995   8.009  11.917  1.00  0.00    -0.014 A 
HETATM    8  C18 UNL     1      50.043   7.128  11.960  1.00  0.00     0.013 A 
HETATM    9  C19 UNL     1      49.853   5.863  11.417  1.00  0.00     0.001 A 
HETATM   10  C20 UNL     1      48.662   5.465  10.842  1.00  0.00     0.000 A 
HETATM   11  C21 UNL     1      47.628   6.361  10.808  1.00  0.00     0.001 A 
HETATM   12  C22 UNL     1      47.786   7.631  11.342  1.00  0.00     0.013 A 
ENDBRANCH   4   7
ENDBRANCH   2   4
ENDBRANCH   1   2
BRANCH   1  13
HETATM   13  C5  UNL     1      50.031  11.661  10.133  1.00  0.00    -0.031 A 
HETATM   14  C6  UNL     1      50.173  11.966   8.799  1.00  0.00     0.009 A 
HETATM   15  C7  UNL     1      49.949  13.247   8.308  1.00  0.00     0.001 A 
HETATM   16  C8  UNL     1      49.570  14.254   9.187  1.00  0.00     0.000 A 
HETATM   17  C9  UNL     1      49.430  13.938  10.521  1.00  0.00     0.001 A 
HETATM   18  C10 UNL     1      49.662  12.642  10.985  1.00  0.00     0.009 A 
ENDBRANCH   1  13
BRANCH   1  19
HETATM   19  C11 UNL     1      51.541   9.785   9.866  1.00  0.00    -0.031 A 
HETATM   20  C12 UNL     1      52.671  10.617   9.857  1.00  0.00     0.009 A 
HETATM   21  C13 UNL     1      53.863  10.278   9.293  1.00  0.00     0.001 A 
HETATM   22  C14 UNL     1      54.012   9.048   8.681  1.00  0.00     0.000 A 
HETATM   23  C15 UNL     1      52.919   8.209   8.675  1.00  0.00     0.001 A 
HETATM   24  C16 UNL     1      51.701   8.561   9.254  1.00  0.00     0.009 A 
ENDBRANCH   1  19
TORSDOF 6
ENDMDL
MODEL 4
REMARK VINA RESULT: -8.807868042      3.899      9.670
REMARK  6 active torsions:
REMARK  status: ('A' for Active; 'I' for Inactive)
REMARK    1  A    between atoms: C2_2  and  C3_3 
REMARK    2  A    between atoms: C3_3  and  N1_4 
REMARK    3  A    between atoms: C3_3  and  C17_19 
REMARK    4  A    between atoms: N1_4  and  C4_6 
REMARK    5  A    between atoms: C4_6  and  C5_7 
REMARK    6  A    between atoms: C4_6  and  C11_13 
ROOT
HETATM    1  C4  UNL     1      49.693   8.022  10.609  1.00  0.00     0.148 C 
ENDROOT
BRANCH   1   2
HETATM    2  N1  UNL     1      48.740   7.192   9.976  1.00  0.00    -0.380 N 
ATOM      3  H1  UNL     1      47.922   7.593   9.516  1.00  0.00     0.160 HD
BRANCH   2   4
HETATM    4  C3  UNL     1      48.944   5.799   9.995  1.00  0.00     0.015 C 
BRANCH   4   5
HETATM    5  C2  UNL     1      50.087   5.208  10.727  1.00  0.00     0.053 C 
HETATM    6  C1  UNL     1      51.307   4.893   9.909  1.00  0.00     0.011 C 
ENDBRANCH   4   5
BRANCH   4   7
HETATM    7  C17 UNL     1      47.679   5.033  10.235  1.00  0.00    -0.014 A 
HETATM    8  C18 UNL     1      47.714   3.665  10.308  1.00  0.00     0.013 A 
HETATM    9  C19 UNL     1      46.522   2.994  10.549  1.00  0.00     0.001 A 
HETATM   10  C20 UNL     1      45.316   3.646  10.715  1.00  0.00     0.000 A 
HETATM   11  C21 UNL     1      45.302   5.012  10.637  1.00  0.00     0.001 A 
HETATM   12  C22 UNL     1      46.475   5.711  10.398  1.00  0.00     0.013 A 
ENDBRANCH   4   7
ENDBRANCH   2   4
ENDBRANCH   1   2
BRANCH   1  13
HETATM   13  C5  UNL     1      50.500   8.785   9.577  1.00  0.00    -0.031 A 
HETATM   14  C6  UNL     1      51.807   8.397   9.392  1.00  0.00     0.009 A 
HETATM   15  C7  UNL     1      52.636   9.018   8.466  1.00  0.00     0.001 A 
HETATM   16  C8  UNL     1      52.135  10.063   7.700  1.00  0.00     0.000 A 
HETATM   17  C9  UNL     1      50.824  10.445   7.893  1.00  0.00     0.001 A 
HETATM   18  C10 UNL     1      50.015   9.803   8.831  1.00  0.00     0.009 A 
ENDBRANCH   1  13
BRANCH   1  19
HETATM   19  C11 UNL     1      49.193   9.009  11.606  1.00  0.00    -0.031 A 
HETATM   20  C12 UNL     1      50.096   9.816  12.315  1.00  0.00     0.009 A 
HETATM   21  C13 UNL     1      49.723  10.766  13.217  1.00  0.00     0.001 A 
HETATM   22  C14 UNL     1      48.383  10.981  13.479  1.00  0.00     0.000 A 
HETATM   23  C15 UNL     1      47.473  10.203  12.796  1.00  0.00     0.001 A 
HETATM   24  C16 UNL     1      47.860   9.231  11.874  1.00  0.00     0.009 A 
ENDBRANCH   1  19
TORSDOF 6
ENDMDL
MODEL 5
REMARK VINA RESULT: -8.750092420      5.624     11.138
REMARK  6 active torsions:
REMARK  status: ('A' for Active; 'I' for Inactive)
REMARK    1  A    between atoms: C2_2  and  C3_3 
REMARK    2  A    between atoms: C3_3  and  N1_4 
REMARK    3  A    between atoms: C3_3  and  C17_19 
REMARK    4  A    between atoms: N1_4  and  C4_6 
REMARK    5  A    between atoms: C4_6  and  C5_7 
REMARK    6  A    between atoms: C4_6  and  C11_13 
ROOT
HETATM    1  C4  UNL     1      50.647  10.291  10.481  1.00  0.00     0.148 C 
ENDROOT
BRANCH   1   2
HETATM    2  N1  UNL     1      49.718   9.236  10.331  1.00  0.00    -0.380 N 
ATOM      3  H1  UNL     1      49.349   8.992   9.411  1.00  0.00     0.160 HD
BRANCH   2   4
HETATM    4  C3  UNL     1      49.314   8.529  11.480  1.00  0.00     0.015 C 
BRANCH   4   5
HETATM    5  C2  UNL     1      48.367   9.127  12.447  1.00  0.00     0.053 C 
HETATM    6  C1  UNL     1      48.967  10.016  13.499  1.00  0.00     0.011 C 
ENDBRANCH   4   5
BRANCH   4   7
HETATM    7  C17 UNL     1      48.977   7.098  11.188  1.00  0.00    -0.014 A 
HETATM    8  C18 UNL     1      49.968   6.153  11.179  1.00  0.00     0.013 A 
HETATM    9  C19 UNL     1      49.611   4.835  10.922  1.00  0.00     0.001 A 
HETATM   10  C20 UNL     1      48.308   4.447  10.677  1.00  0.00     0.000 A 
HETATM   11  C21 UNL     1      47.333   5.407  10.689  1.00  0.00     0.001 A 
HETATM   12  C22 UNL     1      47.657   6.730  10.943  1.00  0.00     0.013 A 
ENDBRANCH   4   7
ENDBRANCH   2   4
ENDBRANCH   1   2
BRANCH   1  13
HETATM   13  C5  UNL     1      51.971   9.927   9.838  1.00  0.00    -0.031 A 
HETATM   14  C6  UNL     1      52.054   8.697   9.228  1.00  0.00     0.009 A 
HETATM   15  C7  UNL     1      53.214   8.264   8.596  1.00  0.00     0.001 A 
HETATM   16  C8  UNL     1      54.327   9.095   8.579  1.00  0.00     0.000 A 
HETATM   17  C9  UNL     1      54.234  10.326   9.192  1.00  0.00     0.001 A 
HETATM   18  C10 UNL     1      53.055  10.734   9.819  1.00  0.00     0.009 A 
ENDBRANCH   1  13
BRANCH   1  19
HETATM   19  C11 UNL     1      50.254  11.633   9.968  1.00  0.00    -0.031 A 
HETATM   20  C12 UNL     1      49.795  12.620  10.852  1.00  0.00     0.009 A 
HETATM   21  C13 UNL     1      49.450  13.882  10.473  1.00  0.00     0.001 A 
HETATM   22  C14 UNL     1      49.543  14.254   9.145  1.00  0.00     0.000 A 
HETATM   23  C15 UNL     1      49.992  13.303   8.254  1.00  0.00     0.001 A 
HETATM   24  C16 UNL     1      50.343  12.013   8.647  1.00  0.00     0.009 A 
ENDBRANCH   1  19
TORSDOF 6
ENDMDL
