MODEL 1
REMARK VINA RESULT: -7.686499152      0.000      0.000
REMARK  8 active torsions:
REMARK  status: ('A' for Active; 'I' for Inactive)
REMARK    1  A    between atoms: N1_1  and  C1_5 
REMARK    2  A    between atoms: C1_5  and  C2_6 
REMARK    3  A    between atoms: C2_6  and  C3_7 
REMARK    4  A    between atoms: C2_6  and  N3_18 
REMARK    5  A    between atoms: C3_7  and  C4_8 
REMARK    6  A    between atoms: C7_11  and  N2_12 
REMARK       I    between atoms: N4_21  and  C12_22 
REMARK    7  A    between atoms: C12_22  and  C13_24 
REMARK    8  A    between atoms: C15_28  and  C16_29 
ROOT
HETATM    1  N3  UNL     1      57.648  39.430  16.785  1.00  0.00    -0.364 N 
HETATM    2  C10 UNL     1      57.243  40.083  17.966  1.00  0.00     0.083 C 
HETATM    3  C11 UNL     1      56.679  41.430  17.737  1.00  0.00     0.171 C 
HETATM    4  N4  UNL     1      55.725  41.484  16.634  1.00  0.00    -0.339 N 
HETATM    5  C12 UNL     1      54.458  42.102  16.825  1.00  0.00     0.255 C 
HETATM    6  O1  UNL     1      54.223  42.460  18.038  1.00  0.00    -0.267 OA
HETATM    7  C23 UNL     1      56.116  40.828  15.416  1.00  0.00     0.171 C 
HETATM    8  C24 UNL     1      56.862  39.530  15.648  1.00  0.00     0.083 C 
ENDROOT
BRANCH   1   9
HETATM    9  C2  UNL     1      58.900  38.794  16.758  1.00  0.00     0.114 C 
BRANCH   9  10
HETATM   10  C1  UNL     1      60.055  39.714  16.931  1.00  0.00     0.255 C 
BRANCH  10  11
HETATM   11  N1  UNL     1      60.681  39.939  15.642  1.00  0.00    -0.077 N 
ATOM     12  H13 UNL     1      60.876  39.068  15.148  1.00  0.00     0.274 HD
ATOM     13  H12 UNL     1      60.037  40.347  14.964  1.00  0.00     0.274 HD
ATOM     14  H11 UNL     1      61.519  40.507  15.771  1.00  0.00     0.274 HD
ENDBRANCH  10  11
ENDBRANCH   9  10
BRANCH   9  15
HETATM   15  C3  UNL     1      58.949  37.640  17.715  1.00  0.00     0.032 C 
BRANCH  15  16
HETATM   16  C4  UNL     1      58.184  36.416  17.247  1.00  0.00    -0.012 C 
HETATM   17  C5  UNL     1      58.479  36.308  15.768  1.00  0.00     0.007 C 
HETATM   18  C6  UNL     1      58.058  35.039  15.123  1.00  0.00     0.033 C 
HETATM   19  C7  UNL     1      58.338  33.801  15.929  1.00  0.00     0.183 C 
HETATM   20  C8  UNL     1      57.938  33.984  17.378  1.00  0.00     0.033 C 
HETATM   21  C9  UNL     1      58.709  35.164  17.906  1.00  0.00     0.007 C 
BRANCH  19  22
HETATM   22  N2  UNL     1      57.546  32.718  15.373  1.00  0.00    -0.075 N 
ATOM     23  H23 UNL     1      56.877  33.036  14.672  1.00  0.00     0.274 HD
ATOM     24  H22 UNL     1      58.089  32.099  14.771  1.00  0.00     0.274 HD
ATOM     25  H21 UNL     1      57.101  32.224  16.148  1.00  0.00     0.274 HD
ENDBRANCH  19  22
ENDBRANCH  15  16
ENDBRANCH   9  15
ENDBRANCH   1   9
BRANCH   5  26
HETATM   26  C13 UNL     1      53.459  42.349  15.809  1.00  0.00     0.049 A 
HETATM   27  C14 UNL     1      53.343  43.247  14.790  1.00  0.00     0.105 A 
HETATM   28  N5  UNL     1      52.232  43.012  14.079  1.00  0.00    -0.368 N 
HETATM   29  C15 UNL     1      51.566  41.958  14.585  1.00  0.00     0.014 A 
ATOM     30  H5  UNL     1      51.933  43.556  13.269  1.00  0.00     0.165 HD
HETATM   31  C22 UNL     1      52.313  41.536  15.658  1.00  0.00     0.043 A 
BRANCH  29  32
HETATM   32  C16 UNL     1      50.305  41.368  14.059  1.00  0.00     0.035 C 
HETATM   33  C17 UNL     1      50.383  40.956  12.615  1.00  0.00     0.011 C 
HETATM   34  C18 UNL     1      48.953  40.550  12.233  1.00  0.00     0.001 C 
HETATM   35  C19 UNL     1      48.666  39.246  12.920  1.00  0.00     0.000 C 
HETATM   36  C20 UNL     1      49.460  39.012  14.162  1.00  0.00     0.001 C 
HETATM   37  C21 UNL     1      49.828  40.232  14.936  1.00  0.00     0.011 C 
ENDBRANCH  29  32
ENDBRANCH   5  26
TORSDOF 8
ENDMDL
MODEL 2
REMARK VINA RESULT: -7.565161525      1.900      8.011
REMARK  8 active torsions:
REMARK  status: ('A' for Active; 'I' for Inactive)
REMARK    1  A    between atoms: N1_1  and  C1_5 
REMARK    2  A    between atoms: C1_5  and  C2_6 
REMARK    3  A    between atoms: C2_6  and  C3_7 
REMARK    4  A    between atoms: C2_6  and  N3_18 
REMARK    5  A    between atoms: C3_7  and  C4_8 
REMARK    6  A    between atoms: C7_11  and  N2_12 
REMARK       I    between atoms: N4_21  and  C12_22 
REMARK    7  A    between atoms: C12_22  and  C13_24 
REMARK    8  A    between atoms: C15_28  and  C16_29 
ROOT
HETATM    1  N3  UNL     1      54.744  42.781  15.049  1.00  0.00    -0.364 N 
HETATM    2  C10 UNL     1      55.033  43.437  16.263  1.00  0.00     0.083 C 
HETATM    3  C11 UNL     1      55.147  42.523  17.418  1.00  0.00     0.171 C 
HETATM    4  N4  UNL     1      55.946  41.334  17.146  1.00  0.00    -0.339 N 
HETATM    5  C12 UNL     1      56.982  40.956  18.045  1.00  0.00     0.255 C 
HETATM    6  O1  UNL     1      57.199  41.805  18.986  1.00  0.00    -0.267 OA
HETATM    7  C23 UNL     1      55.670  40.644  15.916  1.00  0.00     0.171 C 
HETATM    8  C24 UNL     1      55.367  41.577  14.761  1.00  0.00     0.083 C 
ENDROOT
BRANCH   1   9
HETATM    9  C2  UNL     1      53.741  43.306  14.217  1.00  0.00     0.114 C 
BRANCH   9  10
HETATM   10  C1  UNL     1      53.869  42.917  12.788  1.00  0.00     0.255 C 
BRANCH  10  11
HETATM   11  N1  UNL     1      54.658  43.916  12.092  1.00  0.00    -0.077 N 
ATOM     12  H13 UNL     1      54.491  43.910  11.086  1.00  0.00     0.274 HD
ATOM     13  H12 UNL     1      54.338  44.865  12.285  1.00  0.00     0.274 HD
ATOM     14  H11 UNL     1      55.643  43.784  12.323  1.00  0.00     0.274 HD
ENDBRANCH  10  11
ENDBRANCH   9  10
BRANCH   9  15
HETATM   15  C3  UNL     1      52.373  43.020  14.761  1.00  0.00     0.032 C 
BRANCH  15  16
HETATM   16  C4  UNL     1      51.737  41.762  14.201  1.00  0.00    -0.012 C 
HETATM   17  C5  UNL     1      51.722  40.781  15.350  1.00  0.00     0.007 C 
HETATM   18  C6  UNL     1      50.911  39.556  15.136  1.00  0.00     0.033 C 
HETATM   19  C7  UNL     1      49.583  39.790  14.471  1.00  0.00     0.183 C 
HETATM   20  C8  UNL     1      49.716  40.723  13.287  1.00  0.00     0.033 C 
HETATM   21  C9  UNL     1      50.303  42.011  13.800  1.00  0.00     0.007 C 
BRANCH  19  22
HETATM   22  N2  UNL     1      49.095  38.510  13.987  1.00  0.00    -0.075 N 
ATOM     23  H23 UNL     1      49.278  38.368  12.993  1.00  0.00     0.274 HD
ATOM     24  H22 UNL     1      49.636  37.721  14.339  1.00  0.00     0.274 HD
ATOM     25  H21 UNL     1      48.104  38.444  14.220  1.00  0.00     0.274 HD
ENDBRANCH  19  22
ENDBRANCH  15  16
ENDBRANCH   9  15
ENDBRANCH   1   9
BRANCH   5  26
HETATM   26  C13 UNL     1      57.773  39.747  17.988  1.00  0.00     0.049 A 
HETATM   27  C14 UNL     1      58.820  39.263  18.714  1.00  0.00     0.105 A 
HETATM   28  N5  UNL     1      59.161  38.037  18.290  1.00  0.00    -0.368 N 
HETATM   29  C15 UNL     1      58.365  37.655  17.275  1.00  0.00     0.014 A 
ATOM     30  H5  UNL     1      59.917  37.475  18.681  1.00  0.00     0.165 HD
HETATM   31  C22 UNL     1      57.501  38.704  17.075  1.00  0.00     0.043 A 
BRANCH  29  32
HETATM   32  C16 UNL     1      58.407  36.353  16.555  1.00  0.00     0.035 C 
HETATM   33  C17 UNL     1      57.336  35.388  16.981  1.00  0.00     0.011 C 
HETATM   34  C18 UNL     1      57.666  34.074  16.261  1.00  0.00     0.001 C 
HETATM   35  C19 UNL     1      57.351  34.276  14.807  1.00  0.00     0.000 C 
HETATM   36  C20 UNL     1      57.418  35.695  14.350  1.00  0.00     0.001 C 
HETATM   37  C21 UNL     1      58.407  36.559  15.057  1.00  0.00     0.011 C 
ENDBRANCH  29  32
ENDBRANCH   5  26
TORSDOF 8
ENDMDL
MODEL 3
REMARK VINA RESULT: -7.543997577      1.992      7.902
REMARK  8 active torsions:
REMARK  status: ('A' for Active; 'I' for Inactive)
REMARK    1  A    between atoms: N1_1  and  C1_5 
REMARK    2  A    between atoms: C1_5  and  C2_6 
REMARK    3  A    between atoms: C2_6  and  C3_7 
REMARK    4  A    between atoms: C2_6  and  N3_18 
REMARK    5  A    between atoms: C3_7  and  C4_8 
REMARK    6  A    between atoms: C7_11  and  N2_12 
REMARK       I    between atoms: N4_21  and  C12_22 
REMARK    7  A    between atoms: C12_22  and  C13_24 
REMARK    8  A    between atoms: C15_28  and  C16_29 
ROOT
HETATM    1  N3  UNL     1      54.702  42.511  15.401  1.00  0.00    -0.364 N 
HETATM    2  C10 UNL     1      55.091  43.151  16.595  1.00  0.00     0.083 C 
HETATM    3  C11 UNL     1      55.320  42.221  17.720  1.00  0.00     0.171 C 
HETATM    4  N4  UNL     1      56.106  41.046  17.356  1.00  0.00    -0.339 N 
HETATM    5  C12 UNL     1      57.223  40.669  18.153  1.00  0.00     0.255 C 
HETATM    6  O1  UNL     1      57.514  41.506  19.084  1.00  0.00    -0.267 OA
HETATM    7  C23 UNL     1      55.728  40.373  16.144  1.00  0.00     0.171 C 
HETATM    8  C24 UNL     1      55.311  41.320  15.038  1.00  0.00     0.083 C 
ENDROOT
BRANCH   1   9
HETATM    9  C2  UNL     1      53.622  43.035  14.672  1.00  0.00     0.114 C 
BRANCH   9  10
HETATM   10  C1  UNL     1      53.769  44.470  14.312  1.00  0.00     0.255 C 
BRANCH  10  11
HETATM   11  N1  UNL     1      54.739  44.594  13.240  1.00  0.00    -0.077 N 
ATOM     12  H13 UNL     1      55.673  44.300  13.526  1.00  0.00     0.274 HD
ATOM     13  H12 UNL     1      54.591  43.905  12.502  1.00  0.00     0.274 HD
ATOM     14  H11 UNL     1      54.725  45.551  12.886  1.00  0.00     0.274 HD
ENDBRANCH  10  11
ENDBRANCH   9  10
BRANCH   9  15
HETATM   15  C3  UNL     1      53.301  42.183  13.479  1.00  0.00     0.032 C 
BRANCH  15  16
HETATM   16  C4  UNL     1      51.948  41.502  13.553  1.00  0.00    -0.012 C 
HETATM   17  C5  UNL     1      52.192  40.086  13.083  1.00  0.00     0.007 C 
HETATM   18  C6  UNL     1      51.075  39.136  13.309  1.00  0.00     0.033 C 
HETATM   19  C7  UNL     1      50.400  39.265  14.647  1.00  0.00     0.183 C 
HETATM   20  C8  UNL     1      50.130  40.714  14.991  1.00  0.00     0.033 C 
HETATM   21  C9  UNL     1      51.455  41.428  14.977  1.00  0.00     0.007 C 
BRANCH  19  22
HETATM   22  N2  UNL     1      49.126  38.571  14.574  1.00  0.00    -0.075 N 
ATOM     23  H23 UNL     1      48.330  39.208  14.544  1.00  0.00     0.274 HD
ATOM     24  H22 UNL     1      48.973  38.120  13.672  1.00  0.00     0.274 HD
ATOM     25  H21 UNL     1      49.080  37.916  15.355  1.00  0.00     0.274 HD
ENDBRANCH  19  22
ENDBRANCH  15  16
ENDBRANCH   9  15
ENDBRANCH   1   9
BRANCH   5  26
HETATM   26  C13 UNL     1      58.021  39.472  18.004  1.00  0.00     0.049 A 
HETATM   27  C14 UNL     1      59.159  39.010  18.595  1.00  0.00     0.105 A 
HETATM   28  N5  UNL     1      59.464  37.787  18.139  1.00  0.00    -0.368 N 
HETATM   29  C15 UNL     1      58.552  37.383  17.237  1.00  0.00     0.014 A 
ATOM     30  H5  UNL     1      60.273  37.240  18.435  1.00  0.00     0.165 HD
HETATM   31  C22 UNL     1      57.652  38.416  17.140  1.00  0.00     0.043 A 
BRANCH  29  32
HETATM   32  C16 UNL     1      58.524  36.075  16.526  1.00  0.00     0.035 C 
HETATM   33  C17 UNL     1      57.474  35.128  17.038  1.00  0.00     0.011 C 
HETATM   34  C18 UNL     1      57.733  33.804  16.307  1.00  0.00     0.001 C 
HETATM   35  C19 UNL     1      57.315  33.999  14.878  1.00  0.00     0.000 C 
HETATM   36  C20 UNL     1      57.366  35.414  14.406  1.00  0.00     0.001 C 
HETATM   37  C21 UNL     1      58.416  36.270  15.030  1.00  0.00     0.011 C 
ENDBRANCH  29  32
ENDBRANCH   5  26
TORSDOF 8
ENDMDL
MODEL 4
REMARK VINA RESULT: -7.507803027      1.819      8.267
REMARK  8 active torsions:
REMARK  status: ('A' for Active; 'I' for Inactive)
REMARK    1  A    between atoms: N1_1  and  C1_5 
REMARK    2  A    between atoms: C1_5  and  C2_6 
REMARK    3  A    between atoms: C2_6  and  C3_7 
REMARK    4  A    between atoms: C2_6  and  N3_18 
REMARK    5  A    between atoms: C3_7  and  C4_8 
REMARK    6  A    between atoms: C7_11  and  N2_12 
REMARK       I    between atoms: N4_21  and  C12_22 
REMARK    7  A    between atoms: C12_22  and  C13_24 
REMARK    8  A    between atoms: C15_28  and  C16_29 
ROOT
HETATM    1  N3  UNL     1      54.477  43.275  14.957  1.00  0.00    -0.364 N 
HETATM    2  C10 UNL     1      54.663  43.251  16.354  1.00  0.00     0.083 C 
HETATM    3  C11 UNL     1      54.755  41.889  16.918  1.00  0.00     0.171 C 
HETATM    4  N4  UNL     1      55.624  40.998  16.156  1.00  0.00    -0.339 N 
HETATM    5  C12 UNL     1      56.624  40.241  16.829  1.00  0.00     0.255 C 
HETATM    6  O1  UNL     1      56.746  40.519  18.078  1.00  0.00    -0.267 OA
HETATM    7  C23 UNL     1      55.452  41.001  14.730  1.00  0.00     0.171 C 
HETATM    8  C24 UNL     1      55.172  42.377  14.163  1.00  0.00     0.083 C 
ENDROOT
BRANCH   1   9
HETATM    9  C2  UNL     1      53.499  44.128  14.419  1.00  0.00     0.114 C 
BRANCH   9  10
HETATM   10  C1  UNL     1      53.637  44.367  12.958  1.00  0.00     0.255 C 
BRANCH  10  11
HETATM   11  N1  UNL     1      54.575  45.453  12.741  1.00  0.00    -0.077 N 
ATOM     12  H13 UNL     1      55.541  45.170  12.906  1.00  0.00     0.274 HD
ATOM     13  H12 UNL     1      54.664  45.696  11.754  1.00  0.00     0.274 HD
ATOM     14  H11 UNL     1      54.301  46.251  13.314  1.00  0.00     0.274 HD
ENDBRANCH  10  11
ENDBRANCH   9  10
BRANCH   9  15
HETATM   15  C3  UNL     1      52.116  43.681  14.790  1.00  0.00     0.032 C 
BRANCH  15  16
HETATM   16  C4  UNL     1      51.757  42.298  14.282  1.00  0.00    -0.012 C 
HETATM   17  C5  UNL     1      51.432  41.493  15.519  1.00  0.00     0.007 C 
HETATM   18  C6  UNL     1      50.796  40.174  15.276  1.00  0.00     0.033 C 
HETATM   19  C7  UNL     1      49.736  40.174  14.210  1.00  0.00     0.183 C 
HETATM   20  C8  UNL     1      50.187  40.939  12.984  1.00  0.00     0.033 C 
HETATM   21  C9  UNL     1      50.512  42.340  13.429  1.00  0.00     0.007 C 
BRANCH  19  22
HETATM   22  N2  UNL     1      49.494  38.796  13.821  1.00  0.00    -0.075 N 
ATOM     23  H23 UNL     1      50.246  38.167  14.103  1.00  0.00     0.274 HD
ATOM     24  H22 UNL     1      48.744  38.360  14.357  1.00  0.00     0.274 HD
ATOM     25  H21 UNL     1      49.321  38.779  12.815  1.00  0.00     0.274 HD
ENDBRANCH  19  22
ENDBRANCH  15  16
ENDBRANCH   9  15
ENDBRANCH   1   9
BRANCH   5  26
HETATM   26  C13 UNL     1      57.474  39.228  16.244  1.00  0.00     0.049 A 
HETATM   27  C14 UNL     1      58.602  39.261  15.480  1.00  0.00     0.105 A 
HETATM   28  N5  UNL     1      59.051  38.019  15.247  1.00  0.00    -0.368 N 
HETATM   29  C15 UNL     1      58.251  37.114  15.840  1.00  0.00     0.014 A 
ATOM     30  H5  UNL     1      59.880  37.793  14.698  1.00  0.00     0.165 HD
HETATM   31  C22 UNL     1      57.269  37.846  16.461  1.00  0.00     0.043 A 
BRANCH  29  32
HETATM   32  C16 UNL     1      58.429  35.636  15.839  1.00  0.00     0.035 C 
HETATM   33  C17 UNL     1      57.353  34.894  16.582  1.00  0.00     0.011 C 
HETATM   34  C18 UNL     1      57.817  33.431  16.611  1.00  0.00     0.001 C 
HETATM   35  C19 UNL     1      57.668  32.893  15.218  1.00  0.00     0.000 C 
HETATM   36  C20 UNL     1      57.733  33.928  14.144  1.00  0.00     0.001 C 
HETATM   37  C21 UNL     1      58.597  35.109  14.431  1.00  0.00     0.011 C 
ENDBRANCH  29  32
ENDBRANCH   5  26
TORSDOF 8
ENDMDL
MODEL 5
REMARK VINA RESULT: -7.466111465      3.143      9.573
REMARK  8 active torsions:
REMARK  status: ('A' for Active; 'I' for Inactive)
REMARK    1  A    between atoms: N1_1  and  C1_5 
REMARK    2  A    between atoms: C1_5  and  C2_6 
REMARK    3  A    between atoms: C2_6  and  C3_7 
REMARK    4  A    between atoms: C2_6  and  N3_18 
REMARK    5  A    between atoms: C3_7  and  C4_8 
REMARK    6  A    between atoms: C7_11  and  N2_12 
REMARK       I    between atoms: N4_21  and  C12_22 
REMARK    7  A    between atoms: C12_22  and  C13_24 
REMARK    8  A    between atoms: C15_28  and  C16_29 
ROOT
HETATM    1  N3  UNL     1      54.659  43.578  14.868  1.00  0.00    -0.364 N 
HETATM    2  C10 UNL     1      54.698  43.446  16.271  1.00  0.00     0.083 C 
HETATM    3  C11 UNL     1      54.680  42.044  16.737  1.00  0.00     0.171 C 
HETATM    4  N4  UNL     1      55.590  41.173  16.003  1.00  0.00    -0.339 N 
HETATM    5  C12 UNL     1      56.485  40.325  16.714  1.00  0.00     0.255 C 
HETATM    6  O1  UNL     1      56.486  40.508  17.987  1.00  0.00    -0.267 OA
HETATM    7  C23 UNL     1      55.569  41.284  14.570  1.00  0.00     0.171 C 
HETATM    8  C24 UNL     1      55.401  42.708  14.083  1.00  0.00     0.083 C 
ENDROOT
BRANCH   1   9
HETATM    9  C2  UNL     1      53.776  44.509  14.299  1.00  0.00     0.114 C 
BRANCH   9  10
HETATM   10  C1  UNL     1      52.372  44.385  14.770  1.00  0.00     0.255 C 
BRANCH  10  11
HETATM   11  N1  UNL     1      51.774  45.705  14.835  1.00  0.00    -0.077 N 
ATOM     12  H13 UNL     1      52.361  46.419  14.403  1.00  0.00     0.274 HD
ATOM     13  H12 UNL     1      50.965  45.795  14.220  1.00  0.00     0.274 HD
ATOM     14  H11 UNL     1      51.549  45.923  15.806  1.00  0.00     0.274 HD
ENDBRANCH  10  11
ENDBRANCH   9  10
BRANCH   9  15
HETATM   15  C3  UNL     1      54.296  45.910  14.434  1.00  0.00     0.032 C 
BRANCH  15  16
HETATM   16  C4  UNL     1      54.988  46.435  13.191  1.00  0.00    -0.012 C 
HETATM   17  C5  UNL     1      54.140  45.958  12.035  1.00  0.00     0.007 C 
HETATM   18  C6  UNL     1      54.459  46.561  10.716  1.00  0.00     0.033 C 
HETATM   19  C7  UNL     1      54.731  48.039  10.749  1.00  0.00     0.183 C 
HETATM   20  C8  UNL     1      55.650  48.404  11.895  1.00  0.00     0.033 C 
HETATM   21  C9  UNL     1      54.983  47.944  13.164  1.00  0.00     0.007 C 
BRANCH  19  22
HETATM   22  N2  UNL     1      55.391  48.400   9.506  1.00  0.00    -0.075 N 
ATOM     23  H23 UNL     1      55.313  47.675   8.793  1.00  0.00     0.274 HD
ATOM     24  H22 UNL     1      54.903  49.140   9.001  1.00  0.00     0.274 HD
ATOM     25  H21 UNL     1      56.358  48.641   9.722  1.00  0.00     0.274 HD
ENDBRANCH  19  22
ENDBRANCH  15  16
ENDBRANCH   9  15
ENDBRANCH   1   9
BRANCH   5  26
HETATM   26  C13 UNL     1      57.354  39.320  16.145  1.00  0.00     0.049 A 
HETATM   27  C14 UNL     1      58.479  39.362  15.376  1.00  0.00     0.105 A 
HETATM   28  N5  UNL     1      58.952  38.125  15.164  1.00  0.00    -0.368 N 
HETATM   29  C15 UNL     1      58.173  37.215  15.775  1.00  0.00     0.014 A 
ATOM     30  H5  UNL     1      59.784  37.906  14.616  1.00  0.00     0.165 HD
HETATM   31  C22 UNL     1      57.178  37.938  16.387  1.00  0.00     0.043 A 
BRANCH  29  32
HETATM   32  C16 UNL     1      58.381  35.742  15.800  1.00  0.00     0.035 C 
HETATM   33  C17 UNL     1      57.349  34.995  16.600  1.00  0.00     0.011 C 
HETATM   34  C18 UNL     1      57.844  33.543  16.644  1.00  0.00     0.001 C 
HETATM   35  C19 UNL     1      57.653  32.971  15.269  1.00  0.00     0.000 C 
HETATM   36  C20 UNL     1      57.656  33.982  14.171  1.00  0.00     0.001 C 
HETATM   37  C21 UNL     1      58.506  35.186  14.399  1.00  0.00     0.011 C 
ENDBRANCH  29  32
ENDBRANCH   5  26
TORSDOF 8
ENDMDL
