MODEL 1
REMARK VINA RESULT: -7.792614894      0.000      0.000
REMARK  11 active torsions:
REMARK  status: ('A' for Active; 'I' for Inactive)
REMARK    1  A    between atoms: C2_2  and  C3_3 
REMARK    2  A    between atoms: C2_2  and  C12_12 
REMARK    3  A    between atoms: C3_3  and  C4_4 
REMARK    4  A    between atoms: C4_4  and  C6_6 
REMARK    5  A    between atoms: C6_6  and  C8_8 
REMARK    6  A    between atoms: C12_12  and  O1_13 
REMARK    7  A    between atoms: C12_12  and  N1_15 
REMARK    8  A    between atoms: N1_15  and  C13_17 
REMARK    9  A    between atoms: C13_17  and  C14_18 
REMARK   10  A    between atoms: C16_22  and  C17_23 
REMARK   11  A    between atoms: C17_23  and  C18_25 
ROOT
HETATM    1  C13 UNL     1      55.458  40.659  17.023  1.00  0.00     0.125 C 
HETATM    2  C15 UNL     1      55.445  41.343  15.674  1.00  0.00     0.055 C 
HETATM    3  C16 UNL     1      53.967  41.371  15.732  1.00  0.00     0.067 C 
HETATM    4  C21 UNL     1      53.998  40.339  16.822  1.00  0.00     0.032 C 
HETATM    5  C22 UNL     1      53.116  40.640  18.013  1.00  0.00     0.014 C 
ENDROOT
BRANCH   1   6
HETATM    6  N1  UNL     1      56.316  39.457  17.043  1.00  0.00    -0.351 N 
ATOM      7  H1  UNL     1      57.155  39.445  17.623  1.00  0.00     0.163 HD
BRANCH   6   8
HETATM    8  C12 UNL     1      55.995  38.347  16.282  1.00  0.00     0.146 C 
BRANCH   8   9
HETATM    9  C2  UNL     1      56.282  37.856  14.979  1.00  0.00     0.005 C 
HETATM   10  C1  UNL     1      57.359  38.557  14.407  1.00  0.00     0.028 C 
BRANCH   9  11
HETATM   11  C3  UNL     1      55.802  36.857  14.106  1.00  0.00     0.017 C 
BRANCH  11  12
HETATM   12  C4  UNL     1      56.074  35.651  13.702  1.00  0.00    -0.078 C 
HETATM   13  C5  UNL     1      55.384  34.979  12.607  1.00  0.00     0.044 C 
BRANCH  12  14
HETATM   14  C6  UNL     1      57.191  34.942  14.423  1.00  0.00     0.017 C 
HETATM   15  C7  UNL     1      57.791  33.924  13.456  1.00  0.00     0.015 C 
BRANCH  14  16
HETATM   16  C8  UNL     1      56.822  34.251  15.670  1.00  0.00    -0.044 C 
HETATM   17  C9  UNL     1      57.453  32.846  15.612  1.00  0.00     0.015 C 
HETATM   18  C10 UNL     1      57.448  34.891  16.910  1.00  0.00     0.015 C 
HETATM   19  C11 UNL     1      55.348  34.027  15.882  1.00  0.00     0.015 C 
ENDBRANCH  14  16
ENDBRANCH  12  14
ENDBRANCH  11  12
ENDBRANCH   9  11
ENDBRANCH   8   9
BRANCH   8  20
HETATM   20  O1  UNL     1      55.197  37.519  16.962  1.00  0.00    -0.346 OA
ATOM     21  H1  UNL     1      54.353  37.914  17.148  1.00  0.00     0.219 HD
ENDBRANCH   8  20
ENDBRANCH   6   8
ENDBRANCH   1   6
BRANCH   1  22
HETATM   22  C14 UNL     1      55.771  41.638  18.079  1.00  0.00     0.203 C 
HETATM   23  O2  UNL     1      55.767  42.877  17.973  1.00  0.00    -0.646 OA
HETATM   24  O3  UNL     1      56.111  41.134  19.343  1.00  0.00    -0.646 OA
ENDBRANCH   1  22
BRANCH   3  25
HETATM   25  C17 UNL     1      53.228  40.983  14.511  1.00  0.00     0.156 C 
HETATM   26  O4  UNL     1      52.419  41.789  14.082  1.00  0.00    -0.295 OA
BRANCH  25  27
HETATM   27  C18 UNL     1      53.407  39.711  13.800  1.00  0.00     0.181 C 
HETATM   28  C19 UNL     1      53.149  39.912  12.303  1.00  0.00     0.213 C 
HETATM   29  O5  UNL     1      51.779  39.623  12.096  1.00  0.00    -0.302 OA
HETATM   30  C20 UNL     1      51.407  38.722  13.112  1.00  0.00     0.361 C 
HETATM   31  O6  UNL     1      50.362  38.022  13.130  1.00  0.00    -0.238 OA
HETATM   32  N2  UNL     1      52.405  38.730  14.122  1.00  0.00    -0.323 N 
ATOM     33  H2  UNL     1      52.412  38.133  14.949  1.00  0.00     0.165 HD
ENDBRANCH  25  27
ENDBRANCH   3  25
TORSDOF 11
ENDMDL
MODEL 2
REMARK VINA RESULT: -7.780692191      1.996      4.929
REMARK  11 active torsions:
REMARK  status: ('A' for Active; 'I' for Inactive)
REMARK    1  A    between atoms: C2_2  and  C3_3 
REMARK    2  A    between atoms: C2_2  and  C12_12 
REMARK    3  A    between atoms: C3_3  and  C4_4 
REMARK    4  A    between atoms: C4_4  and  C6_6 
REMARK    5  A    between atoms: C6_6  and  C8_8 
REMARK    6  A    between atoms: C12_12  and  O1_13 
REMARK    7  A    between atoms: C12_12  and  N1_15 
REMARK    8  A    between atoms: N1_15  and  C13_17 
REMARK    9  A    between atoms: C13_17  and  C14_18 
REMARK   10  A    between atoms: C16_22  and  C17_23 
REMARK   11  A    between atoms: C17_23  and  C18_25 
ROOT
HETATM    1  C13 UNL     1      54.135  41.065  15.927  1.00  0.00     0.125 C 
HETATM    2  C15 UNL     1      54.434  40.194  17.127  1.00  0.00     0.055 C 
HETATM    3  C16 UNL     1      55.219  41.306  17.705  1.00  0.00     0.067 C 
HETATM    4  C21 UNL     1      55.269  41.963  16.356  1.00  0.00     0.032 C 
HETATM    5  C22 UNL     1      54.941  43.439  16.352  1.00  0.00     0.014 C 
ENDROOT
BRANCH   1   6
HETATM    6  N1  UNL     1      54.396  40.377  14.646  1.00  0.00    -0.351 N 
ATOM      7  H1  UNL     1      54.689  40.919  13.833  1.00  0.00     0.163 HD
BRANCH   6   8
HETATM    8  C12 UNL     1      54.248  39.006  14.537  1.00  0.00     0.146 C 
BRANCH   8   9
HETATM    9  C2  UNL     1      55.092  37.861  14.545  1.00  0.00     0.005 C 
HETATM   10  C1  UNL     1      56.444  38.237  14.456  1.00  0.00     0.028 C 
BRANCH   9  11
HETATM   11  C3  UNL     1      54.955  36.459  14.633  1.00  0.00     0.017 C 
BRANCH  11  12
HETATM   12  C4  UNL     1      55.350  35.367  14.048  1.00  0.00    -0.078 C 
HETATM   13  C5  UNL     1      55.367  35.173  12.603  1.00  0.00     0.044 C 
BRANCH  12  14
HETATM   14  C6  UNL     1      55.830  34.262  14.952  1.00  0.00     0.017 C 
HETATM   15  C7  UNL     1      54.813  34.116  16.082  1.00  0.00     0.015 C 
BRANCH  14  16
HETATM   16  C8  UNL     1      57.168  34.441  15.540  1.00  0.00    -0.044 C 
HETATM   17  C9  UNL     1      57.657  33.049  15.987  1.00  0.00     0.015 C 
HETATM   18  C10 UNL     1      58.210  34.892  14.516  1.00  0.00     0.015 C 
HETATM   19  C11 UNL     1      57.231  35.309  16.770  1.00  0.00     0.015 C 
ENDBRANCH  14  16
ENDBRANCH  12  14
ENDBRANCH  11  12
ENDBRANCH   9  11
ENDBRANCH   8   9
BRANCH   8  20
HETATM   20  O1  UNL     1      52.963  38.677  14.381  1.00  0.00    -0.346 OA
ATOM     21  H1  UNL     1      52.445  39.409  14.068  1.00  0.00     0.219 HD
ENDBRANCH   8  20
ENDBRANCH   6   8
ENDBRANCH   1   6
BRANCH   1  22
HETATM   22  C14 UNL     1      52.779  41.629  16.040  1.00  0.00     0.203 C 
HETATM   23  O2  UNL     1      52.236  42.430  15.260  1.00  0.00    -0.646 OA
HETATM   24  O3  UNL     1      52.006  41.230  17.141  1.00  0.00    -0.646 OA
ENDBRANCH   1  22
BRANCH   3  25
HETATM   25  C17 UNL     1      56.534  40.977  18.299  1.00  0.00     0.156 C 
HETATM   26  O4  UNL     1      56.601  40.986  19.517  1.00  0.00    -0.295 OA
BRANCH  25  27
HETATM   27  C18 UNL     1      57.737  40.647  17.525  1.00  0.00     0.181 C 
HETATM   28  C19 UNL     1      58.064  39.158  17.682  1.00  0.00     0.213 C 
HETATM   29  O5  UNL     1      58.964  39.065  18.771  1.00  0.00    -0.302 OA
HETATM   30  C20 UNL     1      59.638  40.299  18.834  1.00  0.00     0.361 C 
HETATM   31  O6  UNL     1      60.692  40.530  19.481  1.00  0.00    -0.238 OA
HETATM   32  N2  UNL     1      58.935  41.249  18.047  1.00  0.00    -0.323 N 
ATOM     33  H2  UNL     1      59.233  42.210  17.878  1.00  0.00     0.165 HD
ENDBRANCH  25  27
ENDBRANCH   3  25
TORSDOF 11
ENDMDL
MODEL 3
REMARK VINA RESULT: -7.687259078      1.333      2.238
REMARK  11 active torsions:
REMARK  status: ('A' for Active; 'I' for Inactive)
REMARK    1  A    between atoms: C2_2  and  C3_3 
REMARK    2  A    between atoms: C2_2  and  C12_12 
REMARK    3  A    between atoms: C3_3  and  C4_4 
REMARK    4  A    between atoms: C4_4  and  C6_6 
REMARK    5  A    between atoms: C6_6  and  C8_8 
REMARK    6  A    between atoms: C12_12  and  O1_13 
REMARK    7  A    between atoms: C12_12  and  N1_15 
REMARK    8  A    between atoms: N1_15  and  C13_17 
REMARK    9  A    between atoms: C13_17  and  C14_18 
REMARK   10  A    between atoms: C16_22  and  C17_23 
REMARK   11  A    between atoms: C17_23  and  C18_25 
ROOT
HETATM    1  C13 UNL     1      55.105  41.666  16.295  1.00  0.00     0.125 C 
HETATM    2  C15 UNL     1      54.462  42.275  15.068  1.00  0.00     0.055 C 
HETATM    3  C16 UNL     1      53.172  41.682  15.482  1.00  0.00     0.067 C 
HETATM    4  C21 UNL     1      53.903  40.762  16.417  1.00  0.00     0.032 C 
HETATM    5  C22 UNL     1      53.321  40.672  17.809  1.00  0.00     0.014 C 
ENDROOT
BRANCH   1   6
HETATM    6  N1  UNL     1      56.349  40.934  15.981  1.00  0.00    -0.351 N 
ATOM      7  H1  UNL     1      57.071  41.384  15.419  1.00  0.00     0.163 HD
BRANCH   6   8
HETATM    8  C12 UNL     1      56.545  39.644  16.440  1.00  0.00     0.146 C 
BRANCH   8   9
HETATM    9  C2  UNL     1      56.428  38.324  15.925  1.00  0.00     0.005 C 
HETATM   10  C1  UNL     1      56.076  38.348  14.563  1.00  0.00     0.028 C 
BRANCH   9  11
HETATM   11  C3  UNL     1      56.579  37.000  16.390  1.00  0.00     0.017 C 
BRANCH  11  12
HETATM   12  C4  UNL     1      57.491  36.092  16.576  1.00  0.00    -0.078 C 
HETATM   13  C5  UNL     1      58.680  36.283  17.398  1.00  0.00     0.044 C 
BRANCH  12  14
HETATM   14  C6  UNL     1      57.260  34.766  15.899  1.00  0.00     0.017 C 
HETATM   15  C7  UNL     1      57.996  33.701  16.710  1.00  0.00     0.015 C 
BRANCH  14  16
HETATM   16  C8  UNL     1      57.690  34.672  14.494  1.00  0.00    -0.044 C 
HETATM   17  C9  UNL     1      58.234  33.245  14.281  1.00  0.00     0.015 C 
HETATM   18  C10 UNL     1      56.524  34.777  13.510  1.00  0.00     0.015 C 
HETATM   19  C11 UNL     1      58.806  35.598  14.088  1.00  0.00     0.015 C 
ENDBRANCH  14  16
ENDBRANCH  12  14
ENDBRANCH  11  12
ENDBRANCH   9  11
ENDBRANCH   8   9
BRANCH   8  20
HETATM   20  O1  UNL     1      56.951  39.648  17.712  1.00  0.00    -0.346 OA
ATOM     21  H1  UNL     1      56.612  38.903  18.195  1.00  0.00     0.219 HD
ENDBRANCH   8  20
ENDBRANCH   6   8
ENDBRANCH   1   6
BRANCH   1  22
HETATM   22  C14 UNL     1      55.258  42.690  17.342  1.00  0.00     0.203 C 
HETATM   23  O2  UNL     1      54.665  43.781  17.412  1.00  0.00    -0.646 OA
HETATM   24  O3  UNL     1      56.165  42.421  18.377  1.00  0.00    -0.646 OA
ENDBRANCH   1  22
BRANCH   3  25
HETATM   25  C17 UNL     1      52.363  41.013  14.439  1.00  0.00     0.156 C 
HETATM   26  O4  UNL     1      51.887  41.730  13.574  1.00  0.00    -0.295 OA
BRANCH  25  27
HETATM   27  C18 UNL     1      52.102  39.569  14.386  1.00  0.00     0.181 C 
HETATM   28  C19 UNL     1      51.688  39.168  12.966  1.00  0.00     0.213 C 
HETATM   29  O5  UNL     1      50.275  39.236  12.933  1.00  0.00    -0.302 OA
HETATM   30  C20 UNL     1      49.838  39.019  14.253  1.00  0.00     0.361 C 
HETATM   31  O6  UNL     1      48.663  38.739  14.604  1.00  0.00    -0.238 OA
HETATM   32  N2  UNL     1      50.942  39.169  15.135  1.00  0.00    -0.323 N 
ATOM     33  H2  UNL     1      50.916  39.017  16.143  1.00  0.00     0.165 HD
ENDBRANCH  25  27
ENDBRANCH   3  25
TORSDOF 11
ENDMDL
MODEL 4
REMARK VINA RESULT: -7.683243518      1.349      1.811
REMARK  11 active torsions:
REMARK  status: ('A' for Active; 'I' for Inactive)
REMARK    1  A    between atoms: C2_2  and  C3_3 
REMARK    2  A    between atoms: C2_2  and  C12_12 
REMARK    3  A    between atoms: C3_3  and  C4_4 
REMARK    4  A    between atoms: C4_4  and  C6_6 
REMARK    5  A    between atoms: C6_6  and  C8_8 
REMARK    6  A    between atoms: C12_12  and  O1_13 
REMARK    7  A    between atoms: C12_12  and  N1_15 
REMARK    8  A    between atoms: N1_15  and  C13_17 
REMARK    9  A    between atoms: C13_17  and  C14_18 
REMARK   10  A    between atoms: C16_22  and  C17_23 
REMARK   11  A    between atoms: C17_23  and  C18_25 
ROOT
HETATM    1  C13 UNL     1      55.573  40.583  17.011  1.00  0.00     0.125 C 
HETATM    2  C15 UNL     1      55.688  41.207  15.638  1.00  0.00     0.055 C 
HETATM    3  C16 UNL     1      54.212  41.284  15.578  1.00  0.00     0.067 C 
HETATM    4  C21 UNL     1      54.123  40.300  16.709  1.00  0.00     0.032 C 
HETATM    5  C22 UNL     1      53.163  40.681  17.813  1.00  0.00     0.014 C 
ENDROOT
BRANCH   1   6
HETATM    6  N1  UNL     1      56.385  39.356  17.147  1.00  0.00    -0.351 N 
ATOM      7  H1  UNL     1      57.091  39.297  17.881  1.00  0.00     0.163 HD
BRANCH   6   8
HETATM    8  C12 UNL     1      56.198  38.286  16.290  1.00  0.00     0.146 C 
BRANCH   8   9
HETATM    9  C2  UNL     1      56.724  37.842  15.046  1.00  0.00     0.005 C 
HETATM   10  C1  UNL     1      57.976  38.431  14.794  1.00  0.00     0.028 C 
BRANCH   9  11
HETATM   11  C3  UNL     1      56.352  36.968  14.003  1.00  0.00     0.017 C 
BRANCH  11  12
HETATM   12  C4  UNL     1      56.336  35.703  13.701  1.00  0.00    -0.078 C 
HETATM   13  C5  UNL     1      55.406  35.099  12.755  1.00  0.00     0.044 C 
BRANCH  12  14
HETATM   14  C6  UNL     1      57.372  34.843  14.377  1.00  0.00     0.017 C 
HETATM   15  C7  UNL     1      57.794  33.763  13.382  1.00  0.00     0.015 C 
BRANCH  14  16
HETATM   16  C8  UNL     1      56.958  34.195  15.632  1.00  0.00    -0.044 C 
HETATM   17  C9  UNL     1      57.510  32.756  15.602  1.00  0.00     0.015 C 
HETATM   18  C10 UNL     1      57.611  34.820  16.866  1.00  0.00     0.015 C 
HETATM   19  C11 UNL     1      55.472  34.056  15.837  1.00  0.00     0.015 C 
ENDBRANCH  14  16
ENDBRANCH  12  14
ENDBRANCH  11  12
ENDBRANCH   9  11
ENDBRANCH   8   9
BRANCH   8  20
HETATM   20  O1  UNL     1      55.271  37.452  16.765  1.00  0.00    -0.346 OA
ATOM     21  H1  UNL     1      54.397  37.820  16.704  1.00  0.00     0.219 HD
ENDBRANCH   8  20
ENDBRANCH   6   8
ENDBRANCH   1   6
BRANCH   1  22
HETATM   22  C14 UNL     1      55.837  41.596  18.047  1.00  0.00     0.203 C 
HETATM   23  O2  UNL     1      55.830  42.831  17.902  1.00  0.00    -0.646 OA
HETATM   24  O3  UNL     1      56.130  41.135  19.338  1.00  0.00    -0.646 OA
ENDBRANCH   1  22
BRANCH   3  25
HETATM   25  C17 UNL     1      53.557  40.866  14.320  1.00  0.00     0.156 C 
HETATM   26  O4  UNL     1      54.058  39.923  13.730  1.00  0.00    -0.295 OA
BRANCH  25  27
HETATM   27  C18 UNL     1      52.364  41.506  13.750  1.00  0.00     0.181 C 
HETATM   28  C19 UNL     1      52.393  43.011  14.040  1.00  0.00     0.213 C 
HETATM   29  O5  UNL     1      51.685  43.193  15.251  1.00  0.00    -0.302 OA
HETATM   30  C20 UNL     1      50.771  42.126  15.340  1.00  0.00     0.361 C 
HETATM   31  O6  UNL     1      49.785  42.062  16.118  1.00  0.00    -0.238 OA
HETATM   32  N2  UNL     1      51.142  41.123  14.404  1.00  0.00    -0.323 N 
ATOM     33  H2  UNL     1      50.623  40.264  14.224  1.00  0.00     0.165 HD
ENDBRANCH  25  27
ENDBRANCH   3  25
TORSDOF 11
ENDMDL
MODEL 5
REMARK VINA RESULT: -7.669129980      1.816      4.761
REMARK  11 active torsions:
REMARK  status: ('A' for Active; 'I' for Inactive)
REMARK    1  A    between atoms: C2_2  and  C3_3 
REMARK    2  A    between atoms: C2_2  and  C12_12 
REMARK    3  A    between atoms: C3_3  and  C4_4 
REMARK    4  A    between atoms: C4_4  and  C6_6 
REMARK    5  A    between atoms: C6_6  and  C8_8 
REMARK    6  A    between atoms: C12_12  and  O1_13 
REMARK    7  A    between atoms: C12_12  and  N1_15 
REMARK    8  A    between atoms: N1_15  and  C13_17 
REMARK    9  A    between atoms: C13_17  and  C14_18 
REMARK   10  A    between atoms: C16_22  and  C17_23 
REMARK   11  A    between atoms: C17_23  and  C18_25 
ROOT
HETATM    1  C13 UNL     1      54.148  40.382  15.631  1.00  0.00     0.125 C 
HETATM    2  C15 UNL     1      55.079  39.700  16.608  1.00  0.00     0.055 C 
HETATM    3  C16 UNL     1      56.210  40.438  16.006  1.00  0.00     0.067 C 
HETATM    4  C21 UNL     1      55.358  40.753  14.810  1.00  0.00     0.032 C 
HETATM    5  C22 UNL     1      55.397  42.196  14.360  1.00  0.00     0.014 C 
ENDROOT
BRANCH   1   6
HETATM    6  N1  UNL     1      53.251  39.432  14.942  1.00  0.00    -0.351 N 
ATOM      7  H1  UNL     1      52.330  39.234  15.332  1.00  0.00     0.163 HD
BRANCH   6   8
HETATM    8  C12 UNL     1      53.648  38.807  13.773  1.00  0.00     0.146 C 
BRANCH   8   9
HETATM    9  C2  UNL     1      54.564  37.787  13.394  1.00  0.00     0.005 C 
HETATM   10  C1  UNL     1      54.940  37.928  12.047  1.00  0.00     0.028 C 
BRANCH   9  11
HETATM   11  C3  UNL     1      55.210  36.684  13.993  1.00  0.00     0.017 C 
BRANCH  11  12
HETATM   12  C4  UNL     1      55.051  35.411  14.202  1.00  0.00    -0.078 C 
HETATM   13  C5  UNL     1      54.270  34.531  13.341  1.00  0.00     0.044 C 
BRANCH  12  14
HETATM   14  C6  UNL     1      55.749  34.841  15.410  1.00  0.00     0.017 C 
HETATM   15  C7  UNL     1      55.809  35.941  16.469  1.00  0.00     0.015 C 
BRANCH  14  16
HETATM   16  C8  UNL     1      57.109  34.323  15.189  1.00  0.00    -0.044 C 
HETATM   17  C9  UNL     1      58.076  35.247  15.955  1.00  0.00     0.015 C 
HETATM   18  C10 UNL     1      57.329  32.947  15.819  1.00  0.00     0.015 C 
HETATM   19  C11 UNL     1      57.587  34.328  13.760  1.00  0.00     0.015 C 
ENDBRANCH  14  16
ENDBRANCH  12  14
ENDBRANCH  11  12
ENDBRANCH   9  11
ENDBRANCH   8   9
BRANCH   8  20
HETATM   20  O1  UNL     1      52.991  39.302  12.722  1.00  0.00    -0.346 OA
ATOM     21  H1  UNL     1      52.171  39.710  12.976  1.00  0.00     0.219 HD
ENDBRANCH   8  20
ENDBRANCH   6   8
ENDBRANCH   1   6
BRANCH   1  22
HETATM   22  C14 UNL     1      53.448  41.494  16.297  1.00  0.00     0.203 C 
HETATM   23  O2  UNL     1      53.765  42.041  17.368  1.00  0.00    -0.646 OA
HETATM   24  O3  UNL     1      52.301  42.000  15.670  1.00  0.00    -0.646 OA
ENDBRANCH   1  22
BRANCH   3  25
HETATM   25  C17 UNL     1      57.447  39.678  15.721  1.00  0.00     0.156 C 
HETATM   26  O4  UNL     1      57.462  39.025  14.691  1.00  0.00    -0.295 OA
BRANCH  25  27
HETATM   27  C18 UNL     1      58.633  39.664  16.587  1.00  0.00     0.181 C 
HETATM   28  C19 UNL     1      58.486  38.572  17.651  1.00  0.00     0.213 C 
HETATM   29  O5  UNL     1      57.900  39.196  18.778  1.00  0.00    -0.302 OA
HETATM   30  C20 UNL     1      58.264  40.554  18.713  1.00  0.00     0.361 C 
HETATM   31  O6  UNL     1      58.173  41.387  19.651  1.00  0.00    -0.238 OA
HETATM   32  N2  UNL     1      58.755  40.837  17.410  1.00  0.00    -0.323 N 
ATOM     33  H2  UNL     1      59.134  41.733  17.105  1.00  0.00     0.165 HD
ENDBRANCH  25  27
ENDBRANCH   3  25
TORSDOF 11
ENDMDL
