MODEL 1
REMARK VINA RESULT: -8.082424589      0.000      0.000
REMARK  9 active torsions:
REMARK  status: ('A' for Active; 'I' for Inactive)
REMARK    1  A    between atoms: C2_2  and  O1_3 
REMARK    2  A    between atoms: C2_2  and  C3_5 
REMARK    3  A    between atoms: C3_5  and  N1_6 
REMARK       I    between atoms: N1_6  and  C4_8 
REMARK    4  A    between atoms: C4_8  and  C5_10 
REMARK    5  A    between atoms: C5_10  and  C6_11 
REMARK    6  A    between atoms: C6_11  and  C7_12 
REMARK    7  A    between atoms: C7_12  and  O4_14 
REMARK    8  A    between atoms: O4_14  and  C8_15 
REMARK    9  A    between atoms: C17_24  and  O5_25 
ROOT
HETATM    1  C8  UNL     1      57.279  35.483  16.020  1.00  0.00     0.140 C 
HETATM    2  C9  UNL     1      56.887  34.025  15.913  1.00  0.00     0.034 C 
HETATM    3  C10 UNL     1      57.466  33.679  14.533  1.00  0.00     0.008 C 
HETATM    4  C11 UNL     1      57.097  34.893  13.671  1.00  0.00    -0.003 C 
HETATM    5  C12 UNL     1      55.694  34.682  13.217  1.00  0.00     0.006 C 
HETATM    6  C13 UNL     1      55.082  35.858  12.499  1.00  0.00     0.006 C 
HETATM    7  C14 UNL     1      55.926  37.085  12.880  1.00  0.00    -0.005 C 
HETATM    8  C15 UNL     1      55.412  38.355  12.372  1.00  0.00     0.003 C 
HETATM    9  C16 UNL     1      54.102  38.310  11.598  1.00  0.00     0.038 C 
HETATM   10  C17 UNL     1      53.437  39.125  12.667  1.00  0.00     0.127 C 
HETATM   11  C18 UNL     1      54.794  39.306  13.316  1.00  0.00    -0.014 C 
HETATM   12  C19 UNL     1      55.219  40.773  13.131  1.00  0.00     0.018 C 
HETATM   13  C20 UNL     1      54.864  38.968  14.761  1.00  0.00     0.012 C 
HETATM   14  C21 UNL     1      56.233  38.320  15.015  1.00  0.00     0.007 C 
HETATM   15  C22 UNL     1      56.113  36.978  14.368  1.00  0.00     0.001 C 
HETATM   16  C23 UNL     1      57.261  36.050  14.634  1.00  0.00    -0.010 C 
HETATM   17  C24 UNL     1      58.600  36.744  14.414  1.00  0.00     0.018 C 
ENDROOT
BRANCH   1  18
HETATM   18  O4  UNL     1      58.593  35.503  16.574  1.00  0.00    -0.315 OA
BRANCH  18  19
HETATM   19  C7  UNL     1      58.864  35.644  17.909  1.00  0.00     0.259 C 
HETATM   20  O3  UNL     1      59.190  34.634  18.580  1.00  0.00    -0.265 OA
BRANCH  19  21
HETATM   21  C6  UNL     1      58.754  37.005  18.499  1.00  0.00     0.120 C 
BRANCH  21  22
HETATM   22  C5  UNL     1      59.491  37.968  17.613  1.00  0.00     0.112 C 
BRANCH  22  23
HETATM   23  C4  UNL     1      59.316  39.375  18.055  1.00  0.00     0.218 C 
HETATM   24  N1  UNL     1      58.016  39.857  18.349  1.00  0.00    -0.359 N 
ATOM     25  H1  UNL     1      57.196  39.256  18.263  1.00  0.00     0.162 HD
HETATM   26  O2  UNL     1      60.347  40.084  18.149  1.00  0.00    -0.274 OA
BRANCH  24  27
HETATM   27  C3  UNL     1      57.896  41.238  18.778  1.00  0.00     0.153 C 
BRANCH  27  28
HETATM   28  C2  UNL     1      56.465  41.697  18.580  1.00  0.00     0.132 C 
HETATM   29  C1  UNL     1      55.966  41.241  17.233  1.00  0.00     0.041 C 
BRANCH  28  30
HETATM   30  O1  UNL     1      55.680  41.191  19.614  1.00  0.00    -0.394 OA
ATOM     31  H1  UNL     1      55.331  41.887  20.157  1.00  0.00     0.210 HD
ENDBRANCH  28  30
ENDBRANCH  27  28
ENDBRANCH  24  27
ENDBRANCH  22  23
ENDBRANCH  21  22
ENDBRANCH  19  21
ENDBRANCH  18  19
ENDBRANCH   1  18
BRANCH  10  32
HETATM   32  O5  UNL     1      52.514  38.410  13.417  1.00  0.00    -0.395 OA
ATOM     33  H5  UNL     1      52.831  37.562  13.701  1.00  0.00     0.210 HD
ENDBRANCH  10  32
TORSDOF 9
ENDMDL
MODEL 2
REMARK VINA RESULT: -7.865137927      1.865      5.268
REMARK  9 active torsions:
REMARK  status: ('A' for Active; 'I' for Inactive)
REMARK    1  A    between atoms: C2_2  and  O1_3 
REMARK    2  A    between atoms: C2_2  and  C3_5 
REMARK    3  A    between atoms: C3_5  and  N1_6 
REMARK       I    between atoms: N1_6  and  C4_8 
REMARK    4  A    between atoms: C4_8  and  C5_10 
REMARK    5  A    between atoms: C5_10  and  C6_11 
REMARK    6  A    between atoms: C6_11  and  C7_12 
REMARK    7  A    between atoms: C7_12  and  O4_14 
REMARK    8  A    between atoms: O4_14  and  C8_15 
REMARK    9  A    between atoms: C17_24  and  O5_25 
ROOT
HETATM    1  C8  UNL     1      55.300  40.858  14.511  1.00  0.00     0.140 C 
HETATM    2  C9  UNL     1      55.765  41.620  13.289  1.00  0.00     0.034 C 
HETATM    3  C10 UNL     1      54.637  41.283  12.302  1.00  0.00     0.008 C 
HETATM    4  C11 UNL     1      54.391  39.785  12.530  1.00  0.00    -0.003 C 
HETATM    5  C12 UNL     1      55.413  39.059  11.725  1.00  0.00     0.006 C 
HETATM    6  C13 UNL     1      55.452  37.570  11.955  1.00  0.00     0.006 C 
HETATM    7  C14 UNL     1      54.756  37.322  13.303  1.00  0.00    -0.005 C 
HETATM    8  C15 UNL     1      54.801  35.935  13.762  1.00  0.00     0.003 C 
HETATM    9  C16 UNL     1      55.567  34.945  12.895  1.00  0.00     0.038 C 
HETATM   10  C17 UNL     1      56.561  34.741  13.999  1.00  0.00     0.127 C 
HETATM   11  C18 UNL     1      55.678  35.584  14.896  1.00  0.00    -0.014 C 
HETATM   12  C19 UNL     1      55.041  34.657  15.945  1.00  0.00     0.018 C 
HETATM   13  C20 UNL     1      56.358  36.702  15.597  1.00  0.00     0.012 C 
HETATM   14  C21 UNL     1      55.373  37.881  15.645  1.00  0.00     0.007 C 
HETATM   15  C22 UNL     1      55.327  38.360  14.230  1.00  0.00     0.001 C 
HETATM   16  C23 UNL     1      54.575  39.640  14.026  1.00  0.00    -0.010 C 
HETATM   17  C24 UNL     1      53.223  39.610  14.731  1.00  0.00     0.018 C 
ENDROOT
BRANCH   1  18
HETATM   18  O4  UNL     1      54.426  41.735  15.219  1.00  0.00    -0.315 OA
BRANCH  18  19
HETATM   19  C7  UNL     1      54.641  42.164  16.502  1.00  0.00     0.259 C 
HETATM   20  O3  UNL     1      54.240  43.304  16.844  1.00  0.00    -0.265 OA
BRANCH  19  21
HETATM   21  C6  UNL     1      55.347  41.244  17.433  1.00  0.00     0.120 C 
BRANCH  21  22
HETATM   22  C5  UNL     1      56.277  42.056  18.290  1.00  0.00     0.112 C 
BRANCH  22  23
HETATM   23  C4  UNL     1      57.432  41.255  18.771  1.00  0.00     0.218 C 
HETATM   24  N1  UNL     1      58.705  41.440  18.175  1.00  0.00    -0.359 N 
ATOM     25  H1  UNL     1      58.844  42.113  17.421  1.00  0.00     0.162 HD
HETATM   26  O2  UNL     1      57.222  40.437  19.699  1.00  0.00    -0.274 OA
BRANCH  24  27
HETATM   27  C3  UNL     1      59.801  40.635  18.678  1.00  0.00     0.153 C 
BRANCH  27  28
HETATM   28  C2  UNL     1      60.183  39.606  17.634  1.00  0.00     0.132 C 
HETATM   29  C1  UNL     1      59.440  38.320  17.890  1.00  0.00     0.041 C 
BRANCH  28  30
HETATM   30  O1  UNL     1      59.898  40.117  16.369  1.00  0.00    -0.394 OA
ATOM     31  H1  UNL     1      59.076  40.592  16.364  1.00  0.00     0.210 HD
ENDBRANCH  28  30
ENDBRANCH  27  28
ENDBRANCH  24  27
ENDBRANCH  22  23
ENDBRANCH  21  22
ENDBRANCH  19  21
ENDBRANCH  18  19
ENDBRANCH   1  18
BRANCH  10  32
HETATM   32  O5  UNL     1      57.810  35.278  13.727  1.00  0.00    -0.395 OA
ATOM     33  H5  UNL     1      58.530  34.751  14.052  1.00  0.00     0.210 HD
ENDBRANCH  10  32
TORSDOF 9
ENDMDL
MODEL 3
REMARK VINA RESULT: -7.847425501      2.189      5.489
REMARK  9 active torsions:
REMARK  status: ('A' for Active; 'I' for Inactive)
REMARK    1  A    between atoms: C2_2  and  O1_3 
REMARK    2  A    between atoms: C2_2  and  C3_5 
REMARK    3  A    between atoms: C3_5  and  N1_6 
REMARK       I    between atoms: N1_6  and  C4_8 
REMARK    4  A    between atoms: C4_8  and  C5_10 
REMARK    5  A    between atoms: C5_10  and  C6_11 
REMARK    6  A    between atoms: C6_11  and  C7_12 
REMARK    7  A    between atoms: C7_12  and  O4_14 
REMARK    8  A    between atoms: O4_14  and  C8_15 
REMARK    9  A    between atoms: C17_24  and  O5_25 
ROOT
HETATM    1  C8  UNL     1      57.041  35.382  14.794  1.00  0.00     0.140 C 
HETATM    2  C9  UNL     1      57.891  34.131  14.842  1.00  0.00     0.034 C 
HETATM    3  C10 UNL     1      57.593  33.644  16.268  1.00  0.00     0.008 C 
HETATM    4  C11 UNL     1      57.632  34.929  17.106  1.00  0.00    -0.003 C 
HETATM    5  C12 UNL     1      59.065  35.190  17.416  1.00  0.00     0.006 C 
HETATM    6  C13 UNL     1      59.331  36.514  18.087  1.00  0.00     0.006 C 
HETATM    7  C14 UNL     1      58.103  37.395  17.807  1.00  0.00    -0.005 C 
HETATM    8  C15 UNL     1      58.227  38.773  18.279  1.00  0.00     0.003 C 
HETATM    9  C16 UNL     1      59.550  39.168  18.919  1.00  0.00     0.038 C 
HETATM   10  C17 UNL     1      59.808  40.133  17.801  1.00  0.00     0.127 C 
HETATM   11  C18 UNL     1      58.409  39.854  17.291  1.00  0.00    -0.014 C 
HETATM   12  C19 UNL     1      57.553  41.108  17.538  1.00  0.00     0.018 C 
HETATM   13  C20 UNL     1      58.311  39.484  15.856  1.00  0.00     0.012 C 
HETATM   14  C21 UNL     1      57.206  38.424  15.729  1.00  0.00     0.007 C 
HETATM   15  C22 UNL     1      57.816  37.205  16.343  1.00  0.00     0.001 C 
HETATM   16  C23 UNL     1      57.010  35.952  16.179  1.00  0.00    -0.010 C 
HETATM   17  C24 UNL     1      55.546  36.180  16.540  1.00  0.00     0.018 C 
ENDROOT
BRANCH   1  18
HETATM   18  O4  UNL     1      55.743  34.966  14.373  1.00  0.00    -0.315 OA
BRANCH  18  19
HETATM   19  C7  UNL     1      55.177  35.308  13.174  1.00  0.00     0.259 C 
HETATM   20  O3  UNL     1      54.673  34.410  12.455  1.00  0.00    -0.265 OA
BRANCH  19  21
HETATM   21  C6  UNL     1      55.191  36.743  12.783  1.00  0.00     0.120 C 
BRANCH  21  22
HETATM   22  C5  UNL     1      53.908  37.374  13.248  1.00  0.00     0.112 C 
BRANCH  22  23
HETATM   23  C4  UNL     1      54.113  38.771  13.711  1.00  0.00     0.218 C 
HETATM   24  N1  UNL     1      53.489  39.207  14.907  1.00  0.00    -0.359 N 
ATOM     25  H1  UNL     1      52.902  38.580  15.457  1.00  0.00     0.162 HD
HETATM   26  O2  UNL     1      54.841  39.512  13.008  1.00  0.00    -0.274 OA
BRANCH  24  27
HETATM   27  C3  UNL     1      53.719  40.579  15.319  1.00  0.00     0.153 C 
BRANCH  27  28
HETATM   28  C2  UNL     1      53.600  40.672  16.826  1.00  0.00     0.132 C 
HETATM   29  C1  UNL     1      52.146  40.717  17.221  1.00  0.00     0.041 C 
BRANCH  28  30
HETATM   30  O1  UNL     1      54.252  39.582  17.400  1.00  0.00    -0.394 OA
ATOM     31  H1  UNL     1      54.478  38.930  16.748  1.00  0.00     0.210 HD
ENDBRANCH  28  30
ENDBRANCH  27  28
ENDBRANCH  24  27
ENDBRANCH  22  23
ENDBRANCH  21  22
ENDBRANCH  19  21
ENDBRANCH  18  19
ENDBRANCH   1  18
BRANCH  10  32
HETATM   32  O5  UNL     1      60.834  39.741  16.954  1.00  0.00    -0.395 OA
ATOM     33  H5  UNL     1      61.673  40.131  17.167  1.00  0.00     0.210 HD
ENDBRANCH  10  32
TORSDOF 9
ENDMDL
MODEL 4
REMARK VINA RESULT: -7.831178995      1.381      1.974
REMARK  9 active torsions:
REMARK  status: ('A' for Active; 'I' for Inactive)
REMARK    1  A    between atoms: C2_2  and  O1_3 
REMARK    2  A    between atoms: C2_2  and  C3_5 
REMARK    3  A    between atoms: C3_5  and  N1_6 
REMARK       I    between atoms: N1_6  and  C4_8 
REMARK    4  A    between atoms: C4_8  and  C5_10 
REMARK    5  A    between atoms: C5_10  and  C6_11 
REMARK    6  A    between atoms: C6_11  and  C7_12 
REMARK    7  A    between atoms: C7_12  and  O4_14 
REMARK    8  A    between atoms: O4_14  and  C8_15 
REMARK    9  A    between atoms: C17_24  and  O5_25 
ROOT
HETATM    1  C8  UNL     1      57.512  37.031  16.592  1.00  0.00     0.140 C 
HETATM    2  C9  UNL     1      57.169  35.606  16.972  1.00  0.00     0.034 C 
HETATM    3  C10 UNL     1      57.801  34.843  15.798  1.00  0.00     0.008 C 
HETATM    4  C11 UNL     1      57.421  35.685  14.573  1.00  0.00    -0.003 C 
HETATM    5  C12 UNL     1      56.039  35.279  14.190  1.00  0.00     0.006 C 
HETATM    6  C13 UNL     1      55.413  36.122  13.108  1.00  0.00     0.006 C 
HETATM    7  C14 UNL     1      56.207  37.439  13.073  1.00  0.00    -0.005 C 
HETATM    8  C15 UNL     1      55.668  38.445  12.160  1.00  0.00     0.003 C 
HETATM    9  C16 UNL     1      54.385  38.093  11.422  1.00  0.00     0.038 C 
HETATM   10  C17 UNL     1      53.663  39.190  12.144  1.00  0.00     0.127 C 
HETATM   11  C18 UNL     1      54.992  39.631  12.721  1.00  0.00    -0.014 C 
HETATM   12  C19 UNL     1      55.377  40.968  12.063  1.00  0.00     0.018 C 
HETATM   13  C20 UNL     1      55.029  39.798  14.196  1.00  0.00     0.012 C 
HETATM   14  C21 UNL     1      56.410  39.326  14.677  1.00  0.00     0.007 C 
HETATM   15  C22 UNL     1      56.351  37.841  14.515  1.00  0.00     0.001 C 
HETATM   16  C23 UNL     1      57.518  37.102  15.096  1.00  0.00    -0.010 C 
HETATM   17  C24 UNL     1      58.842  37.735  14.682  1.00  0.00     0.018 C 
ENDROOT
BRANCH   1  18
HETATM   18  O4  UNL     1      58.807  37.286  17.132  1.00  0.00    -0.315 OA
BRANCH  18  19
HETATM   19  C7  UNL     1      59.083  38.280  18.033  1.00  0.00     0.259 C 
HETATM   20  O3  UNL     1      59.094  38.009  19.260  1.00  0.00    -0.265 OA
BRANCH  19  21
HETATM   21  C6  UNL     1      59.357  39.642  17.504  1.00  0.00     0.120 C 
BRANCH  21  22
HETATM   22  C5  UNL     1      59.012  40.644  18.569  1.00  0.00     0.112 C 
BRANCH  22  23
HETATM   23  C4  UNL     1      57.555  40.928  18.613  1.00  0.00     0.218 C 
HETATM   24  N1  UNL     1      56.905  41.420  17.453  1.00  0.00    -0.359 N 
ATOM     25  H1  UNL     1      57.419  41.584  16.587  1.00  0.00     0.162 HD
HETATM   26  O2  UNL     1      56.957  40.716  19.695  1.00  0.00    -0.274 OA
BRANCH  24  27
HETATM   27  C3  UNL     1      55.482  41.683  17.545  1.00  0.00     0.153 C 
BRANCH  27  28
HETATM   28  C2  UNL     1      55.199  43.079  17.029  1.00  0.00     0.132 C 
HETATM   29  C1  UNL     1      54.215  43.011  15.889  1.00  0.00     0.041 C 
BRANCH  28  30
HETATM   30  O1  UNL     1      54.713  43.859  18.076  1.00  0.00    -0.394 OA
ATOM     31  H1  UNL     1      55.275  43.804  18.840  1.00  0.00     0.210 HD
ENDBRANCH  28  30
ENDBRANCH  27  28
ENDBRANCH  24  27
ENDBRANCH  22  23
ENDBRANCH  21  22
ENDBRANCH  19  21
ENDBRANCH  18  19
ENDBRANCH   1  18
BRANCH  10  32
HETATM   32  O5  UNL     1      52.740  38.731  13.073  1.00  0.00    -0.395 OA
ATOM     33  H5  UNL     1      52.258  39.425  13.505  1.00  0.00     0.210 HD
ENDBRANCH  10  32
TORSDOF 9
ENDMDL
MODEL 5
REMARK VINA RESULT: -7.827372731      2.004      5.503
REMARK  9 active torsions:
REMARK  status: ('A' for Active; 'I' for Inactive)
REMARK    1  A    between atoms: C2_2  and  O1_3 
REMARK    2  A    between atoms: C2_2  and  C3_5 
REMARK    3  A    between atoms: C3_5  and  N1_6 
REMARK       I    between atoms: N1_6  and  C4_8 
REMARK    4  A    between atoms: C4_8  and  C5_10 
REMARK    5  A    between atoms: C5_10  and  C6_11 
REMARK    6  A    between atoms: C6_11  and  C7_12 
REMARK    7  A    between atoms: C7_12  and  O4_14 
REMARK    8  A    between atoms: O4_14  and  C8_15 
REMARK    9  A    between atoms: C17_24  and  O5_25 
ROOT
HETATM    1  C8  UNL     1      56.219  39.217  13.851  1.00  0.00     0.140 C 
HETATM    2  C9  UNL     1      55.388  39.218  12.586  1.00  0.00     0.034 C 
HETATM    3  C10 UNL     1      54.012  38.844  13.153  1.00  0.00     0.008 C 
HETATM    4  C11 UNL     1      54.325  37.727  14.158  1.00  0.00    -0.003 C 
HETATM    5  C12 UNL     1      54.428  36.465  13.374  1.00  0.00     0.006 C 
HETATM    6  C13 UNL     1      54.909  35.273  14.162  1.00  0.00     0.006 C 
HETATM    7  C14 UNL     1      55.607  35.834  15.412  1.00  0.00    -0.005 C 
HETATM    8  C15 UNL     1      56.253  34.824  16.248  1.00  0.00     0.003 C 
HETATM    9  C16 UNL     1      56.205  33.385  15.755  1.00  0.00     0.038 C 
HETATM   10  C17 UNL     1      57.696  33.384  15.600  1.00  0.00     0.127 C 
HETATM   11  C18 UNL     1      57.726  34.745  16.265  1.00  0.00    -0.014 C 
HETATM   12  C19 UNL     1      58.350  34.579  17.662  1.00  0.00     0.018 C 
HETATM   13  C20 UNL     1      58.470  35.801  15.533  1.00  0.00     0.012 C 
HETATM   14  C21 UNL     1      57.709  37.121  15.732  1.00  0.00     0.007 C 
HETATM   15  C22 UNL     1      56.479  36.947  14.900  1.00  0.00     0.001 C 
HETATM   16  C23 UNL     1      55.638  38.180  14.762  1.00  0.00    -0.010 C 
HETATM   17  C24 UNL     1      55.403  38.849  16.112  1.00  0.00     0.018 C 
ENDROOT
BRANCH   1  18
HETATM   18  O4  UNL     1      56.099  40.525  14.407  1.00  0.00    -0.315 OA
BRANCH  18  19
HETATM   19  C7  UNL     1      55.502  41.580  13.771  1.00  0.00     0.259 C 
HETATM   20  O3  UNL     1      55.912  41.925  12.635  1.00  0.00    -0.265 OA
BRANCH  19  21
HETATM   21  C6  UNL     1      54.385  42.270  14.470  1.00  0.00     0.120 C 
BRANCH  21  22
HETATM   22  C5  UNL     1      54.969  43.237  15.461  1.00  0.00     0.112 C 
BRANCH  22  23
HETATM   23  C4  UNL     1      55.110  42.632  16.810  1.00  0.00     0.218 C 
HETATM   24  N1  UNL     1      56.347  42.053  17.189  1.00  0.00    -0.359 N 
ATOM     25  H1  UNL     1      57.144  42.043  16.552  1.00  0.00     0.162 HD
HETATM   26  O2  UNL     1      54.108  42.663  17.565  1.00  0.00    -0.274 OA
BRANCH  24  27
HETATM   27  C3  UNL     1      56.436  41.475  18.516  1.00  0.00     0.153 C 
BRANCH  27  28
HETATM   28  C2  UNL     1      57.887  41.177  18.833  1.00  0.00     0.132 C 
HETATM   29  C1  UNL     1      58.216  39.762  18.430  1.00  0.00     0.041 C 
BRANCH  28  30
HETATM   30  O1  UNL     1      58.694  42.098  18.167  1.00  0.00    -0.394 OA
ATOM     31  H1  UNL     1      58.513  42.986  18.449  1.00  0.00     0.210 HD
ENDBRANCH  28  30
ENDBRANCH  27  28
ENDBRANCH  24  27
ENDBRANCH  22  23
ENDBRANCH  21  22
ENDBRANCH  19  21
ENDBRANCH  18  19
ENDBRANCH   1  18
BRANCH  10  32
HETATM   32  O5  UNL     1      58.117  33.364  14.278  1.00  0.00    -0.395 OA
ATOM     33  H5  UNL     1      59.030  33.126  14.174  1.00  0.00     0.210 HD
ENDBRANCH  10  32
TORSDOF 9
ENDMDL
