MODEL 1
REMARK VINA RESULT: -7.714389697      0.000      0.000
REMARK  8 active torsions:
REMARK  status: ('A' for Active; 'I' for Inactive)
REMARK    1  A    between atoms: N1_5  and  C5_7 
REMARK    2  A    between atoms: C5_7  and  C6_8 
REMARK    3  A    between atoms: C6_8  and  C7_9 
REMARK    4  A    between atoms: N2_15  and  C13_16 
REMARK    5  A    between atoms: C20_25  and  N4_26 
REMARK    6  A    between atoms: N4_26  and  C21_28 
REMARK    7  A    between atoms: C21_28  and  C22_29 
REMARK    8  A    between atoms: C22_29  and  C23_30 
ROOT
HETATM    1  C1  UNL     1      55.094  38.177  11.649  1.00  0.00     0.069 C 
HETATM    2  C2  UNL     1      55.565  39.211  12.634  1.00  0.00     0.026 A 
HETATM    3  C3  UNL     1      56.210  38.796  13.785  1.00  0.00     0.073 A 
HETATM    4  C4  UNL     1      56.635  39.756  14.676  1.00  0.00     0.119 A 
HETATM    5  N1  UNL     1      57.229  39.527  15.741  1.00  0.00    -0.365 N 
ATOM      6  H1  UNL     1      57.444  40.392  16.236  1.00  0.00     0.162 HD
HETATM    7  N3  UNL     1      56.390  41.070  14.358  1.00  0.00    -0.177 N 
ATOM      8  H3  UNL     1      56.703  41.787  15.012  1.00  0.00     0.185 HD
HETATM    9  C20 UNL     1      55.767  41.465  13.244  1.00  0.00     0.679 A 
HETATM   10  N6  UNL     1      55.356  40.517  12.385  1.00  0.00    -0.196 N 
ATOM     11  H6  UNL     1      54.877  40.791  11.527  1.00  0.00     0.184 HD
ENDROOT
BRANCH   5  12
HETATM   12  C5  UNL     1      57.689  38.406  16.453  1.00  0.00     0.052 C 
HETATM   13  C11 UNL     1      56.418  37.702  16.982  1.00  0.00     0.077 C 
HETATM   14  C12 UNL     1      56.770  36.252  16.949  1.00  0.00     0.061 C 
HETATM   15  N2  UNL     1      57.830  36.073  16.066  1.00  0.00    -0.386 N 
HETATM   16  C19 UNL     1      58.368  37.336  15.673  1.00  0.00     0.153 C 
BRANCH  12  17
HETATM   17  C6  UNL     1      58.436  38.756  17.709  1.00  0.00     0.041 C 
BRANCH  17  18
HETATM   18  C7  UNL     1      59.499  39.756  17.664  1.00  0.00    -0.049 C 
HETATM   19  C8  UNL     1      59.105  41.105  18.247  1.00  0.00     0.014 C 
HETATM   20  C9  UNL     1      60.577  39.243  18.667  1.00  0.00     0.014 C 
HETATM   21  C10 UNL     1      60.242  39.992  16.411  1.00  0.00     0.014 C 
ENDBRANCH  17  18
ENDBRANCH  12  17
BRANCH  15  22
HETATM   22  C13 UNL     1      57.984  34.975  15.250  1.00  0.00     0.083 C 
HETATM   23  C14 UNL     1      56.979  33.891  15.686  1.00  0.00     0.025 C 
HETATM   24  C15 UNL     1      57.636  32.572  15.344  1.00  0.00     0.002 C 
HETATM   25  C16 UNL     1      58.312  32.742  13.998  1.00  0.00     0.000 C 
HETATM   26  C17 UNL     1      57.667  33.806  13.146  1.00  0.00     0.002 C 
HETATM   27  C18 UNL     1      57.717  35.179  13.779  1.00  0.00     0.025 C 
ENDBRANCH  15  22
ENDBRANCH   5  12
BRANCH   9  28
HETATM   28  N4  UNL     1      55.570  42.731  12.998  1.00  0.00    -0.226 N 
ATOM     29  H4  UNL     1      56.155  43.200  12.307  1.00  0.00     0.177 HD
BRANCH  28  30
HETATM   30  C21 UNL     1      54.551  43.481  13.675  1.00  0.00     0.147 C 
BRANCH  30  31
HETATM   31  C22 UNL     1      55.151  44.438  14.693  1.00  0.00     0.119 C 
BRANCH  31  32
HETATM   32  C23 UNL     1      54.899  43.959  16.067  1.00  0.00     0.232 C 
HETATM   33  N5  UNL     1      54.602  44.874  17.097  1.00  0.00    -0.062 NA
HETATM   34  O1  UNL     1      54.948  42.737  16.313  1.00  0.00    -0.277 OA
ENDBRANCH  31  32
ENDBRANCH  30  31
ENDBRANCH  28  30
ENDBRANCH   9  28
TORSDOF 8
ENDMDL
MODEL 2
REMARK VINA RESULT: -7.495395680      2.467      5.857
REMARK  8 active torsions:
REMARK  status: ('A' for Active; 'I' for Inactive)
REMARK    1  A    between atoms: N1_5  and  C5_7 
REMARK    2  A    between atoms: C5_7  and  C6_8 
REMARK    3  A    between atoms: C6_8  and  C7_9 
REMARK    4  A    between atoms: N2_15  and  C13_16 
REMARK    5  A    between atoms: C20_25  and  N4_26 
REMARK    6  A    between atoms: N4_26  and  C21_28 
REMARK    7  A    between atoms: C21_28  and  C22_29 
REMARK    8  A    between atoms: C22_29  and  C23_30 
ROOT
HETATM    1  C1  UNL     1      55.024  42.427  14.688  1.00  0.00     0.069 C 
HETATM    2  C2  UNL     1      55.568  41.288  15.506  1.00  0.00     0.026 A 
HETATM    3  C3  UNL     1      55.593  40.020  14.954  1.00  0.00     0.073 A 
HETATM    4  C4  UNL     1      56.094  38.989  15.716  1.00  0.00     0.119 A 
HETATM    5  N1  UNL     1      56.181  37.807  15.347  1.00  0.00    -0.365 N 
ATOM      6  H1  UNL     1      56.582  37.221  16.079  1.00  0.00     0.162 HD
HETATM    7  N3  UNL     1      56.539  39.291  16.981  1.00  0.00    -0.177 N 
ATOM      8  H3  UNL     1      56.913  38.532  17.551  1.00  0.00     0.185 HD
HETATM    9  C20 UNL     1      56.512  40.518  17.507  1.00  0.00     0.679 A 
HETATM   10  N6  UNL     1      56.019  41.515  16.752  1.00  0.00    -0.196 N 
ATOM     11  H6  UNL     1      55.987  42.461  17.131  1.00  0.00     0.184 HD
ENDROOT
BRANCH   5  12
HETATM   12  C5  UNL     1      55.882  37.053  14.199  1.00  0.00     0.052 C 
HETATM   13  C11 UNL     1      54.370  36.745  14.290  1.00  0.00     0.077 C 
HETATM   14  C12 UNL     1      53.916  36.751  12.868  1.00  0.00     0.061 C 
HETATM   15  N2  UNL     1      54.844  37.458  12.109  1.00  0.00    -0.386 N 
HETATM   16  C19 UNL     1      56.010  37.736  12.885  1.00  0.00     0.153 C 
BRANCH  12  17
HETATM   17  C6  UNL     1      56.511  35.688  14.196  1.00  0.00     0.041 C 
BRANCH  17  18
HETATM   18  C7  UNL     1      57.901  35.531  14.609  1.00  0.00    -0.049 C 
HETATM   19  C8  UNL     1      58.113  35.612  16.114  1.00  0.00     0.014 C 
HETATM   20  C9  UNL     1      58.252  34.046  14.287  1.00  0.00     0.014 C 
HETATM   21  C10 UNL     1      58.965  36.314  13.949  1.00  0.00     0.014 C 
ENDBRANCH  17  18
ENDBRANCH  12  17
BRANCH  15  22
HETATM   22  C13 UNL     1      54.521  38.259  11.038  1.00  0.00     0.083 C 
HETATM   23  C14 UNL     1      53.949  39.588  11.570  1.00  0.00     0.025 C 
HETATM   24  C15 UNL     1      52.979  40.061  10.510  1.00  0.00     0.002 C 
HETATM   25  C16 UNL     1      53.613  39.783   9.163  1.00  0.00     0.000 C 
HETATM   26  C17 UNL     1      55.120  39.749   9.217  1.00  0.00     0.002 C 
HETATM   27  C18 UNL     1      55.653  38.665  10.127  1.00  0.00     0.025 C 
ENDBRANCH  15  22
ENDBRANCH   5  12
BRANCH   9  28
HETATM   28  N4  UNL     1      56.956  40.740  18.714  1.00  0.00    -0.226 N 
ATOM     29  H4  UNL     1      56.425  40.390  19.511  1.00  0.00     0.177 HD
BRANCH  28  30
HETATM   30  C21 UNL     1      58.172  41.465  18.948  1.00  0.00     0.147 C 
BRANCH  30  31
HETATM   31  C22 UNL     1      59.331  40.869  18.165  1.00  0.00     0.119 C 
BRANCH  31  32
HETATM   32  C23 UNL     1      59.862  39.674  18.854  1.00  0.00     0.232 C 
HETATM   33  N5  UNL     1      59.138  38.466  18.846  1.00  0.00    -0.062 NA
HETATM   34  O1  UNL     1      60.961  39.740  19.444  1.00  0.00    -0.277 OA
ENDBRANCH  31  32
ENDBRANCH  30  31
ENDBRANCH  28  30
ENDBRANCH   9  28
TORSDOF 8
ENDMDL
MODEL 3
REMARK VINA RESULT: -7.341833455      3.405      7.484
REMARK  8 active torsions:
REMARK  status: ('A' for Active; 'I' for Inactive)
REMARK    1  A    between atoms: N1_5  and  C5_7 
REMARK    2  A    between atoms: C5_7  and  C6_8 
REMARK    3  A    between atoms: C6_8  and  C7_9 
REMARK    4  A    between atoms: N2_15  and  C13_16 
REMARK    5  A    between atoms: C20_25  and  N4_26 
REMARK    6  A    between atoms: N4_26  and  C21_28 
REMARK    7  A    between atoms: C21_28  and  C22_29 
REMARK    8  A    between atoms: C22_29  and  C23_30 
ROOT
HETATM    1  C1  UNL     1      52.960  41.075  19.229  1.00  0.00     0.069 C 
HETATM    2  C2  UNL     1      54.208  41.338  18.433  1.00  0.00     0.026 A 
HETATM    3  C3  UNL     1      54.095  41.627  17.085  1.00  0.00     0.073 A 
HETATM    4  C4  UNL     1      55.248  41.865  16.371  1.00  0.00     0.119 A 
HETATM    5  N1  UNL     1      55.293  42.141  15.162  1.00  0.00    -0.365 N 
ATOM      6  H1  UNL     1      56.255  42.274  14.851  1.00  0.00     0.162 HD
HETATM    7  N3  UNL     1      56.441  41.801  17.050  1.00  0.00    -0.177 N 
ATOM      8  H3  UNL     1      57.299  41.978  16.529  1.00  0.00     0.185 HD
HETATM    9  C20 UNL     1      56.543  41.522  18.353  1.00  0.00     0.679 A 
HETATM   10  N6  UNL     1      55.409  41.290  19.037  1.00  0.00    -0.196 N 
ATOM     11  H6  UNL     1      55.460  41.074  20.032  1.00  0.00     0.184 HD
ENDROOT
BRANCH   5  12
HETATM   12  C5  UNL     1      54.387  42.321  14.103  1.00  0.00     0.052 C 
HETATM   13  C11 UNL     1      54.751  41.241  13.059  1.00  0.00     0.077 C 
HETATM   14  C12 UNL     1      53.439  40.868  12.454  1.00  0.00     0.061 C 
HETATM   15  N2  UNL     1      52.424  41.243  13.330  1.00  0.00    -0.386 N 
HETATM   16  C19 UNL     1      52.952  42.049  14.384  1.00  0.00     0.153 C 
BRANCH  12  17
HETATM   17  C6  UNL     1      54.587  43.607  13.351  1.00  0.00     0.041 C 
BRANCH  17  18
HETATM   18  C7  UNL     1      54.351  44.881  14.022  1.00  0.00    -0.049 C 
HETATM   19  C8  UNL     1      55.621  45.598  14.457  1.00  0.00     0.014 C 
HETATM   20  C9  UNL     1      53.782  45.820  12.915  1.00  0.00     0.014 C 
HETATM   21  C10 UNL     1      53.369  44.970  15.122  1.00  0.00     0.014 C 
ENDBRANCH  17  18
ENDBRANCH  12  17
BRANCH  15  22
HETATM   22  C13 UNL     1      51.263  40.530  13.522  1.00  0.00     0.083 C 
HETATM   23  C14 UNL     1      51.206  39.389  12.488  1.00  0.00     0.025 C 
HETATM   24  C15 UNL     1      49.734  39.153  12.231  1.00  0.00     0.002 C 
HETATM   25  C16 UNL     1      49.022  39.249  13.565  1.00  0.00     0.000 C 
HETATM   26  C17 UNL     1      49.914  38.915  14.733  1.00  0.00     0.002 C 
HETATM   27  C18 UNL     1      51.098  39.848  14.859  1.00  0.00     0.025 C 
ENDBRANCH  15  22
ENDBRANCH   5  12
BRANCH   9  28
HETATM   28  N4  UNL     1      57.707  41.481  18.941  1.00  0.00    -0.226 N 
ATOM     29  H4  UNL     1      57.831  41.963  19.831  1.00  0.00     0.177 HD
BRANCH  28  30
HETATM   30  C21 UNL     1      58.817  40.776  18.368  1.00  0.00     0.147 C 
BRANCH  30  31
HETATM   31  C22 UNL     1      58.923  39.364  18.924  1.00  0.00     0.119 C 
BRANCH  31  32
HETATM   32  C23 UNL     1      58.375  38.385  17.963  1.00  0.00     0.232 C 
HETATM   33  N5  UNL     1      59.007  37.140  17.776  1.00  0.00    -0.062 NA
HETATM   34  O1  UNL     1      57.346  38.667  17.314  1.00  0.00    -0.277 OA
ENDBRANCH  31  32
ENDBRANCH  30  31
ENDBRANCH  28  30
ENDBRANCH   9  28
TORSDOF 8
ENDMDL
MODEL 4
REMARK VINA RESULT: -7.319193546      1.170      1.368
REMARK  8 active torsions:
REMARK  status: ('A' for Active; 'I' for Inactive)
REMARK    1  A    between atoms: N1_5  and  C5_7 
REMARK    2  A    between atoms: C5_7  and  C6_8 
REMARK    3  A    between atoms: C6_8  and  C7_9 
REMARK    4  A    between atoms: N2_15  and  C13_16 
REMARK    5  A    between atoms: C20_25  and  N4_26 
REMARK    6  A    between atoms: N4_26  and  C21_28 
REMARK    7  A    between atoms: C21_28  and  C22_29 
REMARK    8  A    between atoms: C22_29  and  C23_30 
ROOT
HETATM    1  C1  UNL     1      55.152  39.608  11.078  1.00  0.00     0.069 C 
HETATM    2  C2  UNL     1      55.415  40.519  12.246  1.00  0.00     0.026 A 
HETATM    3  C3  UNL     1      55.900  39.977  13.422  1.00  0.00     0.073 A 
HETATM    4  C4  UNL     1      56.135  40.826  14.481  1.00  0.00     0.119 A 
HETATM    5  N1  UNL     1      56.574  40.478  15.589  1.00  0.00    -0.365 N 
ATOM      6  H1  UNL     1      56.666  41.277  16.216  1.00  0.00     0.162 HD
HETATM    7  N3  UNL     1      55.873  42.162  14.296  1.00  0.00    -0.177 N 
ATOM      8  H3  UNL     1      56.046  42.797  15.074  1.00  0.00     0.185 HD
HETATM    9  C20 UNL     1      55.405  42.679  13.156  1.00  0.00     0.679 A 
HETATM   10  N6  UNL     1      55.178  41.838  12.131  1.00  0.00    -0.196 N 
ATOM     11  H6  UNL     1      54.820  42.208  11.251  1.00  0.00     0.184 HD
ENDROOT
BRANCH   5  12
HETATM   12  C5  UNL     1      56.979  39.289  16.218  1.00  0.00     0.052 C 
HETATM   13  C11 UNL     1      55.673  38.583  16.649  1.00  0.00     0.077 C 
HETATM   14  C12 UNL     1      55.985  37.131  16.505  1.00  0.00     0.061 C 
HETATM   15  N2  UNL     1      57.069  36.993  15.643  1.00  0.00    -0.386 N 
HETATM   16  C19 UNL     1      57.653  38.268  15.373  1.00  0.00     0.153 C 
BRANCH  12  17
HETATM   17  C6  UNL     1      57.694  39.512  17.522  1.00  0.00     0.041 C 
BRANCH  17  18
HETATM   18  C7  UNL     1      59.139  39.315  17.597  1.00  0.00    -0.049 C 
HETATM   19  C8  UNL     1      59.895  39.797  16.367  1.00  0.00     0.014 C 
HETATM   20  C9  UNL     1      59.621  40.293  18.710  1.00  0.00     0.014 C 
HETATM   21  C10 UNL     1      59.689  38.003  17.993  1.00  0.00     0.014 C 
ENDBRANCH  17  18
ENDBRANCH  12  17
BRANCH  15  22
HETATM   22  C13 UNL     1      57.218  35.962  14.744  1.00  0.00     0.083 C 
HETATM   23  C14 UNL     1      57.078  34.625  15.497  1.00  0.00     0.025 C 
HETATM   24  C15 UNL     1      57.938  33.641  14.735  1.00  0.00     0.002 C 
HETATM   25  C16 UNL     1      57.734  33.915  13.259  1.00  0.00     0.000 C 
HETATM   26  C17 UNL     1      56.397  34.541  12.955  1.00  0.00     0.002 C 
HETATM   27  C18 UNL     1      56.207  35.883  13.626  1.00  0.00     0.025 C 
ENDBRANCH  15  22
ENDBRANCH   5  12
BRANCH   9  28
HETATM   28  N4  UNL     1      55.181  43.959  13.042  1.00  0.00    -0.226 N 
ATOM     29  H4  UNL     1      55.763  44.511  12.412  1.00  0.00     0.177 HD
BRANCH  28  30
HETATM   30  C21 UNL     1      54.137  44.610  13.780  1.00  0.00     0.147 C 
BRANCH  30  31
HETATM   31  C22 UNL     1      54.706  45.494  14.880  1.00  0.00     0.119 C 
BRANCH  31  32
HETATM   32  C23 UNL     1      54.471  44.886  16.206  1.00  0.00     0.232 C 
HETATM   33  N5  UNL     1      54.562  45.669  17.374  1.00  0.00    -0.062 NA
HETATM   34  O1  UNL     1      54.190  43.673  16.287  1.00  0.00    -0.277 OA
ENDBRANCH  31  32
ENDBRANCH  30  31
ENDBRANCH  28  30
ENDBRANCH   9  28
TORSDOF 8
ENDMDL
MODEL 5
REMARK VINA RESULT: -7.217683671      3.995      7.827
REMARK  8 active torsions:
REMARK  status: ('A' for Active; 'I' for Inactive)
REMARK    1  A    between atoms: N1_5  and  C5_7 
REMARK    2  A    between atoms: C5_7  and  C6_8 
REMARK    3  A    between atoms: C6_8  and  C7_9 
REMARK    4  A    between atoms: N2_15  and  C13_16 
REMARK    5  A    between atoms: C20_25  and  N4_26 
REMARK    6  A    between atoms: N4_26  and  C21_28 
REMARK    7  A    between atoms: C21_28  and  C22_29 
REMARK    8  A    between atoms: C22_29  and  C23_30 
ROOT
HETATM    1  C1  UNL     1      54.322  35.370  12.883  1.00  0.00     0.069 C 
HETATM    2  C2  UNL     1      54.762  36.045  14.153  1.00  0.00     0.026 A 
HETATM    3  C3  UNL     1      54.468  37.384  14.337  1.00  0.00     0.073 A 
HETATM    4  C4  UNL     1      54.878  37.986  15.505  1.00  0.00     0.119 A 
HETATM    5  N1  UNL     1      54.678  39.174  15.804  1.00  0.00    -0.365 N 
ATOM      6  H1  UNL     1      55.073  39.396  16.717  1.00  0.00     0.162 HD
HETATM    7  N3  UNL     1      55.555  37.211  16.416  1.00  0.00    -0.177 N 
ATOM      8  H3  UNL     1      55.861  37.649  17.285  1.00  0.00     0.185 HD
HETATM    9  C20 UNL     1      55.836  35.917  16.232  1.00  0.00     0.679 A 
HETATM   10  N6  UNL     1      55.430  35.344  15.087  1.00  0.00    -0.196 N 
ATOM     11  H6  UNL     1      55.633  34.358  14.921  1.00  0.00     0.184 HD
ENDROOT
BRANCH   5  12
HETATM   12  C5  UNL     1      54.057  40.297  15.232  1.00  0.00     0.052 C 
HETATM   13  C11 UNL     1      54.552  40.344  13.768  1.00  0.00     0.077 C 
HETATM   14  C12 UNL     1      53.384  40.881  13.010  1.00  0.00     0.061 C 
HETATM   15  N2  UNL     1      52.234  40.685  13.769  1.00  0.00    -0.386 N 
HETATM   16  C19 UNL     1      52.577  40.256  15.087  1.00  0.00     0.153 C 
BRANCH  12  17
HETATM   17  C6  UNL     1      54.537  41.604  15.798  1.00  0.00     0.041 C 
BRANCH  17  18
HETATM   18  C7  UNL     1      54.766  41.729  17.234  1.00  0.00    -0.049 C 
HETATM   19  C8  UNL     1      56.138  41.251  17.687  1.00  0.00     0.014 C 
HETATM   20  C9  UNL     1      54.826  43.265  17.500  1.00  0.00     0.014 C 
HETATM   21  C10 UNL     1      53.761  41.227  18.192  1.00  0.00     0.014 C 
ENDBRANCH  17  18
ENDBRANCH  12  17
BRANCH  15  22
HETATM   22  C13 UNL     1      51.001  40.377  13.242  1.00  0.00     0.083 C 
HETATM   23  C14 UNL     1      50.011  40.149  14.401  1.00  0.00     0.025 C 
HETATM   24  C15 UNL     1      49.001  39.151  13.878  1.00  0.00     0.002 C 
HETATM   25  C16 UNL     1      48.698  39.528  12.443  1.00  0.00     0.000 C 
HETATM   26  C17 UNL     1      48.917  40.993  12.160  1.00  0.00     0.002 C 
HETATM   27  C18 UNL     1      50.348  41.429  12.379  1.00  0.00     0.025 C 
ENDBRANCH  15  22
ENDBRANCH   5  12
BRANCH   9  28
HETATM   28  N4  UNL     1      56.478  35.235  17.140  1.00  0.00    -0.226 N 
ATOM     29  H4  UNL     1      55.947  34.708  17.833  1.00  0.00     0.177 HD
BRANCH  28  30
HETATM   30  C21 UNL     1      57.912  35.206  17.188  1.00  0.00     0.147 C 
BRANCH  30  31
HETATM   31  C22 UNL     1      58.435  33.779  17.238  1.00  0.00     0.119 C 
BRANCH  31  32
HETATM   32  C23 UNL     1      57.809  32.959  16.181  1.00  0.00     0.232 C 
HETATM   33  N5  UNL     1      57.924  33.332  14.827  1.00  0.00    -0.062 NA
HETATM   34  O1  UNL     1      57.175  31.930  16.494  1.00  0.00    -0.277 OA
ENDBRANCH  31  32
ENDBRANCH  30  31
ENDBRANCH  28  30
ENDBRANCH   9  28
TORSDOF 8
ENDMDL
