MODEL 1
REMARK VINA RESULT: -7.242431445      0.000      0.000
REMARK  7 active torsions:
REMARK  status: ('A' for Active; 'I' for Inactive)
REMARK    1  A    between atoms: N1_1  and  C1_4 
REMARK    2  A    between atoms: C1_4  and  C2_6 
REMARK    3  A    between atoms: C3_7  and  S1_8 
REMARK    4  A    between atoms: S1_8  and  C4_9 
REMARK    5  A    between atoms: C5_14  and  C6_15 
REMARK    6  A    between atoms: N10_27  and  N11_28 
REMARK    7  A    between atoms: C8_31  and  N12_32 
ROOT
HETATM    1  C2  UNL     1      -9.442  -4.902   0.674  1.00  0.00     0.084 A 
HETATM    2  C3  UNL     1      -9.373  -4.303  -0.563  1.00  0.00     0.098 A 
HETATM    3  N9  UNL     1      -8.345  -3.423  -0.756  1.00  0.00    -0.300 N 
ATOM      4  H9  UNL     1      -8.256  -2.957  -1.659  1.00  0.00     0.171 HD
HETATM    5  C7  UNL     1      -7.446  -3.155   0.211  1.00  0.00     0.347 A 
HETATM    6  O1  UNL     1      -6.538  -2.328  -0.072  1.00  0.00    -0.245 OA
HETATM    7  N10 UNL     1      -7.502  -3.739   1.438  1.00  0.00    -0.195 N 
HETATM    8  C8  UNL     1      -8.509  -4.607   1.641  1.00  0.00     0.141 A 
ENDROOT
BRANCH   2   9
HETATM    9  S1  UNL     1     -10.551  -4.658  -1.824  1.00  0.00    -0.045 SA
BRANCH   9  10
HETATM   10  C4  UNL     1     -11.177  -3.116  -2.532  1.00  0.00     0.135 A 
HETATM   11  N3  UNL     1     -10.719  -1.881  -2.342  1.00  0.00    -0.287 N 
HETATM   12  N4  UNL     1     -11.283  -0.910  -2.921  1.00  0.00    -0.289 N 
ATOM     13  H3  UNL     1      -9.917  -1.720  -1.732  1.00  0.00     0.188 HD
HETATM   14  C5  UNL     1     -12.327  -1.130  -3.713  1.00  0.00     0.138 A 
ATOM     15  H4  UNL     1     -10.938   0.039  -2.781  1.00  0.00     0.188 HD
HETATM   16  S2  UNL     1     -12.479  -2.827  -3.598  1.00  0.00    -0.041 SA
BRANCH  14  17
HETATM   17  C6  UNL     1     -13.128  -0.157  -4.480  1.00  0.00     0.167 A 
HETATM   18  N5  UNL     1     -12.830   1.106  -4.800  1.00  0.00    -0.268 N 
HETATM   19  N6  UNL     1     -13.812   1.650  -5.498  1.00  0.00    -0.007 NA
ATOM     20  H5  UNL     1     -11.965   1.582  -4.543  1.00  0.00     0.185 HD
HETATM   21  N7  UNL     1     -14.741   0.719  -5.619  1.00  0.00    -0.007 NA
HETATM   22  N8  UNL     1     -14.341  -0.402  -4.999  1.00  0.00    -0.268 N 
ATOM     23  H8  UNL     1     -14.862  -1.277  -4.935  1.00  0.00     0.185 HD
ENDBRANCH  14  17
ENDBRANCH   9  10
ENDBRANCH   2   9
BRANCH   1  24
HETATM   24  C1  UNL     1     -10.492  -5.850   0.984  1.00  0.00     0.127 C 
HETATM   25  N2  UNL     1     -11.489  -5.572   1.951  1.00  0.00    -0.082 NA
BRANCH  24  26
HETATM   26  N1  UNL     1     -10.529  -6.979   0.370  1.00  0.00    -0.387 N 
ATOM     27  H12 UNL     1      -9.720  -7.599   0.406  1.00  0.00     0.157 HD
ATOM     28  H11 UNL     1     -11.375  -7.227  -0.143  1.00  0.00     0.157 HD
ENDBRANCH  24  26
ENDBRANCH   1  24
BRANCH   8  29
HETATM   29  N12 UNL     1      -8.610  -5.185   2.778  1.00  0.00    -0.383 N 
ATOM     30 2H12 UNL     1      -9.454  -5.044   3.332  1.00  0.00     0.157 HD
ATOM     31 1H12 UNL     1      -7.837  -5.772   3.092  1.00  0.00     0.157 HD
ENDBRANCH   8  29
BRANCH   7  32
HETATM   32  N11 UNL     1      -6.568  -3.449   2.421  1.00  0.00    -0.333 N 
ATOM     33 2H11 UNL     1      -6.782  -2.840   3.210  1.00  0.00     0.177 HD
ATOM     34 1H11 UNL     1      -5.625  -3.838   2.390  1.00  0.00     0.177 HD
ENDBRANCH   7  32
TORSDOF 7
ENDMDL
MODEL 2
REMARK VINA RESULT: -7.081137115      2.449      3.291
REMARK  7 active torsions:
REMARK  status: ('A' for Active; 'I' for Inactive)
REMARK    1  A    between atoms: N1_1  and  C1_4 
REMARK    2  A    between atoms: C1_4  and  C2_6 
REMARK    3  A    between atoms: C3_7  and  S1_8 
REMARK    4  A    between atoms: S1_8  and  C4_9 
REMARK    5  A    between atoms: C5_14  and  C6_15 
REMARK    6  A    between atoms: N10_27  and  N11_28 
REMARK    7  A    between atoms: C8_31  and  N12_32 
ROOT
HETATM    1  C2  UNL     1     -12.836  -6.345  -0.889  1.00  0.00     0.084 A 
HETATM    2  C3  UNL     1     -12.339  -5.505  -1.860  1.00  0.00     0.098 A 
HETATM    3  N9  UNL     1     -11.133  -4.917  -1.598  1.00  0.00    -0.300 N 
ATOM      4  H9  UNL     1     -10.728  -4.288  -2.291  1.00  0.00     0.171 HD
HETATM    5  C7  UNL     1     -10.463  -5.147  -0.452  1.00  0.00     0.347 A 
HETATM    6  O1  UNL     1      -9.360  -4.555  -0.310  1.00  0.00    -0.245 OA
HETATM    7  N10 UNL     1     -10.942  -5.974   0.517  1.00  0.00    -0.195 N 
HETATM    8  C8  UNL     1     -12.127  -6.558   0.271  1.00  0.00     0.141 A 
ENDROOT
BRANCH   2   9
HETATM    9  S1  UNL     1     -13.219  -5.208  -3.358  1.00  0.00    -0.045 SA
BRANCH   9  10
HETATM   10  C4  UNL     1     -13.170  -3.446  -3.760  1.00  0.00     0.135 A 
HETATM   11  N3  UNL     1     -12.276  -2.540  -3.373  1.00  0.00    -0.287 N 
HETATM   12  N4  UNL     1     -12.396  -1.341  -3.751  1.00  0.00    -0.289 N 
ATOM     13  H3  UNL     1     -11.497  -2.814  -2.773  1.00  0.00     0.188 HD
HETATM   14  C5  UNL     1     -13.414  -0.995  -4.532  1.00  0.00     0.138 A 
ATOM     15  H4  UNL     1     -11.714  -0.642  -3.459  1.00  0.00     0.188 HD
HETATM   16  S2  UNL     1     -14.217  -2.491  -4.712  1.00  0.00    -0.041 SA
BRANCH  14  17
HETATM   17  C6  UNL     1     -13.745   0.331  -5.087  1.00  0.00     0.167 A 
HETATM   18  N5  UNL     1     -13.079   1.483  -4.960  1.00  0.00    -0.268 N 
HETATM   19  N6  UNL     1     -13.702   2.452  -5.607  1.00  0.00    -0.007 NA
ATOM     20  H5  UNL     1     -12.211   1.597  -4.437  1.00  0.00     0.185 HD
HETATM   21  N7  UNL     1     -14.776   1.905  -6.149  1.00  0.00    -0.007 NA
HETATM   22  N8  UNL     1     -14.822   0.599  -5.842  1.00  0.00    -0.268 N 
ATOM     23  H8  UNL     1     -15.542  -0.065  -6.128  1.00  0.00     0.185 HD
ENDBRANCH  14  17
ENDBRANCH   9  10
ENDBRANCH   2   9
BRANCH   1  24
HETATM   24  C1  UNL     1     -14.105  -7.018  -1.066  1.00  0.00     0.127 C 
HETATM   25  N2  UNL     1     -14.185  -8.346  -1.552  1.00  0.00    -0.082 NA
BRANCH  24  26
HETATM   26  N1  UNL     1     -15.196  -6.402  -0.777  1.00  0.00    -0.387 N 
ATOM     27  H12 UNL     1     -15.640  -6.562   0.128  1.00  0.00     0.157 HD
ATOM     28  H11 UNL     1     -15.592  -5.763  -1.465  1.00  0.00     0.157 HD
ENDBRANCH  24  26
ENDBRANCH   1  24
BRANCH   8  29
HETATM   29  N12 UNL     1     -12.625  -7.346   1.148  1.00  0.00    -0.383 N 
ATOM     30 2H12 UNL     1     -13.167  -6.953   1.916  1.00  0.00     0.157 HD
ATOM     31 1H12 UNL     1     -12.460  -8.348   1.046  1.00  0.00     0.157 HD
ENDBRANCH   8  29
BRANCH   7  32
HETATM   32  N11 UNL     1     -10.238  -6.198   1.690  1.00  0.00    -0.333 N 
ATOM     33 2H11 UNL     1      -9.225  -6.096   1.743  1.00  0.00     0.177 HD
ATOM     34 1H11 UNL     1     -10.712  -6.474   2.550  1.00  0.00     0.177 HD
ENDBRANCH   7  32
TORSDOF 7
ENDMDL
MODEL 3
REMARK VINA RESULT: -7.066173099      2.666      3.938
REMARK  7 active torsions:
REMARK  status: ('A' for Active; 'I' for Inactive)
REMARK    1  A    between atoms: N1_1  and  C1_4 
REMARK    2  A    between atoms: C1_4  and  C2_6 
REMARK    3  A    between atoms: C3_7  and  S1_8 
REMARK    4  A    between atoms: S1_8  and  C4_9 
REMARK    5  A    between atoms: C5_14  and  C6_15 
REMARK    6  A    between atoms: N10_27  and  N11_28 
REMARK    7  A    between atoms: C8_31  and  N12_32 
ROOT
HETATM    1  C2  UNL     1     -12.692  -4.996  -1.920  1.00  0.00     0.084 A 
HETATM    2  C3  UNL     1     -12.749  -4.058  -2.926  1.00  0.00     0.098 A 
HETATM    3  N9  UNL     1     -11.636  -3.283  -3.099  1.00  0.00    -0.300 N 
ATOM      4  H9  UNL     1     -11.635  -2.576  -3.834  1.00  0.00     0.171 HD
HETATM    5  C7  UNL     1     -10.540  -3.429  -2.330  1.00  0.00     0.347 A 
HETATM    6  O1  UNL     1      -9.568  -2.664  -2.574  1.00  0.00    -0.245 OA
HETATM    7  N10 UNL     1     -10.469  -4.352  -1.332  1.00  0.00    -0.195 N 
HETATM    8  C8  UNL     1     -11.557  -5.120  -1.151  1.00  0.00     0.141 A 
ENDROOT
BRANCH   2   9
HETATM    9  S1  UNL     1     -14.185  -3.872  -3.930  1.00  0.00    -0.045 SA
BRANCH   9  10
HETATM   10  C4  UNL     1     -14.158  -2.258  -4.747  1.00  0.00     0.135 A 
HETATM   11  N3  UNL     1     -14.839  -1.873  -5.823  1.00  0.00    -0.287 N 
HETATM   12  N4  UNL     1     -14.698  -0.697  -6.263  1.00  0.00    -0.289 N 
ATOM     13  H3  UNL     1     -15.472  -2.523  -6.290  1.00  0.00     0.188 HD
HETATM   14  C5  UNL     1     -13.871   0.143  -5.649  1.00  0.00     0.138 A 
ATOM     15  H4  UNL     1     -15.217  -0.393  -7.087  1.00  0.00     0.188 HD
HETATM   16  S2  UNL     1     -13.285  -0.839  -4.380  1.00  0.00    -0.041 SA
BRANCH  14  17
HETATM   17  C6  UNL     1     -13.557   1.544  -5.986  1.00  0.00     0.167 A 
HETATM   18  N5  UNL     1     -14.290   2.425  -6.672  1.00  0.00    -0.268 N 
HETATM   19  N6  UNL     1     -13.658   3.583  -6.762  1.00  0.00    -0.007 NA
ATOM     20  H5  UNL     1     -15.209   2.231  -7.071  1.00  0.00     0.185 HD
HETATM   21  N7  UNL     1     -12.512   3.430  -6.124  1.00  0.00    -0.007 NA
HETATM   22  N8  UNL     1     -12.428   2.182  -5.638  1.00  0.00    -0.268 N 
ATOM     23  H8  UNL     1     -11.652   1.791  -5.104  1.00  0.00     0.185 HD
ENDBRANCH  14  17
ENDBRANCH   9  10
ENDBRANCH   2   9
BRANCH   1  24
HETATM   24  C1  UNL     1     -13.816  -5.867  -1.651  1.00  0.00     0.127 C 
HETATM   25  N2  UNL     1     -13.823  -7.224  -2.059  1.00  0.00    -0.082 NA
BRANCH  24  26
HETATM   26  N1  UNL     1     -14.840  -5.407  -1.026  1.00  0.00    -0.387 N 
ATOM     27  H12 UNL     1     -15.130  -4.441  -1.176  1.00  0.00     0.157 HD
ATOM     28  H11 UNL     1     -15.342  -6.027  -0.390  1.00  0.00     0.157 HD
ENDBRANCH  24  26
ENDBRANCH   1  24
BRANCH   8  29
HETATM   29  N12 UNL     1     -11.546  -6.004  -0.226  1.00  0.00    -0.383 N 
ATOM     30 2H12 UNL     1     -11.441  -6.985  -0.481  1.00  0.00     0.157 HD
ATOM     31 1H12 UNL     1     -11.643  -5.693   0.741  1.00  0.00     0.157 HD
ENDBRANCH   8  29
BRANCH   7  32
HETATM   32  N11 UNL     1      -9.332  -4.486  -0.550  1.00  0.00    -0.333 N 
ATOM     33 2H11 UNL     1      -8.397  -4.319  -0.919  1.00  0.00     0.177 HD
ATOM     34 1H11 UNL     1      -9.391  -4.759   0.431  1.00  0.00     0.177 HD
ENDBRANCH   7  32
TORSDOF 7
ENDMDL
MODEL 4
REMARK VINA RESULT: -6.989844376      1.753      2.226
REMARK  7 active torsions:
REMARK  status: ('A' for Active; 'I' for Inactive)
REMARK    1  A    between atoms: N1_1  and  C1_4 
REMARK    2  A    between atoms: C1_4  and  C2_6 
REMARK    3  A    between atoms: C3_7  and  S1_8 
REMARK    4  A    between atoms: S1_8  and  C4_9 
REMARK    5  A    between atoms: C5_14  and  C6_15 
REMARK    6  A    between atoms: N10_27  and  N11_28 
REMARK    7  A    between atoms: C8_31  and  N12_32 
ROOT
HETATM    1  C2  UNL     1     -11.588  -5.718  -0.424  1.00  0.00     0.084 A 
HETATM    2  C3  UNL     1     -11.397  -4.964  -1.560  1.00  0.00     0.098 A 
HETATM    3  N9  UNL     1     -10.254  -4.215  -1.608  1.00  0.00    -0.300 N 
ATOM      4  H9  UNL     1     -10.072  -3.642  -2.431  1.00  0.00     0.171 HD
HETATM    5  C7  UNL     1      -9.361  -4.214  -0.599  1.00  0.00     0.347 A 
HETATM    6  O1  UNL     1      -8.341  -3.488  -0.745  1.00  0.00    -0.245 OA
HETATM    7  N10 UNL     1      -9.537  -4.953   0.529  1.00  0.00    -0.195 N 
HETATM    8  C8  UNL     1     -10.657  -5.694   0.589  1.00  0.00     0.141 A 
ENDROOT
BRANCH   2   9
HETATM    9  S1  UNL     1     -12.568  -4.970  -2.876  1.00  0.00    -0.045 SA
BRANCH   9  10
HETATM   10  C4  UNL     1     -12.813  -3.286  -3.488  1.00  0.00     0.135 A 
HETATM   11  N3  UNL     1     -12.055  -2.215  -3.268  1.00  0.00    -0.287 N 
HETATM   12  N4  UNL     1     -12.378  -1.105  -3.779  1.00  0.00    -0.289 N 
ATOM     13  H3  UNL     1     -11.218  -2.289  -2.690  1.00  0.00     0.188 HD
HETATM   14  C5  UNL     1     -13.471  -1.018  -4.530  1.00  0.00     0.138 A 
ATOM     15  H4  UNL     1     -11.802  -0.280  -3.615  1.00  0.00     0.188 HD
HETATM   16  S2  UNL     1     -14.037  -2.628  -4.479  1.00  0.00    -0.041 SA
BRANCH  14  17
HETATM   17  C6  UNL     1     -14.029   0.162  -5.217  1.00  0.00     0.167 A 
HETATM   18  N5  UNL     1     -13.610   1.430  -5.178  1.00  0.00    -0.268 N 
HETATM   19  N6  UNL     1     -14.379   2.195  -5.933  1.00  0.00    -0.007 NA
ATOM     20  H5  UNL     1     -12.808   1.761  -4.642  1.00  0.00     0.185 HD
HETATM   21  N7  UNL     1     -15.296   1.400  -6.454  1.00  0.00    -0.007 NA
HETATM   22  N8  UNL     1     -15.099   0.143  -6.027  1.00  0.00    -0.268 N 
ATOM     23  H8  UNL     1     -15.659  -0.674  -6.272  1.00  0.00     0.185 HD
ENDBRANCH  14  17
ENDBRANCH   9  10
ENDBRANCH   2   9
BRANCH   1  24
HETATM   24  C1  UNL     1     -12.765  -6.546  -0.271  1.00  0.00     0.127 C 
HETATM   25  N2  UNL     1     -12.733  -7.942  -0.511  1.00  0.00    -0.082 NA
BRANCH  24  26
HETATM   26  N1  UNL     1     -13.876  -6.011   0.092  1.00  0.00    -0.387 N 
ATOM     27  H12 UNL     1     -14.065  -5.867   1.085  1.00  0.00     0.157 HD
ATOM     28  H11 UNL     1     -14.546  -5.740  -0.628  1.00  0.00     0.157 HD
ENDBRANCH  24  26
ENDBRANCH   1  24
BRANCH   8  29
HETATM   29  N12 UNL     1     -10.874  -6.409   1.628  1.00  0.00    -0.383 N 
ATOM     30 2H12 UNL     1     -11.084  -5.947   2.512  1.00  0.00     0.157 HD
ATOM     31 1H12 UNL     1     -10.830  -7.424   1.533  1.00  0.00     0.157 HD
ENDBRANCH   8  29
BRANCH   7  32
HETATM   32  N11 UNL     1      -8.607  -4.938   1.557  1.00  0.00    -0.333 N 
ATOM     33 2H11 UNL     1      -7.861  -4.245   1.603  1.00  0.00     0.177 HD
ATOM     34 1H11 UNL     1      -8.634  -5.626   2.310  1.00  0.00     0.177 HD
ENDBRANCH   7  32
TORSDOF 7
ENDMDL
MODEL 5
REMARK VINA RESULT: -6.985996592      4.436      5.374
REMARK  7 active torsions:
REMARK  status: ('A' for Active; 'I' for Inactive)
REMARK    1  A    between atoms: N1_1  and  C1_4 
REMARK    2  A    between atoms: C1_4  and  C2_6 
REMARK    3  A    between atoms: C3_7  and  S1_8 
REMARK    4  A    between atoms: S1_8  and  C4_9 
REMARK    5  A    between atoms: C5_14  and  C6_15 
REMARK    6  A    between atoms: N10_27  and  N11_28 
REMARK    7  A    between atoms: C8_31  and  N12_32 
ROOT
HETATM    1  C2  UNL     1     -14.270  -7.316  -0.404  1.00  0.00     0.084 A 
HETATM    2  C3  UNL     1     -14.164  -6.138  -1.108  1.00  0.00     0.098 A 
HETATM    3  N9  UNL     1     -14.902  -5.084  -0.646  1.00  0.00    -0.300 N 
ATOM      4  H9  UNL     1     -14.853  -4.192  -1.138  1.00  0.00     0.171 HD
HETATM    5  C7  UNL     1     -15.693  -5.190   0.440  1.00  0.00     0.347 A 
HETATM    6  O1  UNL     1     -16.331  -4.158   0.781  1.00  0.00    -0.245 OA
HETATM    7  N10 UNL     1     -15.807  -6.348   1.145  1.00  0.00    -0.195 N 
HETATM    8  C8  UNL     1     -15.086  -7.392   0.701  1.00  0.00     0.141 A 
ENDROOT
BRANCH   2   9
HETATM    9  S1  UNL     1     -13.128  -6.004  -2.528  1.00  0.00    -0.045 SA
BRANCH   9  10
HETATM   10  C4  UNL     1     -13.048  -4.280  -3.069  1.00  0.00     0.135 A 
HETATM   11  N3  UNL     1     -12.062  -3.407  -2.881  1.00  0.00    -0.287 N 
HETATM   12  N4  UNL     1     -12.174  -2.232  -3.332  1.00  0.00    -0.289 N 
ATOM     13  H3  UNL     1     -11.220  -3.685  -2.377  1.00  0.00     0.188 HD
HETATM   14  C5  UNL     1     -13.275  -1.879  -3.988  1.00  0.00     0.138 A 
ATOM     15  H4  UNL     1     -11.423  -1.557  -3.193  1.00  0.00     0.188 HD
HETATM   16  S2  UNL     1     -14.171  -3.332  -3.937  1.00  0.00    -0.041 SA
BRANCH  14  17
HETATM   17  C6  UNL     1     -13.614  -0.578  -4.593  1.00  0.00     0.167 A 
HETATM   18  N5  UNL     1     -14.739  -0.210  -5.215  1.00  0.00    -0.268 N 
HETATM   19  N6  UNL     1     -14.655   1.045  -5.618  1.00  0.00    -0.007 NA
ATOM     20  H5  UNL     1     -15.548  -0.815  -5.358  1.00  0.00     0.185 HD
HETATM   21  N7  UNL     1     -13.463   1.476  -5.247  1.00  0.00    -0.007 NA
HETATM   22  N8  UNL     1     -12.805   0.493  -4.613  1.00  0.00    -0.268 N 
ATOM     23  H8  UNL     1     -11.865   0.550  -4.220  1.00  0.00     0.185 HD
ENDBRANCH  14  17
ENDBRANCH   9  10
ENDBRANCH   2   9
BRANCH   1  24
HETATM   24  C1  UNL     1     -13.530  -8.493  -0.808  1.00  0.00     0.127 C 
HETATM   25  N2  UNL     1     -12.375  -8.925  -0.112  1.00  0.00    -0.082 NA
BRANCH  24  26
HETATM   26  N1  UNL     1     -13.925  -9.172  -1.826  1.00  0.00    -0.387 N 
ATOM     27  H12 UNL     1     -13.662  -8.871  -2.765  1.00  0.00     0.157 HD
ATOM     28  H11 UNL     1     -14.496 -10.002  -1.667  1.00  0.00     0.157 HD
ENDBRANCH  24  26
ENDBRANCH   1  24
BRANCH   8  29
HETATM   29  N12 UNL     1     -15.156  -8.506   1.326  1.00  0.00    -0.383 N 
ATOM     30 2H12 UNL     1     -14.302  -9.037   1.490  1.00  0.00     0.157 HD
ATOM     31 1H12 UNL     1     -16.072  -8.826   1.642  1.00  0.00     0.157 HD
ENDBRANCH   8  29
BRANCH   7  32
HETATM   32  N11 UNL     1     -16.627  -6.438   2.260  1.00  0.00    -0.333 N 
ATOM     33 2H11 UNL     1     -17.397  -5.790   2.421  1.00  0.00     0.177 HD
ATOM     34 1H11 UNL     1     -16.488  -7.162   2.966  1.00  0.00     0.177 HD
ENDBRANCH   7  32
TORSDOF 7
ENDMDL
