MODEL 1
REMARK VINA RESULT: -7.506652415      0.000      0.000
REMARK  8 active torsions:
REMARK  status: ('A' for Active; 'I' for Inactive)
REMARK    1  A    between atoms: N1_1  and  C1_4 
REMARK    2  A    between atoms: C2_7  and  N3_8 
REMARK    3  A    between atoms: C3_11  and  C4_12 
REMARK    4  A    between atoms: C4_12  and  O4_14 
REMARK    5  A    between atoms: O4_14  and  N4_15 
REMARK    6  A    between atoms: N4_15  and  N5_17 
REMARK    7  A    between atoms: N5_17  and  O5_18 
REMARK    8  A    between atoms: N5_17  and  C5_20 
ROOT
HETATM    1  C4  UNL     1     -13.479  -4.693  -3.432  1.00  0.00     0.326 C 
HETATM    2  O3  UNL     1     -12.937  -5.560  -4.157  1.00  0.00    -0.257 OA
ENDROOT
BRANCH   1   3
HETATM    3  C3  UNL     1     -13.291  -3.255  -3.737  1.00  0.00     0.160 A 
HETATM    4  C2  UNL     1     -12.118  -2.599  -3.439  1.00  0.00     0.210 A 
HETATM    5  N2  UNL     1     -12.017  -1.291  -3.745  1.00  0.00    -0.170 N 
HETATM    6  C1  UNL     1     -12.993  -0.575  -4.330  1.00  0.00     0.680 A 
ATOM      7  H2  UNL     1     -11.144  -0.814  -3.520  1.00  0.00     0.186 HD
HETATM    8  N8  UNL     1     -14.131  -1.227  -4.614  1.00  0.00    -0.155 N 
HETATM    9  C7  UNL     1     -14.298  -2.528  -4.336  1.00  0.00     0.280 A 
ATOM     10  H8  UNL     1     -14.894  -0.715  -5.057  1.00  0.00     0.187 HD
HETATM   11  O7  UNL     1     -15.382  -3.114  -4.616  1.00  0.00    -0.266 OA
BRANCH   4  12
HETATM   12  N3  UNL     1     -11.028  -3.282  -2.816  1.00  0.00    -0.096 N 
HETATM   13  O1  UNL     1     -10.137  -3.750  -3.511  1.00  0.00    -0.530 OA
HETATM   14  O2  UNL     1     -10.998  -3.405  -1.463  1.00  0.00    -0.530 OA
ENDBRANCH   4  12
BRANCH   6  15
HETATM   15  N1  UNL     1     -12.838   0.690  -4.604  1.00  0.00    -0.234 N 
ATOM     16  H12 UNL     1     -12.654   1.016  -5.552  1.00  0.00     0.174 HD
ATOM     17  H11 UNL     1     -12.897   1.404  -3.877  1.00  0.00     0.174 HD
ENDBRANCH   6  15
ENDBRANCH   1   3
BRANCH   1  18
HETATM   18  O4  UNL     1     -14.239  -5.107  -2.370  1.00  0.00    -0.176 OA
BRANCH  18  19
HETATM   19  N4  UNL     1     -13.858  -5.094  -1.102  1.00  0.00    -0.169 N 
ATOM     20  H4  UNL     1     -14.238  -4.392  -0.468  1.00  0.00     0.219 HD
BRANCH  19  21
HETATM   21  N5  UNL     1     -12.965  -6.011  -0.635  1.00  0.00    -0.117 N 
BRANCH  21  22
HETATM   22  O5  UNL     1     -11.870  -5.640   0.044  1.00  0.00    -0.264 OA
ATOM     23  H5  UNL     1     -11.095  -6.189   0.075  1.00  0.00     0.247 HD
ENDBRANCH  21  22
BRANCH  21  24
HETATM   24  C5  UNL     1     -13.182  -7.401  -0.855  1.00  0.00     0.215 A 
HETATM   25  N6  UNL     1     -13.619  -7.991  -1.958  1.00  0.00    -0.273 N 
HETATM   26  N7  UNL     1     -13.762  -9.249  -2.004  1.00  0.00    -0.258 N 
ATOM     27  H6  UNL     1     -13.843  -7.427  -2.777  1.00  0.00     0.189 HD
HETATM   28  C6  UNL     1     -13.465  -9.974  -0.924  1.00  0.00     0.306 A 
ATOM     29  H7  UNL     1     -14.099  -9.701  -2.855  1.00  0.00     0.191 HD
HETATM   30  O6  UNL     1     -13.543 -11.245  -0.779  1.00  0.00    -0.258 OA
HETATM   31  S1  UNL     1     -12.965  -8.752   0.175  1.00  0.00     0.014 SA
ENDBRANCH  21  24
ENDBRANCH  19  21
ENDBRANCH  18  19
ENDBRANCH   1  18
TORSDOF 8
ENDMDL
MODEL 2
REMARK VINA RESULT: -7.113337679      1.864      1.917
REMARK  8 active torsions:
REMARK  status: ('A' for Active; 'I' for Inactive)
REMARK    1  A    between atoms: N1_1  and  C1_4 
REMARK    2  A    between atoms: C2_7  and  N3_8 
REMARK    3  A    between atoms: C3_11  and  C4_12 
REMARK    4  A    between atoms: C4_12  and  O4_14 
REMARK    5  A    between atoms: O4_14  and  N4_15 
REMARK    6  A    between atoms: N4_15  and  N5_17 
REMARK    7  A    between atoms: N5_17  and  O5_18 
REMARK    8  A    between atoms: N5_17  and  C5_20 
ROOT
HETATM    1  C4  UNL     1     -13.552  -4.415  -3.667  1.00  0.00     0.326 C 
HETATM    2  O3  UNL     1     -13.082  -5.247  -4.480  1.00  0.00    -0.257 OA
ENDROOT
BRANCH   1   3
HETATM    3  C3  UNL     1     -13.336  -2.966  -3.888  1.00  0.00     0.160 A 
HETATM    4  C2  UNL     1     -12.166  -2.343  -3.515  1.00  0.00     0.210 A 
HETATM    5  N2  UNL     1     -12.038  -1.022  -3.748  1.00  0.00    -0.170 N 
HETATM    6  C1  UNL     1     -12.984  -0.263  -4.326  1.00  0.00     0.680 A 
ATOM      7  H2  UNL     1     -11.168  -0.571  -3.468  1.00  0.00     0.186 HD
HETATM    8  N8  UNL     1     -14.119  -0.882  -4.683  1.00  0.00    -0.155 N 
HETATM    9  C7  UNL     1     -14.312  -2.195  -4.481  1.00  0.00     0.280 A 
ATOM     10  H8  UNL     1     -14.861  -0.338  -5.123  1.00  0.00     0.187 HD
HETATM   11  O7  UNL     1     -15.392  -2.749  -4.829  1.00  0.00    -0.266 OA
BRANCH   4  12
HETATM   12  N3  UNL     1     -11.107  -3.074  -2.894  1.00  0.00    -0.096 N 
HETATM   13  O1  UNL     1     -10.180  -3.488  -3.577  1.00  0.00    -0.530 OA
HETATM   14  O2  UNL     1     -11.144  -3.301  -1.554  1.00  0.00    -0.530 OA
ENDBRANCH   4  12
BRANCH   6  15
HETATM   15  N1  UNL     1     -12.805   1.013  -4.526  1.00  0.00    -0.234 N 
ATOM     16  H12 UNL     1     -12.069   1.534  -4.049  1.00  0.00     0.174 HD
ATOM     17  H11 UNL     1     -13.395   1.539  -5.170  1.00  0.00     0.174 HD
ENDBRANCH   6  15
ENDBRANCH   1   3
BRANCH   1  18
HETATM   18  O4  UNL     1     -14.260  -4.879  -2.590  1.00  0.00    -0.176 OA
BRANCH  18  19
HETATM   19  N4  UNL     1     -14.030  -4.561  -1.326  1.00  0.00    -0.169 N 
ATOM     20  H4  UNL     1     -13.237  -3.964  -1.091  1.00  0.00     0.219 HD
BRANCH  19  21
HETATM   21  N5  UNL     1     -14.841  -5.023  -0.334  1.00  0.00    -0.117 N 
BRANCH  21  22
HETATM   22  O5  UNL     1     -15.071  -4.306   0.775  1.00  0.00    -0.264 OA
ATOM     23  H5  UNL     1     -14.363  -3.892   1.255  1.00  0.00     0.247 HD
ENDBRANCH  21  22
BRANCH  21  24
HETATM   24  C5  UNL     1     -15.477  -6.291  -0.459  1.00  0.00     0.215 A 
HETATM   25  N6  UNL     1     -15.313  -7.191  -1.417  1.00  0.00    -0.273 N 
HETATM   26  N7  UNL     1     -15.953  -8.285  -1.393  1.00  0.00    -0.258 N 
ATOM     27  H6  UNL     1     -14.665  -7.002  -2.182  1.00  0.00     0.189 HD
HETATM   28  C6  UNL     1     -16.797  -8.518  -0.386  1.00  0.00     0.306 A 
ATOM     29  H7  UNL     1     -15.825  -8.976  -2.132  1.00  0.00     0.191 HD
HETATM   30  O6  UNL     1     -17.526  -9.553  -0.189  1.00  0.00    -0.258 OA
HETATM   31  S1  UNL     1     -16.628  -7.078   0.536  1.00  0.00     0.014 SA
ENDBRANCH  21  24
ENDBRANCH  19  21
ENDBRANCH  18  19
ENDBRANCH   1  18
TORSDOF 8
ENDMDL
MODEL 3
REMARK VINA RESULT: -7.096751922      4.069      7.743
REMARK  8 active torsions:
REMARK  status: ('A' for Active; 'I' for Inactive)
REMARK    1  A    between atoms: N1_1  and  C1_4 
REMARK    2  A    between atoms: C2_7  and  N3_8 
REMARK    3  A    between atoms: C3_11  and  C4_12 
REMARK    4  A    between atoms: C4_12  and  O4_14 
REMARK    5  A    between atoms: O4_14  and  N4_15 
REMARK    6  A    between atoms: N4_15  and  N5_17 
REMARK    7  A    between atoms: N5_17  and  O5_18 
REMARK    8  A    between atoms: N5_17  and  C5_20 
ROOT
HETATM    1  C4  UNL     1     -14.068  -2.347  -4.333  1.00  0.00     0.326 C 
HETATM    2  O3  UNL     1     -15.124  -2.540  -3.685  1.00  0.00    -0.257 OA
ENDROOT
BRANCH   1   3
HETATM    3  C3  UNL     1     -12.755  -2.498  -3.663  1.00  0.00     0.160 A 
HETATM    4  C2  UNL     1     -12.267  -3.732  -3.296  1.00  0.00     0.210 A 
HETATM    5  N2  UNL     1     -11.064  -3.795  -2.692  1.00  0.00    -0.170 N 
HETATM    6  C1  UNL     1     -10.300  -2.723  -2.420  1.00  0.00     0.680 A 
ATOM      7  H2  UNL     1     -10.712  -4.713  -2.424  1.00  0.00     0.186 HD
HETATM    8  N8  UNL     1     -10.788  -1.527  -2.783  1.00  0.00    -0.155 N 
HETATM    9  C7  UNL     1     -11.978  -1.394  -3.388  1.00  0.00     0.280 A 
ATOM     10  H8  UNL     1     -10.236  -0.691  -2.592  1.00  0.00     0.187 HD
HETATM   11  O7  UNL     1     -12.410  -0.253  -3.717  1.00  0.00    -0.266 OA
BRANCH   4  12
HETATM   12  N3  UNL     1     -13.014  -4.925  -3.546  1.00  0.00    -0.096 N 
HETATM   13  O1  UNL     1     -12.867  -5.515  -4.607  1.00  0.00    -0.530 OA
HETATM   14  O2  UNL     1     -13.877  -5.386  -2.603  1.00  0.00    -0.530 OA
ENDBRANCH   4  12
BRANCH   6  15
HETATM   15  N1  UNL     1      -9.143  -2.844  -1.833  1.00  0.00    -0.234 N 
ATOM     16  H12 UNL     1      -9.063  -3.009  -0.829  1.00  0.00     0.174 HD
ATOM     17  H11 UNL     1      -8.270  -2.779  -2.356  1.00  0.00     0.174 HD
ENDBRANCH   6  15
ENDBRANCH   1   3
BRANCH   1  18
HETATM   18  O4  UNL     1     -14.163  -2.000  -5.654  1.00  0.00    -0.176 OA
BRANCH  18  19
HETATM   19  N4  UNL     1     -15.141  -1.289  -6.193  1.00  0.00    -0.169 N 
ATOM     20  H4  UNL     1     -16.107  -1.470  -5.921  1.00  0.00     0.219 HD
BRANCH  19  21
HETATM   21  N5  UNL     1     -14.870  -0.317  -7.108  1.00  0.00    -0.117 N 
BRANCH  21  22
HETATM   22  O5  UNL     1     -15.406  -0.341  -8.337  1.00  0.00    -0.264 OA
ATOM     23  H5  UNL     1     -15.058  -0.903  -9.019  1.00  0.00     0.247 HD
ENDBRANCH  21  22
BRANCH  21  24
HETATM   24  C5  UNL     1     -14.006   0.765  -6.772  1.00  0.00     0.215 A 
HETATM   25  N6  UNL     1     -13.752   1.259  -5.569  1.00  0.00    -0.273 N 
HETATM   26  N7  UNL     1     -12.953   2.231  -5.426  1.00  0.00    -0.258 N 
ATOM     27  H6  UNL     1     -14.205   0.852  -4.751  1.00  0.00     0.189 HD
HETATM   28  C6  UNL     1     -12.368   2.752  -6.507  1.00  0.00     0.306 A 
ATOM     29  H7  UNL     1     -12.759   2.610  -4.499  1.00  0.00     0.191 HD
HETATM   30  O6  UNL     1     -11.539   3.728  -6.564  1.00  0.00    -0.258 OA
HETATM   31  S1  UNL     1     -13.027   1.771  -7.753  1.00  0.00     0.014 SA
ENDBRANCH  21  24
ENDBRANCH  19  21
ENDBRANCH  18  19
ENDBRANCH   1  18
TORSDOF 8
ENDMDL
MODEL 4
REMARK VINA RESULT: -7.010429413      3.318      6.918
REMARK  8 active torsions:
REMARK  status: ('A' for Active; 'I' for Inactive)
REMARK    1  A    between atoms: N1_1  and  C1_4 
REMARK    2  A    between atoms: C2_7  and  N3_8 
REMARK    3  A    between atoms: C3_11  and  C4_12 
REMARK    4  A    between atoms: C4_12  and  O4_14 
REMARK    5  A    between atoms: O4_14  and  N4_15 
REMARK    6  A    between atoms: N4_15  and  N5_17 
REMARK    7  A    between atoms: N5_17  and  O5_18 
REMARK    8  A    between atoms: N5_17  and  C5_20 
ROOT
HETATM    1  C4  UNL     1     -12.857  -4.849  -3.977  1.00  0.00     0.326 C 
HETATM    2  O3  UNL     1     -12.715  -5.698  -4.890  1.00  0.00    -0.257 OA
ENDROOT
BRANCH   1   3
HETATM    3  C3  UNL     1     -12.037  -4.946  -2.748  1.00  0.00     0.160 A 
HETATM    4  C2  UNL     1     -12.429  -5.712  -1.673  1.00  0.00     0.210 A 
HETATM    5  N2  UNL     1     -11.632  -5.754  -0.587  1.00  0.00    -0.170 N 
HETATM    6  C1  UNL     1     -10.467  -5.093  -0.480  1.00  0.00     0.680 A 
ATOM      7  H2  UNL     1     -11.932  -6.324   0.203  1.00  0.00     0.186 HD
HETATM    8  N8  UNL     1     -10.097  -4.350  -1.534  1.00  0.00    -0.155 N 
HETATM    9  C7  UNL     1     -10.843  -4.263  -2.646  1.00  0.00     0.280 A 
ATOM     10  H8  UNL     1      -9.219  -3.833  -1.489  1.00  0.00     0.187 HD
HETATM   11  O7  UNL     1     -10.467  -3.555  -3.622  1.00  0.00    -0.266 OA
BRANCH   4  12
HETATM   12  N3  UNL     1     -13.654  -6.448  -1.700  1.00  0.00    -0.096 N 
HETATM   13  O1  UNL     1     -14.683  -5.917  -1.304  1.00  0.00    -0.530 OA
HETATM   14  O2  UNL     1     -13.659  -7.726  -2.162  1.00  0.00    -0.530 OA
ENDBRANCH   4  12
BRANCH   6  15
HETATM   15  N1  UNL     1      -9.736  -5.171   0.596  1.00  0.00    -0.234 N 
ATOM     16  H12 UNL     1      -9.432  -6.067   0.976  1.00  0.00     0.174 HD
ATOM     17  H11 UNL     1      -9.440  -4.335   1.101  1.00  0.00     0.174 HD
ENDBRANCH   6  15
ENDBRANCH   1   3
BRANCH   1  18
HETATM   18  O4  UNL     1     -13.775  -3.848  -4.150  1.00  0.00    -0.176 OA
BRANCH  18  19
HETATM   19  N4  UNL     1     -13.788  -2.697  -3.496  1.00  0.00    -0.169 N 
ATOM     20  H4  UNL     1     -14.201  -2.650  -2.564  1.00  0.00     0.219 HD
BRANCH  19  21
HETATM   21  N5  UNL     1     -13.256  -1.574  -4.054  1.00  0.00    -0.117 N 
BRANCH  21  22
HETATM   22  O5  UNL     1     -12.138  -1.013  -3.571  1.00  0.00    -0.264 OA
ATOM     23  H5  UNL     1     -12.151  -0.161  -3.151  1.00  0.00     0.247 HD
ENDBRANCH  21  22
BRANCH  21  24
HETATM   24  C5  UNL     1     -13.880  -0.967  -5.181  1.00  0.00     0.215 A 
HETATM   25  N6  UNL     1     -14.617  -1.552  -6.114  1.00  0.00    -0.273 N 
HETATM   26  N7  UNL     1     -15.111  -0.876  -7.065  1.00  0.00    -0.258 N 
ATOM     27  H6  UNL     1     -14.788  -2.556  -6.067  1.00  0.00     0.189 HD
HETATM   28  C6  UNL     1     -14.878   0.437  -7.114  1.00  0.00     0.306 A 
ATOM     29  H7  UNL     1     -15.678  -1.328  -7.783  1.00  0.00     0.191 HD
HETATM   30  O6  UNL     1     -15.287   1.281  -7.988  1.00  0.00    -0.258 OA
HETATM   31  S1  UNL     1     -13.906   0.660  -5.716  1.00  0.00     0.014 SA
ENDBRANCH  21  24
ENDBRANCH  19  21
ENDBRANCH  18  19
ENDBRANCH   1  18
TORSDOF 8
ENDMDL
MODEL 5
REMARK VINA RESULT: -6.899506794      3.363      7.052
REMARK  8 active torsions:
REMARK  status: ('A' for Active; 'I' for Inactive)
REMARK    1  A    between atoms: N1_1  and  C1_4 
REMARK    2  A    between atoms: C2_7  and  N3_8 
REMARK    3  A    between atoms: C3_11  and  C4_12 
REMARK    4  A    between atoms: C4_12  and  O4_14 
REMARK    5  A    between atoms: O4_14  and  N4_15 
REMARK    6  A    between atoms: N4_15  and  N5_17 
REMARK    7  A    between atoms: N5_17  and  O5_18 
REMARK    8  A    between atoms: N5_17  and  C5_20 
ROOT
HETATM    1  C4  UNL     1     -13.339  -4.479  -3.312  1.00  0.00     0.326 C 
HETATM    2  O3  UNL     1     -13.165  -4.956  -4.458  1.00  0.00    -0.257 OA
ENDROOT
BRANCH   1   3
HETATM    3  C3  UNL     1     -12.608  -5.051  -2.157  1.00  0.00     0.160 A 
HETATM    4  C2  UNL     1     -11.357  -4.603  -1.798  1.00  0.00     0.210 A 
HETATM    5  N2  UNL     1     -10.751  -5.168  -0.735  1.00  0.00    -0.170 N 
HETATM    6  C1  UNL     1     -11.291  -6.149   0.007  1.00  0.00     0.680 A 
ATOM      7  H2  UNL     1      -9.824  -4.829  -0.478  1.00  0.00     0.186 HD
HETATM    8  N8  UNL     1     -12.510  -6.577  -0.354  1.00  0.00    -0.155 N 
HETATM    9  C7  UNL     1     -13.169  -6.058  -1.401  1.00  0.00     0.280 A 
ATOM     10  H8  UNL     1     -12.951  -7.322   0.186  1.00  0.00     0.187 HD
HETATM   11  O7  UNL     1     -14.316  -6.482  -1.715  1.00  0.00    -0.266 OA
BRANCH   4  12
HETATM   12  N3  UNL     1     -10.707  -3.562  -2.532  1.00  0.00    -0.096 N 
HETATM   13  O1  UNL     1     -10.121  -3.835  -3.570  1.00  0.00    -0.530 OA
HETATM   14  O2  UNL     1     -10.747  -2.286  -2.066  1.00  0.00    -0.530 OA
ENDBRANCH   4  12
BRANCH   6  15
HETATM   15  N1  UNL     1     -10.657  -6.659   1.026  1.00  0.00    -0.234 N 
ATOM     16  H12 UNL     1     -10.702  -6.237   1.953  1.00  0.00     0.174 HD
ATOM     17  H11 UNL     1     -10.092  -7.503   0.934  1.00  0.00     0.174 HD
ENDBRANCH   6  15
ENDBRANCH   1   3
BRANCH   1  18
HETATM   18  O4  UNL     1     -14.209  -3.432  -3.162  1.00  0.00    -0.176 OA
BRANCH  18  19
HETATM   19  N4  UNL     1     -14.604  -2.617  -4.128  1.00  0.00    -0.169 N 
ATOM     20  H4  UNL     1     -15.467  -2.815  -4.634  1.00  0.00     0.219 HD
BRANCH  19  21
HETATM   21  N5  UNL     1     -13.868  -1.518  -4.455  1.00  0.00    -0.117 N 
BRANCH  21  22
HETATM   22  O5  UNL     1     -12.836  -1.115  -3.700  1.00  0.00    -0.264 OA
ATOM     23  H5  UNL     1     -12.911  -1.042  -2.755  1.00  0.00     0.247 HD
ENDBRANCH  21  22
BRANCH  21  24
HETATM   24  C5  UNL     1     -14.179  -0.768  -5.625  1.00  0.00     0.215 A 
HETATM   25  N6  UNL     1     -14.773  -1.194  -6.730  1.00  0.00    -0.273 N 
HETATM   26  N7  UNL     1     -14.985  -0.402  -7.696  1.00  0.00    -0.258 N 
ATOM     27  H6  UNL     1     -15.061  -2.170  -6.804  1.00  0.00     0.189 HD
HETATM   28  C6  UNL     1     -14.602   0.871  -7.584  1.00  0.00     0.306 A 
ATOM     29  H7  UNL     1     -15.442  -0.734  -8.546  1.00  0.00     0.191 HD
HETATM   30  O6  UNL     1     -14.728   1.812  -8.445  1.00  0.00    -0.258 OA
HETATM   31  S1  UNL     1     -13.914   0.880  -6.011  1.00  0.00     0.014 SA
ENDBRANCH  21  24
ENDBRANCH  19  21
ENDBRANCH  18  19
ENDBRANCH   1  18
TORSDOF 8
ENDMDL
