MODEL 1
REMARK VINA RESULT: -8.083740262      0.000      0.000
REMARK  7 active torsions:
REMARK  status: ('A' for Active; 'I' for Inactive)
REMARK    1  A    between atoms: N1_1  and  C1_4 
REMARK    2  A    between atoms: C1_4  and  N2_5 
REMARK    3  A    between atoms: C1_4  and  C5_21 
REMARK    4  A    between atoms: N2_5  and  N3_7 
REMARK       I    between atoms: N3_7  and  C2_9 
REMARK    5  A    between atoms: C2_9  and  C3_11 
REMARK    6  A    between atoms: C4_17  and  N6_18 
REMARK    7  A    between atoms: N9_26  and  C6_27 
ROOT
HETATM    1  C1  UNL     1     -11.121  -4.026  -3.106  1.00  0.00     0.161 C 
ENDROOT
BRANCH   1   2
HETATM    2  N1  UNL     1     -12.041  -4.918  -3.230  1.00  0.00    -0.381 N 
ATOM      3  H12 UNL     1     -11.769  -5.900  -3.194  1.00  0.00     0.157 HD
ATOM      4  H11 UNL     1     -13.018  -4.658  -3.365  1.00  0.00     0.157 HD
ENDBRANCH   1   2
BRANCH   1   5
HETATM    5  N2  UNL     1      -9.780  -4.383  -2.796  1.00  0.00    -0.280 N 
ATOM      6  H2  UNL     1      -9.087  -4.425  -3.543  1.00  0.00     0.188 HD
BRANCH   5   7
HETATM    7  N3  UNL     1      -9.392  -4.683  -1.471  1.00  0.00    -0.263 N 
HETATM    8  C2  UNL     1      -8.742  -3.692  -0.679  1.00  0.00     0.292 C 
HETATM    9  O1  UNL     1      -8.505  -2.550  -1.141  1.00  0.00    -0.264 OA
ATOM     10  H3  UNL     1      -9.576  -5.607  -1.082  1.00  0.00     0.190 HD
BRANCH   8  11
HETATM   11  C3  UNL     1      -8.353  -4.024   0.685  1.00  0.00     0.171 A 
HETATM   12  N4  UNL     1      -8.967  -4.939   1.493  1.00  0.00    -0.232 N 
HETATM   13  O2  UNL     1      -8.358  -4.978   2.630  1.00  0.00    -0.155 OA
ATOM     14  H4  UNL     1      -9.778  -5.502   1.238  1.00  0.00     0.197 HD
HETATM   15  N5  UNL     1      -7.368  -4.152   2.662  1.00  0.00    -0.224 N 
HETATM   16  C4  UNL     1      -7.325  -3.525   1.448  1.00  0.00     0.155 A 
ATOM     17  H5  UNL     1      -6.734  -3.996   3.446  1.00  0.00     0.198 HD
BRANCH  16  18
HETATM   18  N6  UNL     1      -6.469  -2.642   1.127  1.00  0.00    -0.382 N 
ATOM     19  H62 UNL     1      -6.383  -2.235   0.196  1.00  0.00     0.157 HD
ATOM     20  H61 UNL     1      -5.757  -2.212   1.718  1.00  0.00     0.157 HD
ENDBRANCH  16  18
ENDBRANCH   8  11
ENDBRANCH   5   7
ENDBRANCH   1   5
BRANCH   1  21
HETATM   21  C5  UNL     1     -11.488  -2.630  -3.286  1.00  0.00     0.183 A 
HETATM   22  N7  UNL     1     -10.990  -1.603  -2.564  1.00  0.00    -0.265 N 
HETATM   23  N8  UNL     1     -11.543  -0.487  -2.996  1.00  0.00    -0.218 N 
ATOM     24  H7  UNL     1     -10.303  -1.678  -1.812  1.00  0.00     0.190 HD
HETATM   25  N9  UNL     1     -12.386  -0.768  -3.980  1.00  0.00    -0.158 N 
ATOM     26  H8  UNL     1     -11.352   0.445  -2.631  1.00  0.00     0.210 HD
HETATM   27  N12 UNL     1     -12.343  -2.080  -4.148  1.00  0.00    -0.257 N 
ATOM     28  H12 UNL     1     -12.886  -2.597  -4.840  1.00  0.00     0.191 HD
BRANCH  25  29
HETATM   29  C6  UNL     1     -13.177   0.176  -4.708  1.00  0.00     0.208 A 
HETATM   30  N10 UNL     1     -12.854   1.474  -4.940  1.00  0.00    -0.220 N 
HETATM   31  O3  UNL     1     -13.825   1.967  -5.624  1.00  0.00    -0.154 OA
ATOM     32  H10 UNL     1     -12.011   1.960  -4.634  1.00  0.00     0.198 HD
HETATM   33  N11 UNL     1     -14.765   1.107  -5.865  1.00  0.00    -0.227 N 
HETATM   34  C7  UNL     1     -14.392  -0.058  -5.297  1.00  0.00     0.172 A 
ATOM     35  H11 UNL     1     -15.624   1.278  -6.387  1.00  0.00     0.198 HD
HETATM   36  S1  UNL     1     -15.254  -1.457  -5.323  1.00  0.00    -0.054 SA
ENDBRANCH  25  29
ENDBRANCH   1  21
TORSDOF 7
ENDMDL
MODEL 2
REMARK VINA RESULT: -7.939567380      3.409      4.918
REMARK  7 active torsions:
REMARK  status: ('A' for Active; 'I' for Inactive)
REMARK    1  A    between atoms: N1_1  and  C1_4 
REMARK    2  A    between atoms: C1_4  and  N2_5 
REMARK    3  A    between atoms: C1_4  and  C5_21 
REMARK    4  A    between atoms: N2_5  and  N3_7 
REMARK       I    between atoms: N3_7  and  C2_9 
REMARK    5  A    between atoms: C2_9  and  C3_11 
REMARK    6  A    between atoms: C4_17  and  N6_18 
REMARK    7  A    between atoms: N9_26  and  C6_27 
ROOT
HETATM    1  C1  UNL     1     -11.138  -3.954  -2.789  1.00  0.00     0.161 C 
ENDROOT
BRANCH   1   2
HETATM    2  N1  UNL     1     -10.534  -4.634  -3.701  1.00  0.00    -0.381 N 
ATOM      3  H12 UNL     1      -9.730  -4.212  -4.164  1.00  0.00     0.157 HD
ATOM      4  H11 UNL     1     -10.847  -5.569  -3.961  1.00  0.00     0.157 HD
ENDBRANCH   1   2
BRANCH   1   5
HETATM    5  N2  UNL     1     -11.457  -4.528  -1.528  1.00  0.00    -0.280 N 
ATOM      6  H2  UNL     1     -11.206  -4.031  -0.673  1.00  0.00     0.188 HD
BRANCH   5   7
HETATM    7  N3  UNL     1     -12.115  -5.775  -1.438  1.00  0.00    -0.263 N 
HETATM    8  C2  UNL     1     -13.531  -5.844  -1.576  1.00  0.00     0.292 C 
HETATM    9  O1  UNL     1     -14.212  -4.809  -1.776  1.00  0.00    -0.264 OA
ATOM     10  H3  UNL     1     -11.576  -6.626  -1.275  1.00  0.00     0.190 HD
BRANCH   8  11
HETATM   11  C3  UNL     1     -14.187  -7.142  -1.482  1.00  0.00     0.171 A 
HETATM   12  N4  UNL     1     -13.671  -8.333  -1.910  1.00  0.00    -0.232 N 
HETATM   13  O2  UNL     1     -14.518  -9.274  -1.668  1.00  0.00    -0.155 OA
ATOM     14  H4  UNL     1     -12.760  -8.457  -2.352  1.00  0.00     0.197 HD
HETATM   15  N5  UNL     1     -15.584  -8.815  -1.103  1.00  0.00    -0.224 N 
HETATM   16  C4  UNL     1     -15.418  -7.465  -0.964  1.00  0.00     0.155 A 
ATOM     17  H5  UNL     1     -16.398  -9.357  -0.814  1.00  0.00     0.198 HD
BRANCH  16  18
HETATM   18  N6  UNL     1     -16.277  -6.687  -0.443  1.00  0.00    -0.382 N 
ATOM     19  H62 UNL     1     -17.275  -6.708  -0.655  1.00  0.00     0.157 HD
ATOM     20  H61 UNL     1     -16.122  -5.946   0.240  1.00  0.00     0.157 HD
ENDBRANCH  16  18
ENDBRANCH   8  11
ENDBRANCH   5   7
ENDBRANCH   1   5
BRANCH   1  21
HETATM   21  C5  UNL     1     -11.494  -2.575  -3.082  1.00  0.00     0.183 A 
HETATM   22  N7  UNL     1     -10.940  -1.494  -2.490  1.00  0.00    -0.265 N 
HETATM   23  N8  UNL     1     -11.500  -0.414  -2.995  1.00  0.00    -0.218 N 
ATOM     24  H7  UNL     1     -10.212  -1.511  -1.774  1.00  0.00     0.190 HD
HETATM   25  N9  UNL     1     -12.403  -0.770  -3.900  1.00  0.00    -0.158 N 
ATOM     26  H8  UNL     1     -11.275   0.545  -2.733  1.00  0.00     0.210 HD
HETATM   27  N12 UNL     1     -12.388  -2.092  -3.944  1.00  0.00    -0.257 N 
ATOM     28  H12 UNL     1     -12.978  -2.661  -4.551  1.00  0.00     0.191 HD
BRANCH  25  29
HETATM   29  C6  UNL     1     -13.220   0.117  -4.670  1.00  0.00     0.208 A 
HETATM   30  N10 UNL     1     -12.968   1.430  -4.904  1.00  0.00    -0.220 N 
HETATM   31  O3  UNL     1     -13.939   1.857  -5.632  1.00  0.00    -0.154 OA
ATOM     32  H10 UNL     1     -12.170   1.971  -4.569  1.00  0.00     0.198 HD
HETATM   33  N11 UNL     1     -14.813   0.937  -5.901  1.00  0.00    -0.227 N 
HETATM   34  C7  UNL     1     -14.393  -0.197  -5.304  1.00  0.00     0.172 A 
ATOM     35  H11 UNL     1     -15.659   1.050  -6.459  1.00  0.00     0.198 HD
HETATM   36  S1  UNL     1     -15.164  -1.647  -5.350  1.00  0.00    -0.054 SA
ENDBRANCH  25  29
ENDBRANCH   1  21
TORSDOF 7
ENDMDL
MODEL 3
REMARK VINA RESULT: -7.925556172      2.654      8.196
REMARK  7 active torsions:
REMARK  status: ('A' for Active; 'I' for Inactive)
REMARK    1  A    between atoms: N1_1  and  C1_4 
REMARK    2  A    between atoms: C1_4  and  N2_5 
REMARK    3  A    between atoms: C1_4  and  C5_21 
REMARK    4  A    between atoms: N2_5  and  N3_7 
REMARK       I    between atoms: N3_7  and  C2_9 
REMARK    5  A    between atoms: C2_9  and  C3_11 
REMARK    6  A    between atoms: C4_17  and  N6_18 
REMARK    7  A    between atoms: N9_26  and  C6_27 
ROOT
HETATM    1  C1  UNL     1     -12.764  -4.390  -3.584  1.00  0.00     0.161 C 
ENDROOT
BRANCH   1   2
HETATM    2  N1  UNL     1     -12.986  -5.271  -4.496  1.00  0.00    -0.381 N 
ATOM      3  H12 UNL     1     -13.589  -5.015  -5.278  1.00  0.00     0.157 HD
ATOM      4  H11 UNL     1     -12.575  -6.203  -4.446  1.00  0.00     0.157 HD
ENDBRANCH   1   2
BRANCH   1   5
HETATM    5  N2  UNL     1     -13.717  -3.379  -3.285  1.00  0.00    -0.280 N 
ATOM      6  H2  UNL     1     -14.064  -3.283  -2.330  1.00  0.00     0.188 HD
BRANCH   5   7
HETATM    7  N3  UNL     1     -14.193  -2.504  -4.286  1.00  0.00    -0.263 N 
HETATM    8  C2  UNL     1     -13.490  -1.298  -4.570  1.00  0.00     0.292 C 
HETATM    9  O1  UNL     1     -12.449  -0.994  -3.941  1.00  0.00    -0.264 OA
ATOM     10  H3  UNL     1     -15.040  -2.736  -4.806  1.00  0.00     0.190 HD
BRANCH   8  11
HETATM   11  C3  UNL     1     -14.000  -0.412  -5.610  1.00  0.00     0.171 A 
HETATM   12  N4  UNL     1     -14.808  -0.779  -6.649  1.00  0.00    -0.232 N 
HETATM   13  O2  UNL     1     -15.065   0.257  -7.372  1.00  0.00    -0.155 OA
ATOM     14  H4  UNL     1     -15.152  -1.723  -6.825  1.00  0.00     0.197 HD
HETATM   15  N5  UNL     1     -14.490   1.313  -6.904  1.00  0.00    -0.224 N 
HETATM   16  C4  UNL     1     -13.803   0.936  -5.784  1.00  0.00     0.155 A 
ATOM     17  H5  UNL     1     -14.539   2.253  -7.296  1.00  0.00     0.198 HD
BRANCH  16  18
HETATM   18  N6  UNL     1     -13.116   1.727  -5.065  1.00  0.00    -0.382 N 
ATOM     19  H62 UNL     1     -12.188   1.513  -4.698  1.00  0.00     0.157 HD
ATOM     20  H61 UNL     1     -13.364   2.664  -4.747  1.00  0.00     0.157 HD
ENDBRANCH  16  18
ENDBRANCH   8  11
ENDBRANCH   5   7
ENDBRANCH   1   5
BRANCH   1  21
HETATM   21  C5  UNL     1     -11.503  -4.450  -2.862  1.00  0.00     0.183 A 
HETATM   22  N7  UNL     1     -10.286  -4.537  -3.444  1.00  0.00    -0.265 N 
HETATM   23  N8  UNL     1      -9.375  -4.572  -2.493  1.00  0.00    -0.218 N 
ATOM     24  H7  UNL     1     -10.104  -4.571  -4.448  1.00  0.00     0.190 HD
HETATM   25  N9  UNL     1      -9.973  -4.509  -1.310  1.00  0.00    -0.158 N 
ATOM     26  H8  UNL     1      -8.369  -4.637  -2.642  1.00  0.00     0.210 HD
HETATM   27  N12 UNL     1     -11.272  -4.434  -1.550  1.00  0.00    -0.257 N 
ATOM     28  H12 UNL     1     -11.994  -4.372  -0.833  1.00  0.00     0.191 HD
BRANCH  25  29
HETATM   29  C6  UNL     1      -9.323  -4.518  -0.035  1.00  0.00     0.208 A 
HETATM   30  N10 UNL     1      -9.686  -5.266   1.038  1.00  0.00    -0.220 N 
HETATM   31  O3  UNL     1      -8.849  -4.981   1.972  1.00  0.00    -0.154 OA
ATOM     32  H10 UNL     1     -10.465  -5.922   1.092  1.00  0.00     0.198 HD
HETATM   33  N11 UNL     1      -7.962  -4.107   1.609  1.00  0.00    -0.227 N 
HETATM   34  C7  UNL     1      -8.226  -3.781   0.327  1.00  0.00     0.172 A 
ATOM     35  H11 UNL     1      -7.206  -3.736   2.185  1.00  0.00     0.198 HD
HETATM   36  S1  UNL     1      -7.380  -2.707  -0.583  1.00  0.00    -0.054 SA
ENDBRANCH  25  29
ENDBRANCH   1  21
TORSDOF 7
ENDMDL
MODEL 4
REMARK VINA RESULT: -7.874956341      2.085      2.841
REMARK  7 active torsions:
REMARK  status: ('A' for Active; 'I' for Inactive)
REMARK    1  A    between atoms: N1_1  and  C1_4 
REMARK    2  A    between atoms: C1_4  and  N2_5 
REMARK    3  A    between atoms: C1_4  and  C5_21 
REMARK    4  A    between atoms: N2_5  and  N3_7 
REMARK       I    between atoms: N3_7  and  C2_9 
REMARK    5  A    between atoms: C2_9  and  C3_11 
REMARK    6  A    between atoms: C4_17  and  N6_18 
REMARK    7  A    between atoms: N9_26  and  C6_27 
ROOT
HETATM    1  C1  UNL     1     -14.045  -2.857  -4.129  1.00  0.00     0.161 C 
ENDROOT
BRANCH   1   2
HETATM    2  N1  UNL     1     -15.321  -2.983  -4.011  1.00  0.00    -0.381 N 
ATOM      3  H12 UNL     1     -15.769  -3.788  -4.447  1.00  0.00     0.157 HD
ATOM      4  H11 UNL     1     -15.877  -2.298  -3.499  1.00  0.00     0.157 HD
ENDBRANCH   1   2
BRANCH   1   5
HETATM    5  N2  UNL     1     -13.181  -3.983  -4.047  1.00  0.00    -0.280 N 
ATOM      6  H2  UNL     1     -13.085  -4.602  -4.853  1.00  0.00     0.188 HD
BRANCH   5   7
HETATM    7  N3  UNL     1     -12.452  -4.260  -2.870  1.00  0.00    -0.263 N 
HETATM    8  C2  UNL     1     -11.064  -3.947  -2.802  1.00  0.00     0.292 C 
HETATM    9  O1  UNL     1     -10.471  -3.426  -3.777  1.00  0.00    -0.264 OA
ATOM     10  H3  UNL     1     -12.919  -4.685  -2.069  1.00  0.00     0.190 HD
BRANCH   8  11
HETATM   11  C3  UNL     1     -10.334  -4.240  -1.575  1.00  0.00     0.171 A 
HETATM   12  N4  UNL     1     -10.657  -5.203  -0.661  1.00  0.00    -0.232 N 
HETATM   13  O2  UNL     1      -9.794  -5.186   0.298  1.00  0.00    -0.155 OA
ATOM     14  H4  UNL     1     -11.455  -5.835  -0.727  1.00  0.00     0.197 HD
HETATM   15  N5  UNL     1      -8.899  -4.276   0.109  1.00  0.00    -0.224 N 
HETATM   16  C4  UNL     1      -9.200  -3.651  -1.069  1.00  0.00     0.155 A 
ATOM     17  H5  UNL     1      -8.112  -4.064   0.722  1.00  0.00     0.198 HD
BRANCH  16  18
HETATM   18  N6  UNL     1      -8.524  -2.697  -1.568  1.00  0.00    -0.382 N 
ATOM     19  H62 UNL     1      -7.674  -2.820  -2.118  1.00  0.00     0.157 HD
ATOM     20  H61 UNL     1      -8.707  -1.696  -1.503  1.00  0.00     0.157 HD
ENDBRANCH  16  18
ENDBRANCH   8  11
ENDBRANCH   5   7
ENDBRANCH   1   5
BRANCH   1  21
HETATM   21  C5  UNL     1     -13.502  -1.526  -4.345  1.00  0.00     0.183 A 
HETATM   22  N7  UNL     1     -12.507  -0.972  -3.617  1.00  0.00    -0.265 N 
HETATM   23  N8  UNL     1     -12.274   0.236  -4.088  1.00  0.00    -0.218 N 
ATOM     24  H7  UNL     1     -12.020  -1.413  -2.837  1.00  0.00     0.190 HD
HETATM   25  N9  UNL     1     -13.094   0.477  -5.104  1.00  0.00    -0.158 N 
ATOM     26  H8  UNL     1     -11.574   0.885  -3.729  1.00  0.00     0.210 HD
HETATM   27  N12 UNL     1     -13.837  -0.607  -5.250  1.00  0.00    -0.257 N 
ATOM     28  H12 UNL     1     -14.564  -0.724  -5.957  1.00  0.00     0.191 HD
BRANCH  25  29
HETATM   29  C6  UNL     1     -13.146   1.680  -5.878  1.00  0.00     0.208 A 
HETATM   30  N10 UNL     1     -12.509   2.842  -5.586  1.00  0.00    -0.220 N 
HETATM   31  O3  UNL     1     -12.817   3.664  -6.527  1.00  0.00    -0.154 OA
ATOM     32  H10 UNL     1     -11.907   3.027  -4.783  1.00  0.00     0.198 HD
HETATM   33  N11 UNL     1     -13.604   3.144  -7.417  1.00  0.00    -0.227 N 
HETATM   34  C7  UNL     1     -13.842   1.871  -7.042  1.00  0.00     0.172 A 
ATOM     35  H11 UNL     1     -13.973   3.611  -8.246  1.00  0.00     0.198 HD
HETATM   36  S1  UNL     1     -14.788   0.796  -7.847  1.00  0.00    -0.054 SA
ENDBRANCH  25  29
ENDBRANCH   1  21
TORSDOF 7
ENDMDL
MODEL 5
REMARK VINA RESULT: -7.827646042      4.845      9.281
REMARK  7 active torsions:
REMARK  status: ('A' for Active; 'I' for Inactive)
REMARK    1  A    between atoms: N1_1  and  C1_4 
REMARK    2  A    between atoms: C1_4  and  N2_5 
REMARK    3  A    between atoms: C1_4  and  C5_21 
REMARK    4  A    between atoms: N2_5  and  N3_7 
REMARK       I    between atoms: N3_7  and  C2_9 
REMARK    5  A    between atoms: C2_9  and  C3_11 
REMARK    6  A    between atoms: C4_17  and  N6_18 
REMARK    7  A    between atoms: N9_26  and  C6_27 
ROOT
HETATM    1  C1  UNL     1     -13.380  -4.816  -2.238  1.00  0.00     0.161 C 
ENDROOT
BRANCH   1   2
HETATM    2  N1  UNL     1     -12.123  -4.604  -2.059  1.00  0.00    -0.381 N 
ATOM      3  H12 UNL     1     -11.582  -4.227  -2.837  1.00  0.00     0.157 HD
ATOM      4  H11 UNL     1     -11.672  -4.807  -1.168  1.00  0.00     0.157 HD
ENDBRANCH   1   2
BRANCH   1   5
HETATM    5  N2  UNL     1     -14.234  -3.806  -2.760  1.00  0.00    -0.280 N 
ATOM      6  H2  UNL     1     -15.243  -3.886  -2.632  1.00  0.00     0.188 HD
BRANCH   5   7
HETATM    7  N3  UNL     1     -13.709  -2.693  -3.455  1.00  0.00    -0.263 N 
HETATM    8  C2  UNL     1     -14.539  -1.957  -4.348  1.00  0.00     0.292 C 
HETATM    9  O1  UNL     1     -15.736  -2.281  -4.534  1.00  0.00    -0.264 OA
ATOM     10  H3  UNL     1     -12.737  -2.418  -3.316  1.00  0.00     0.190 HD
BRANCH   8  11
HETATM   11  C3  UNL     1     -13.975  -0.811  -5.051  1.00  0.00     0.171 A 
HETATM   12  N4  UNL     1     -13.040   0.053  -4.555  1.00  0.00    -0.232 N 
HETATM   13  O2  UNL     1     -12.769   0.944  -5.447  1.00  0.00    -0.155 OA
ATOM     14  H4  UNL     1     -12.622   0.001  -3.625  1.00  0.00     0.197 HD
HETATM   15  N5  UNL     1     -13.453   0.755  -6.524  1.00  0.00    -0.224 N 
HETATM   16  C4  UNL     1     -14.233  -0.349  -6.319  1.00  0.00     0.155 A 
ATOM     17  H5  UNL     1     -13.419   1.323  -7.370  1.00  0.00     0.198 HD
BRANCH  16  18
HETATM   18  N6  UNL     1     -15.039  -0.826  -7.178  1.00  0.00    -0.382 N 
ATOM     19  H62 UNL     1     -15.707  -1.574  -6.988  1.00  0.00     0.157 HD
ATOM     20  H61 UNL     1     -15.149  -0.557  -8.155  1.00  0.00     0.157 HD
ENDBRANCH  16  18
ENDBRANCH   8  11
ENDBRANCH   5   7
ENDBRANCH   1   5
BRANCH   1  21
HETATM   21  C5  UNL     1     -13.914  -6.122  -1.886  1.00  0.00     0.183 A 
HETATM   22  N7  UNL     1     -15.189  -6.356  -1.505  1.00  0.00    -0.265 N 
HETATM   23  N8  UNL     1     -15.319  -7.645  -1.264  1.00  0.00    -0.218 N 
ATOM     24  H7  UNL     1     -15.926  -5.655  -1.418  1.00  0.00     0.190 HD
HETATM   25  N9  UNL     1     -14.158  -8.251  -1.480  1.00  0.00    -0.158 N 
ATOM     26  H8  UNL     1     -16.176  -8.105  -0.959  1.00  0.00     0.210 HD
HETATM   27  N12 UNL     1     -13.309  -7.309  -1.860  1.00  0.00    -0.257 N 
ATOM     28  H12 UNL     1     -12.331  -7.470  -2.100  1.00  0.00     0.191 HD
BRANCH  25  29
HETATM   29  C6  UNL     1     -13.896  -9.649  -1.329  1.00  0.00     0.208 A 
HETATM   30  N10 UNL     1     -13.742 -10.544  -2.338  1.00  0.00    -0.220 N 
HETATM   31  O3  UNL     1     -13.523 -11.681  -1.778  1.00  0.00    -0.154 OA
ATOM     32  H10 UNL     1     -13.791 -10.353  -3.339  1.00  0.00     0.198 HD
HETATM   33  N11 UNL     1     -13.518 -11.615  -0.482  1.00  0.00    -0.227 N 
HETATM   34  C7  UNL     1     -13.753 -10.330  -0.149  1.00  0.00     0.172 A 
ATOM     35  H11 UNL     1     -13.365 -12.390   0.163  1.00  0.00     0.198 HD
HETATM   36  S1  UNL     1     -13.845  -9.738   1.381  1.00  0.00    -0.054 SA
ENDBRANCH  25  29
ENDBRANCH   1  21
TORSDOF 7
ENDMDL
