MODEL 1
REMARK VINA RESULT: -7.051943153      0.000      0.000
REMARK  6 active torsions:
REMARK  status: ('A' for Active; 'I' for Inactive)
REMARK       I    between atoms: C1_2  and  N3_7 
REMARK    1  A    between atoms: N2_3  and  O1_5 
REMARK    2  A    between atoms: N3_7  and  C2_9 
REMARK    3  A    between atoms: C3_10  and  C4_11 
REMARK    4  A    between atoms: N4_17  and  N5_18 
REMARK    5  A    between atoms: N6_20  and  C6_22 
REMARK    6  A    between atoms: N7_24  and  N8_25 
ROOT
HETATM    1  C2  UNL     1     -13.872  -8.837  -0.870  1.00  0.00     0.178 A 
HETATM    2  C3  UNL     1     -13.325 -10.047  -1.184  1.00  0.00     0.203 A 
HETATM    3  O4  UNL     1     -12.264 -10.183  -0.346  1.00  0.00    -0.249 OA
HETATM    4  C5  UNL     1     -12.153  -9.158   0.421  1.00  0.00     0.394 A 
HETATM    5  O5  UNL     1     -11.281  -8.945   1.322  1.00  0.00    -0.236 OA
HETATM    6  N4  UNL     1     -13.114  -8.275   0.160  1.00  0.00    -0.165 N 
ENDROOT
BRANCH   6   7
HETATM    7  N5  UNL     1     -13.374  -7.054   0.725  1.00  0.00    -0.229 N 
HETATM    8  N6  UNL     1     -13.168  -5.909   0.333  1.00  0.00    -0.279 N 
ATOM      9  H6  UNL     1     -13.471  -5.175   0.972  1.00  0.00     0.189 HD
ATOM     10  H5  UNL     1     -13.820  -7.105   1.641  1.00  0.00     0.209 HD
BRANCH   8  11
HETATM   11  C6  UNL     1     -12.580  -5.451  -0.859  1.00  0.00     0.135 A 
HETATM   12  C7  UNL     1     -11.219  -5.254  -0.911  1.00  0.00     0.157 A 
HETATM   13  N7  UNL     1     -10.584  -4.825  -2.000  1.00  0.00    -0.221 N 
HETATM   14  C8  UNL     1     -11.319  -4.575  -3.099  1.00  0.00     0.347 A 
HETATM   15  O6  UNL     1     -10.710  -4.166  -4.139  1.00  0.00    -0.245 OA
HETATM   16  N9  UNL     1     -12.650  -4.756  -3.087  1.00  0.00    -0.272 N 
HETATM   17  C9  UNL     1     -13.310  -5.190  -1.990  1.00  0.00     0.279 A 
ATOM     18  H9  UNL     1     -13.182  -4.560  -3.936  1.00  0.00     0.174 HD
HETATM   19  O7  UNL     1     -14.551  -5.352  -2.002  1.00  0.00    -0.265 OA
BRANCH  13  20
HETATM   20  N8  UNL     1      -9.210  -4.627  -2.047  1.00  0.00    -0.335 N 
ATOM     21  H82 UNL     1      -8.733  -4.256  -1.225  1.00  0.00     0.177 HD
ATOM     22  H81 UNL     1      -8.645  -4.836  -2.871  1.00  0.00     0.177 HD
ENDBRANCH  13  20
ENDBRANCH   8  11
ENDBRANCH   6   7
BRANCH   1  23
HETATM   23  N3  UNL     1     -14.976  -8.154  -1.411  1.00  0.00    -0.311 N 
HETATM   24  C1  UNL     1     -16.340  -8.142  -1.166  1.00  0.00     0.213 C 
HETATM   25  N1  UNL     1     -17.285  -9.025  -1.784  1.00  0.00    -0.061 NA
HETATM   26  N2  UNL     1     -16.839  -7.233  -0.371  1.00  0.00    -0.241 N 
ATOM     27  H2  UNL     1     -17.848  -7.188  -0.225  1.00  0.00     0.197 HD
ATOM     28  H3  UNL     1     -14.709  -7.515  -2.160  1.00  0.00     0.170 HD
BRANCH  26  29
HETATM   29  O1  UNL     1     -16.027  -6.344   0.266  1.00  0.00    -0.287 OA
ATOM     30  H1  UNL     1     -15.993  -6.312   1.215  1.00  0.00     0.244 HD
ENDBRANCH  26  29
ENDBRANCH   1  23
BRANCH   2  31
HETATM   31  C4  UNL     1     -13.656 -11.077  -2.145  1.00  0.00     0.238 C 
HETATM   32  O2  UNL     1     -13.879 -12.274  -1.671  1.00  0.00    -0.642 OA
HETATM   33  O3  UNL     1     -13.768 -10.960  -3.464  1.00  0.00    -0.642 OA
ENDBRANCH   2  31
TORSDOF 6
ENDMDL
MODEL 2
REMARK VINA RESULT: -7.018074193      2.865      6.183
REMARK  6 active torsions:
REMARK  status: ('A' for Active; 'I' for Inactive)
REMARK       I    between atoms: C1_2  and  N3_7 
REMARK    1  A    between atoms: N2_3  and  O1_5 
REMARK    2  A    between atoms: N3_7  and  C2_9 
REMARK    3  A    between atoms: C3_10  and  C4_11 
REMARK    4  A    between atoms: N4_17  and  N5_18 
REMARK    5  A    between atoms: N6_20  and  C6_22 
REMARK    6  A    between atoms: N7_24  and  N8_25 
ROOT
HETATM    1  C2  UNL     1     -13.749  -8.713  -0.667  1.00  0.00     0.178 A 
HETATM    2  C3  UNL     1     -12.733  -8.642   0.241  1.00  0.00     0.203 A 
HETATM    3  O4  UNL     1     -12.824  -7.396   0.776  1.00  0.00    -0.249 OA
HETATM    4  C5  UNL     1     -13.803  -6.745   0.256  1.00  0.00     0.394 A 
HETATM    5  O5  UNL     1     -14.180  -5.559   0.515  1.00  0.00    -0.236 OA
HETATM    6  N4  UNL     1     -14.429  -7.493  -0.650  1.00  0.00    -0.165 N 
ENDROOT
BRANCH   6   7
HETATM    7  N5  UNL     1     -15.510  -7.206  -1.443  1.00  0.00    -0.229 N 
HETATM    8  N6  UNL     1     -16.654  -7.649  -1.460  1.00  0.00    -0.279 N 
ATOM      9  H6  UNL     1     -17.261  -7.244  -2.173  1.00  0.00     0.189 HD
ATOM     10  H5  UNL     1     -15.330  -6.493  -2.150  1.00  0.00     0.209 HD
BRANCH   8  11
HETATM   11  C6  UNL     1     -17.260  -8.626  -0.652  1.00  0.00     0.135 A 
HETATM   12  C7  UNL     1     -17.566  -8.330   0.656  1.00  0.00     0.157 A 
HETATM   13  N7  UNL     1     -18.142  -9.197   1.487  1.00  0.00    -0.221 N 
HETATM   14  C8  UNL     1     -18.436 -10.422   1.013  1.00  0.00     0.347 A 
HETATM   15  O6  UNL     1     -18.987 -11.248   1.808  1.00  0.00    -0.245 OA
HETATM   16  N9  UNL     1     -18.153 -10.748  -0.260  1.00  0.00    -0.272 N 
HETATM   17  C9  UNL     1     -17.568  -9.881  -1.115  1.00  0.00     0.279 A 
ATOM     18  H9  UNL     1     -18.389 -11.684  -0.592  1.00  0.00     0.174 HD
HETATM   19  O7  UNL     1     -17.314 -10.207  -2.296  1.00  0.00    -0.265 OA
BRANCH  13  20
HETATM   20  N8  UNL     1     -18.448  -8.892   2.807  1.00  0.00    -0.335 N 
ATOM     21  H82 UNL     1     -18.209  -9.562   3.539  1.00  0.00     0.177 HD
ATOM     22  H81 UNL     1     -18.905  -8.025   3.087  1.00  0.00     0.177 HD
ENDBRANCH  13  20
ENDBRANCH   8  11
ENDBRANCH   6   7
BRANCH   1  23
HETATM   23  N3  UNL     1     -14.142  -9.747  -1.535  1.00  0.00    -0.311 N 
HETATM   24  C1  UNL     1     -13.537 -10.886  -2.044  1.00  0.00     0.213 C 
HETATM   25  N1  UNL     1     -12.752 -10.924  -3.244  1.00  0.00    -0.061 NA
HETATM   26  N2  UNL     1     -13.729 -12.033  -1.446  1.00  0.00    -0.241 N 
ATOM     27  H2  UNL     1     -13.326 -12.882  -1.843  1.00  0.00     0.197 HD
ATOM     28  H3  UNL     1     -15.098  -9.632  -1.870  1.00  0.00     0.170 HD
BRANCH  26  29
HETATM   29  O1  UNL     1     -14.459 -12.106  -0.300  1.00  0.00    -0.287 OA
ATOM     30  H1  UNL     1     -14.074 -12.442   0.501  1.00  0.00     0.244 HD
ENDBRANCH  26  29
ENDBRANCH   1  23
BRANCH   2  31
HETATM   31  C4  UNL     1     -11.706  -9.567   0.669  1.00  0.00     0.238 C 
HETATM   32  O2  UNL     1     -10.512  -9.072   0.862  1.00  0.00    -0.642 OA
HETATM   33  O3  UNL     1     -11.823 -10.871   0.897  1.00  0.00    -0.642 OA
ENDBRANCH   2  31
TORSDOF 6
ENDMDL
MODEL 3
REMARK VINA RESULT: -6.864946325      2.397      3.789
REMARK  6 active torsions:
REMARK  status: ('A' for Active; 'I' for Inactive)
REMARK       I    between atoms: C1_2  and  N3_7 
REMARK    1  A    between atoms: N2_3  and  O1_5 
REMARK    2  A    between atoms: N3_7  and  C2_9 
REMARK    3  A    between atoms: C3_10  and  C4_11 
REMARK    4  A    between atoms: N4_17  and  N5_18 
REMARK    5  A    between atoms: N6_20  and  C6_22 
REMARK    6  A    between atoms: N7_24  and  N8_25 
ROOT
HETATM    1  C2  UNL     1     -15.605  -8.936  -0.392  1.00  0.00     0.178 A 
HETATM    2  C3  UNL     1     -16.967  -9.033  -0.392  1.00  0.00     0.203 A 
HETATM    3  O4  UNL     1     -17.389  -8.055   0.452  1.00  0.00    -0.249 OA
HETATM    4  C5  UNL     1     -16.392  -7.405   0.936  1.00  0.00     0.394 A 
HETATM    5  O5  UNL     1     -16.413  -6.431   1.753  1.00  0.00    -0.236 OA
HETATM    6  N4  UNL     1     -15.247  -7.891   0.462  1.00  0.00    -0.165 N 
ENDROOT
BRANCH   6   7
HETATM    7  N5  UNL     1     -13.953  -7.511   0.708  1.00  0.00    -0.229 N 
HETATM    8  N6  UNL     1     -13.203  -6.732   0.128  1.00  0.00    -0.279 N 
ATOM      9  H6  UNL     1     -12.275  -6.641   0.541  1.00  0.00     0.189 HD
ATOM     10  H5  UNL     1     -13.536  -7.960   1.524  1.00  0.00     0.209 HD
BRANCH   8  11
HETATM   11  C6  UNL     1     -13.422  -5.944  -1.015  1.00  0.00     0.135 A 
HETATM   12  C7  UNL     1     -12.857  -6.316  -2.213  1.00  0.00     0.157 A 
HETATM   13  N7  UNL     1     -13.017  -5.629  -3.342  1.00  0.00    -0.221 N 
HETATM   14  C8  UNL     1     -13.772  -4.515  -3.299  1.00  0.00     0.347 A 
HETATM   15  O6  UNL     1     -13.924  -3.860  -4.378  1.00  0.00    -0.245 OA
HETATM   16  N9  UNL     1     -14.341  -4.120  -2.147  1.00  0.00    -0.272 N 
HETATM   17  C9  UNL     1     -14.187  -4.806  -0.993  1.00  0.00     0.279 A 
ATOM     18  H9  UNL     1     -14.909  -3.273  -2.144  1.00  0.00     0.174 HD
HETATM   19  O7  UNL     1     -14.728  -4.420   0.067  1.00  0.00    -0.265 OA
BRANCH  13  20
HETATM   20  N8  UNL     1     -12.443  -6.009  -4.549  1.00  0.00    -0.335 N 
ATOM     21  H82 UNL     1     -11.437  -6.166  -4.592  1.00  0.00     0.177 HD
ATOM     22  H81 UNL     1     -12.983  -6.141  -5.404  1.00  0.00     0.177 HD
ENDBRANCH  13  20
ENDBRANCH   8  11
ENDBRANCH   6   7
BRANCH   1  23
HETATM   23  N3  UNL     1     -14.626  -9.692  -1.061  1.00  0.00    -0.311 N 
HETATM   24  C1  UNL     1     -13.594 -10.530  -0.669  1.00  0.00     0.213 C 
HETATM   25  N1  UNL     1     -12.262 -10.095  -0.366  1.00  0.00    -0.061 NA
HETATM   26  N2  UNL     1     -13.801 -11.820  -0.625  1.00  0.00    -0.241 N 
ATOM     27  H2  UNL     1     -13.032 -12.447  -0.385  1.00  0.00     0.197 HD
ATOM     28  H3  UNL     1     -14.690  -9.601  -2.075  1.00  0.00     0.170 HD
BRANCH  26  29
HETATM   29  O1  UNL     1     -15.030 -12.337  -0.896  1.00  0.00    -0.287 OA
ATOM     30  H1  UNL     1     -15.125 -13.089  -1.470  1.00  0.00     0.244 HD
ENDBRANCH  26  29
ENDBRANCH   1  23
BRANCH   2  31
HETATM   31  C4  UNL     1     -17.909  -9.901  -1.063  1.00  0.00     0.238 C 
HETATM   32  O2  UNL     1     -17.536 -10.396  -2.214  1.00  0.00    -0.642 OA
HETATM   33  O3  UNL     1     -19.120 -10.266  -0.655  1.00  0.00    -0.642 OA
ENDBRANCH   2  31
TORSDOF 6
ENDMDL
MODEL 4
REMARK VINA RESULT: -6.839219287      2.849      6.237
REMARK  6 active torsions:
REMARK  status: ('A' for Active; 'I' for Inactive)
REMARK       I    between atoms: C1_2  and  N3_7 
REMARK    1  A    between atoms: N2_3  and  O1_5 
REMARK    2  A    between atoms: N3_7  and  C2_9 
REMARK    3  A    between atoms: C3_10  and  C4_11 
REMARK    4  A    between atoms: N4_17  and  N5_18 
REMARK    5  A    between atoms: N6_20  and  C6_22 
REMARK    6  A    between atoms: N7_24  and  N8_25 
ROOT
HETATM    1  C2  UNL     1     -13.752  -8.720  -0.684  1.00  0.00     0.178 A 
HETATM    2  C3  UNL     1     -12.742  -8.644   0.230  1.00  0.00     0.203 A 
HETATM    3  O4  UNL     1     -12.834  -7.393   0.754  1.00  0.00    -0.249 OA
HETATM    4  C5  UNL     1     -13.807  -6.745   0.221  1.00  0.00     0.394 A 
HETATM    5  O5  UNL     1     -14.184  -5.555   0.467  1.00  0.00    -0.236 OA
HETATM    6  N4  UNL     1     -14.429  -7.499  -0.683  1.00  0.00    -0.165 N 
ENDROOT
BRANCH   6   7
HETATM    7  N5  UNL     1     -15.503  -7.216  -1.486  1.00  0.00    -0.229 N 
HETATM    8  N6  UNL     1     -16.659  -7.627  -1.483  1.00  0.00    -0.279 N 
ATOM      9  H6  UNL     1     -17.256  -7.236  -2.211  1.00  0.00     0.189 HD
ATOM     10  H5  UNL     1     -15.305  -6.539  -2.223  1.00  0.00     0.209 HD
BRANCH   8  11
HETATM   11  C6  UNL     1     -17.290  -8.551  -0.633  1.00  0.00     0.135 A 
HETATM   12  C7  UNL     1     -17.691  -9.768  -1.134  1.00  0.00     0.157 A 
HETATM   13  N7  UNL     1     -18.293 -10.700  -0.397  1.00  0.00    -0.221 N 
HETATM   14  C8  UNL     1     -18.515 -10.428   0.902  1.00  0.00     0.347 A 
HETATM   15  O6  UNL     1     -19.089 -11.319   1.605  1.00  0.00    -0.245 OA
HETATM   16  N9  UNL     1     -18.137  -9.250   1.428  1.00  0.00    -0.272 N 
HETATM   17  C9  UNL     1     -17.526  -8.294   0.693  1.00  0.00     0.279 A 
ATOM     18  H9  UNL     1     -18.317  -9.072   2.416  1.00  0.00     0.174 HD
HETATM   19  O7  UNL     1     -17.183  -7.205   1.205  1.00  0.00    -0.265 OA
BRANCH  13  20
HETATM   20  N8  UNL     1     -18.696 -11.928  -0.908  1.00  0.00    -0.335 N 
ATOM     21  H82 UNL     1     -19.439 -11.955  -1.605  1.00  0.00     0.177 HD
ATOM     22  H81 UNL     1     -18.282 -12.814  -0.618  1.00  0.00     0.177 HD
ENDBRANCH  13  20
ENDBRANCH   8  11
ENDBRANCH   6   7
BRANCH   1  23
HETATM   23  N3  UNL     1     -14.141  -9.761  -1.546  1.00  0.00    -0.311 N 
HETATM   24  C1  UNL     1     -13.530 -10.897  -2.054  1.00  0.00     0.213 C 
HETATM   25  N1  UNL     1     -12.752 -10.933  -3.258  1.00  0.00    -0.061 NA
HETATM   26  N2  UNL     1     -13.709 -12.043  -1.451  1.00  0.00    -0.241 N 
ATOM     27  H2  UNL     1     -13.303 -12.890  -1.846  1.00  0.00     0.197 HD
ATOM     28  H3  UNL     1     -15.101  -9.655  -1.876  1.00  0.00     0.170 HD
BRANCH  26  29
HETATM   29  O1  UNL     1     -14.433 -12.117  -0.300  1.00  0.00    -0.287 OA
ATOM     30  H1  UNL     1     -15.344 -12.388  -0.317  1.00  0.00     0.244 HD
ENDBRANCH  26  29
ENDBRANCH   1  23
BRANCH   2  31
HETATM   31  C4  UNL     1     -11.721  -9.568   0.674  1.00  0.00     0.238 C 
HETATM   32  O2  UNL     1     -10.525  -9.076   0.861  1.00  0.00    -0.642 OA
HETATM   33  O3  UNL     1     -11.846 -10.867   0.922  1.00  0.00    -0.642 OA
ENDBRANCH   2  31
TORSDOF 6
ENDMDL
MODEL 5
REMARK VINA RESULT: -6.829847107      2.200      3.116
REMARK  6 active torsions:
REMARK  status: ('A' for Active; 'I' for Inactive)
REMARK       I    between atoms: C1_2  and  N3_7 
REMARK    1  A    between atoms: N2_3  and  O1_5 
REMARK    2  A    between atoms: N3_7  and  C2_9 
REMARK    3  A    between atoms: C3_10  and  C4_11 
REMARK    4  A    between atoms: N4_17  and  N5_18 
REMARK    5  A    between atoms: N6_20  and  C6_22 
REMARK    6  A    between atoms: N7_24  and  N8_25 
ROOT
HETATM    1  C2  UNL     1     -15.434  -9.033  -0.337  1.00  0.00     0.178 A 
HETATM    2  C3  UNL     1     -16.070  -9.935  -1.140  1.00  0.00     0.203 A 
HETATM    3  O4  UNL     1     -15.074 -10.599  -1.782  1.00  0.00    -0.249 OA
HETATM    4  C5  UNL     1     -13.922 -10.158  -1.420  1.00  0.00     0.394 A 
HETATM    5  O5  UNL     1     -12.776 -10.545  -1.814  1.00  0.00    -0.236 OA
HETATM    6  N4  UNL     1     -14.058  -9.184  -0.524  1.00  0.00    -0.165 N 
ENDROOT
BRANCH   6   7
HETATM    7  N5  UNL     1     -13.109  -8.434   0.121  1.00  0.00    -0.229 N 
HETATM    8  N6  UNL     1     -12.774  -7.259   0.004  1.00  0.00    -0.279 N 
ATOM      9  H6  UNL     1     -12.024  -6.962   0.627  1.00  0.00     0.189 HD
ATOM     10  H5  UNL     1     -12.585  -8.947   0.830  1.00  0.00     0.209 HD
BRANCH   8  11
HETATM   11  C6  UNL     1     -13.261  -6.259  -0.855  1.00  0.00     0.135 A 
HETATM   12  C7  UNL     1     -12.840  -6.226  -2.165  1.00  0.00     0.157 A 
HETATM   13  N7  UNL     1     -13.254  -5.315  -3.044  1.00  0.00    -0.221 N 
HETATM   14  C8  UNL     1     -14.129  -4.385  -2.620  1.00  0.00     0.347 A 
HETATM   15  O6  UNL     1     -14.524  -3.515  -3.460  1.00  0.00    -0.245 OA
HETATM   16  N9  UNL     1     -14.564  -4.384  -1.348  1.00  0.00    -0.272 N 
HETATM   17  C9  UNL     1     -14.152  -5.301  -0.444  1.00  0.00     0.279 A 
ATOM     18  H9  UNL     1     -15.228  -3.667  -1.055  1.00  0.00     0.174 HD
HETATM   19  O7  UNL     1     -14.572  -5.282   0.735  1.00  0.00    -0.265 OA
BRANCH  13  20
HETATM   20  N8  UNL     1     -12.825  -5.287  -4.365  1.00  0.00    -0.335 N 
ATOM     21  H82 UNL     1     -11.995  -5.817  -4.628  1.00  0.00     0.177 HD
ATOM     22  H81 UNL     1     -13.303  -4.757  -5.093  1.00  0.00     0.177 HD
ENDBRANCH  13  20
ENDBRANCH   8  11
ENDBRANCH   6   7
BRANCH   1  23
HETATM   23  N3  UNL     1     -15.941  -8.063   0.545  1.00  0.00    -0.311 N 
HETATM   24  C1  UNL     1     -16.391  -8.066   1.857  1.00  0.00     0.213 C 
HETATM   25  N1  UNL     1     -17.742  -8.336   2.253  1.00  0.00    -0.061 NA
HETATM   26  N2  UNL     1     -15.564  -7.743   2.816  1.00  0.00    -0.241 N 
ATOM     27  H2  UNL     1     -15.901  -7.696   3.778  1.00  0.00     0.197 HD
ATOM     28  H3  UNL     1     -15.989  -7.137   0.120  1.00  0.00     0.170 HD
BRANCH  26  29
HETATM   29  O1  UNL     1     -14.259  -7.467   2.547  1.00  0.00    -0.287 OA
ATOM     30  H1  UNL     1     -13.964  -6.569   2.442  1.00  0.00     0.244 HD
ENDBRANCH  26  29
ENDBRANCH   1  23
BRANCH   2  31
HETATM   31  C4  UNL     1     -17.460 -10.255  -1.381  1.00  0.00     0.238 C 
HETATM   32  O2  UNL     1     -18.285  -9.247  -1.490  1.00  0.00    -0.642 OA
HETATM   33  O3  UNL     1     -18.012 -11.456  -1.511  1.00  0.00    -0.642 OA
ENDBRANCH   2  31
TORSDOF 6
ENDMDL
