MODEL 1
REMARK VINA RESULT: -8.015250572      0.000      0.000
REMARK  7 active torsions:
REMARK  status: ('A' for Active; 'I' for Inactive)
REMARK    1  A    between atoms: C2_2  and  N1_3 
REMARK    2  A    between atoms: C3_4  and  O1_5 
REMARK    3  A    between atoms: C4_7  and  C5_8 
REMARK    4  A    between atoms: N2_9  and  N3_11 
REMARK    5  A    between atoms: N4_15  and  N5_16 
REMARK    6  A    between atoms: C8_21  and  C9_22 
REMARK       I    between atoms: C9_22  and  N7_24 
REMARK    7  A    between atoms: N7_24  and  N8_26 
ROOT
HETATM    1  N3  UNL     1     -14.317  -5.016  -2.305  1.00  0.00    -0.278 N 
ATOM      2  H3  UNL     1     -15.151  -5.511  -2.620  1.00  0.00     0.189 HD
HETATM    3  C6  UNL     1     -13.451  -5.605  -1.550  1.00  0.00     0.206 A 
HETATM    4  O2  UNL     1     -12.335  -5.061  -1.084  1.00  0.00    -0.194 OA
HETATM    5  N4  UNL     1     -11.688  -5.912  -0.360  1.00  0.00    -0.145 N 
HETATM    6  C7  UNL     1     -12.350  -7.078  -0.309  1.00  0.00     0.182 A 
HETATM    7  N6  UNL     1     -11.986  -8.272   0.377  1.00  0.00    -0.077 NA
HETATM    8  C8  UNL     1     -13.501  -6.899  -1.076  1.00  0.00     0.133 A 
ENDROOT
BRANCH   1   9
HETATM    9  N2  UNL     1     -14.094  -3.706  -2.680  1.00  0.00    -0.309 N 
HETATM   10  C5  UNL     1     -13.851  -3.430  -3.908  1.00  0.00     0.128 C 
ATOM     11  H2  UNL     1     -14.122  -2.962  -1.983  1.00  0.00     0.186 HD
BRANCH  10  12
HETATM   12  C4  UNL     1     -13.610  -2.032  -4.320  1.00  0.00     0.100 A 
HETATM   13  C3  UNL     1     -14.471  -1.376  -5.174  1.00  0.00     0.163 A 
HETATM   14  N1  UNL     1     -14.276  -0.104  -5.565  1.00  0.00    -0.279 N 
HETATM   15  C11 UNL     1     -13.192   0.544  -5.099  1.00  0.00     0.331 A 
HETATM   16  N9  UNL     1     -12.311  -0.050  -4.257  1.00  0.00    -0.274 N 
HETATM   17  O5  UNL     1     -13.016   1.739  -5.472  1.00  0.00    -0.246 OA
HETATM   18  C10 UNL     1     -12.516  -1.321  -3.873  1.00  0.00     0.265 A 
ATOM     19  H9  UNL     1     -11.498   0.465  -3.919  1.00  0.00     0.173 HD
HETATM   20  O4  UNL     1     -11.712  -1.913  -3.085  1.00  0.00    -0.267 OA
BRANCH  13  21
HETATM   21  O1  UNL     1     -15.571  -2.088  -5.626  1.00  0.00    -0.345 OA
ATOM     22  H1  UNL     1     -15.540  -3.035  -5.685  1.00  0.00     0.219 HD
ENDBRANCH  13  21
BRANCH  14  23
HETATM   23  C2  UNL     1     -15.171   0.573  -6.451  1.00  0.00     0.131 C 
HETATM   24  C1  UNL     1     -14.889   0.350  -7.899  1.00  0.00     0.027 C 
ENDBRANCH  14  23
ENDBRANCH  10  12
ENDBRANCH   1   9
BRANCH   8  25
HETATM   25  C9  UNL     1     -14.499  -7.932  -1.280  1.00  0.00     0.277 C 
HETATM   26  O3  UNL     1     -15.714  -7.574  -1.463  1.00  0.00    -0.266 OA
HETATM   27  N7  UNL     1     -14.236  -9.292  -1.292  1.00  0.00    -0.272 N 
ATOM     28  H7  UNL     1     -13.285  -9.632  -1.151  1.00  0.00     0.189 HD
BRANCH  27  29
HETATM   29  N8  UNL     1     -15.295 -10.207  -1.501  1.00  0.00    -0.342 N 
ATOM     30  H82 UNL     1     -16.217  -9.853  -1.758  1.00  0.00     0.176 HD
ATOM     31  H81 UNL     1     -15.125 -11.207  -1.392  1.00  0.00     0.176 HD
ENDBRANCH  27  29
ENDBRANCH   8  25
BRANCH   5  32
HETATM   32  N5  UNL     1     -10.470  -5.654   0.278  1.00  0.00    -0.317 N 
ATOM     33  H52 UNL     1     -10.205  -4.759   0.690  1.00  0.00     0.179 HD
ATOM     34  H51 UNL     1      -9.721  -6.335   0.399  1.00  0.00     0.179 HD
ENDBRANCH   5  32
TORSDOF 7
ENDMDL
MODEL 2
REMARK VINA RESULT: -7.785913203      1.946      2.634
REMARK  7 active torsions:
REMARK  status: ('A' for Active; 'I' for Inactive)
REMARK    1  A    between atoms: C2_2  and  N1_3 
REMARK    2  A    between atoms: C3_4  and  O1_5 
REMARK    3  A    between atoms: C4_7  and  C5_8 
REMARK    4  A    between atoms: N2_9  and  N3_11 
REMARK    5  A    between atoms: N4_15  and  N5_16 
REMARK    6  A    between atoms: C8_21  and  C9_22 
REMARK       I    between atoms: C9_22  and  N7_24 
REMARK    7  A    between atoms: N7_24  and  N8_26 
ROOT
HETATM    1  N3  UNL     1     -13.105  -6.670  -2.187  1.00  0.00    -0.278 N 
ATOM      2  H3  UNL     1     -12.427  -7.283  -2.641  1.00  0.00     0.189 HD
HETATM    3  C6  UNL     1     -14.018  -7.159  -1.417  1.00  0.00     0.206 A 
HETATM    4  O2  UNL     1     -14.945  -6.460  -0.778  1.00  0.00    -0.194 OA
HETATM    5  N4  UNL     1     -15.705  -7.244  -0.090  1.00  0.00    -0.145 N 
HETATM    6  C7  UNL     1     -15.315  -8.519  -0.239  1.00  0.00     0.182 A 
HETATM    7  N6  UNL     1     -15.880  -9.691   0.343  1.00  0.00    -0.077 NA
HETATM    8  C8  UNL     1     -14.219  -8.486  -1.100  1.00  0.00     0.133 A 
ENDROOT
BRANCH   1   9
HETATM    9  N2  UNL     1     -13.061  -5.304  -2.387  1.00  0.00    -0.309 N 
HETATM   10  C5  UNL     1     -13.113  -4.834  -3.578  1.00  0.00     0.128 C 
ATOM     11  H2  UNL     1     -12.986  -4.672  -1.589  1.00  0.00     0.186 HD
BRANCH  10  12
HETATM   12  C4  UNL     1     -13.065  -3.375  -3.803  1.00  0.00     0.100 A 
HETATM   13  C3  UNL     1     -14.111  -2.706  -4.402  1.00  0.00     0.163 A 
HETATM   14  N1  UNL     1     -14.093  -1.378  -4.618  1.00  0.00    -0.279 N 
HETATM   15  C11 UNL     1     -13.005  -0.687  -4.231  1.00  0.00     0.331 A 
HETATM   16  N9  UNL     1     -11.948  -1.291  -3.638  1.00  0.00    -0.274 N 
HETATM   17  O5  UNL     1     -12.998   0.560  -4.439  1.00  0.00    -0.246 OA
HETATM   18  C10 UNL     1     -11.976  -2.618  -3.426  1.00  0.00     0.265 A 
ATOM     19  H9  UNL     1     -11.135  -0.743  -3.355  1.00  0.00     0.173 HD
HETATM   20  O4  UNL     1     -11.002  -3.222  -2.873  1.00  0.00    -0.267 OA
BRANCH  13  21
HETATM   21  O1  UNL     1     -15.207  -3.464  -4.781  1.00  0.00    -0.345 OA
ATOM     22  H1  UNL     1     -15.128  -4.405  -4.887  1.00  0.00     0.219 HD
ENDBRANCH  13  21
BRANCH  14  23
HETATM   23  C2  UNL     1     -15.180  -0.688  -5.240  1.00  0.00     0.131 C 
HETATM   24  C1  UNL     1     -15.043  -0.528  -6.717  1.00  0.00     0.027 C 
ENDBRANCH  14  23
ENDBRANCH  10  12
ENDBRANCH   1   9
BRANCH   8  25
HETATM   25  C9  UNL     1     -13.493  -9.669  -1.522  1.00  0.00     0.277 C 
HETATM   26  O3  UNL     1     -12.653 -10.189  -0.709  1.00  0.00    -0.266 OA
HETATM   27  N7  UNL     1     -13.640 -10.287  -2.753  1.00  0.00    -0.272 N 
ATOM     28  H7  UNL     1     -14.295  -9.913  -3.440  1.00  0.00     0.189 HD
BRANCH  27  29
HETATM   29  N8  UNL     1     -12.875 -11.439  -3.053  1.00  0.00    -0.342 N 
ATOM     30  H82 UNL     1     -13.246 -12.126  -3.710  1.00  0.00     0.176 HD
ATOM     31  H81 UNL     1     -11.965 -11.569  -2.611  1.00  0.00     0.176 HD
ENDBRANCH  27  29
ENDBRANCH   8  25
BRANCH   5  32
HETATM   32  N5  UNL     1     -16.782  -6.823   0.699  1.00  0.00    -0.317 N 
ATOM     33  H52 UNL     1     -17.674  -7.311   0.780  1.00  0.00     0.179 HD
ATOM     34  H51 UNL     1     -16.785  -5.983   1.277  1.00  0.00     0.179 HD
ENDBRANCH   5  32
TORSDOF 7
ENDMDL
MODEL 3
REMARK VINA RESULT: -7.778051731      1.666      1.880
REMARK  7 active torsions:
REMARK  status: ('A' for Active; 'I' for Inactive)
REMARK    1  A    between atoms: C2_2  and  N1_3 
REMARK    2  A    between atoms: C3_4  and  O1_5 
REMARK    3  A    between atoms: C4_7  and  C5_8 
REMARK    4  A    between atoms: N2_9  and  N3_11 
REMARK    5  A    between atoms: N4_15  and  N5_16 
REMARK    6  A    between atoms: C8_21  and  C9_22 
REMARK       I    between atoms: C9_22  and  N7_24 
REMARK    7  A    between atoms: N7_24  and  N8_26 
ROOT
HETATM    1  N3  UNL     1     -14.089  -4.979  -2.417  1.00  0.00    -0.278 N 
ATOM      2  H3  UNL     1     -13.812  -5.720  -3.060  1.00  0.00     0.189 HD
HETATM    3  C6  UNL     1     -14.496  -5.262  -1.226  1.00  0.00     0.206 A 
HETATM    4  O2  UNL     1     -14.878  -4.383  -0.310  1.00  0.00    -0.194 OA
HETATM    5  N4  UNL     1     -15.226  -4.988   0.777  1.00  0.00    -0.145 N 
HETATM    6  C7  UNL     1     -15.090  -6.315   0.635  1.00  0.00     0.182 A 
HETATM    7  N6  UNL     1     -15.363  -7.339   1.587  1.00  0.00    -0.077 NA
HETATM    8  C8  UNL     1     -14.616  -6.515  -0.662  1.00  0.00     0.133 A 
ENDROOT
BRANCH   1   9
HETATM    9  N2  UNL     1     -14.035  -3.655  -2.807  1.00  0.00    -0.309 N 
HETATM   10  C5  UNL     1     -13.397  -3.332  -3.871  1.00  0.00     0.128 C 
ATOM     11  H2  UNL     1     -14.499  -2.938  -2.250  1.00  0.00     0.186 HD
BRANCH  10  12
HETATM   12  C4  UNL     1     -13.332  -1.919  -4.297  1.00  0.00     0.100 A 
HETATM   13  C3  UNL     1     -14.255  -1.389  -5.173  1.00  0.00     0.163 A 
HETATM   14  N1  UNL     1     -14.218  -0.106  -5.576  1.00  0.00    -0.279 N 
HETATM   15  C11 UNL     1     -13.236   0.681  -5.099  1.00  0.00     0.331 A 
HETATM   16  N9  UNL     1     -12.302   0.216  -4.236  1.00  0.00    -0.274 N 
HETATM   17  O5  UNL     1     -13.210   1.885  -5.485  1.00  0.00    -0.246 OA
HETATM   18  C10 UNL     1     -12.348  -1.068  -3.839  1.00  0.00     0.265 A 
ATOM     19  H9  UNL     1     -11.568   0.834  -3.890  1.00  0.00     0.173 HD
HETATM   20  O4  UNL     1     -11.488  -1.543  -3.030  1.00  0.00    -0.267 OA
BRANCH  13  21
HETATM   21  O1  UNL     1     -15.245  -2.242  -5.634  1.00  0.00    -0.345 OA
ATOM     22  H1  UNL     1     -15.183  -3.177  -5.482  1.00  0.00     0.219 HD
ENDBRANCH  13  21
BRANCH  14  23
HETATM   23  C2  UNL     1     -15.177   0.440  -6.486  1.00  0.00     0.131 C 
HETATM   24  C1  UNL     1     -14.823   0.273  -7.925  1.00  0.00     0.027 C 
ENDBRANCH  14  23
ENDBRANCH  10  12
ENDBRANCH   1   9
BRANCH   8  25
HETATM   25  C9  UNL     1     -14.334  -7.824  -1.221  1.00  0.00     0.277 C 
HETATM   26  O3  UNL     1     -13.218  -7.999  -1.823  1.00  0.00    -0.266 OA
HETATM   27  N7  UNL     1     -15.188  -8.912  -1.153  1.00  0.00    -0.272 N 
ATOM     28  H7  UNL     1     -16.090  -8.828  -0.685  1.00  0.00     0.189 HD
BRANCH  27  29
HETATM   29  N8  UNL     1     -14.802 -10.142  -1.737  1.00  0.00    -0.342 N 
ATOM     30  H82 UNL     1     -15.191 -10.408  -2.642  1.00  0.00     0.176 HD
ATOM     31  H81 UNL     1     -14.141 -10.747  -1.248  1.00  0.00     0.176 HD
ENDBRANCH  27  29
ENDBRANCH   8  25
BRANCH   5  32
HETATM   32  N5  UNL     1     -15.679  -4.349   1.936  1.00  0.00    -0.317 N 
ATOM     33  H52 UNL     1     -16.636  -4.033   2.093  1.00  0.00     0.179 HD
ATOM     34  H51 UNL     1     -15.097  -4.132   2.746  1.00  0.00     0.179 HD
ENDBRANCH   5  32
TORSDOF 7
ENDMDL
MODEL 4
REMARK VINA RESULT: -7.713369573      1.375      1.483
REMARK  7 active torsions:
REMARK  status: ('A' for Active; 'I' for Inactive)
REMARK    1  A    between atoms: C2_2  and  N1_3 
REMARK    2  A    between atoms: C3_4  and  O1_5 
REMARK    3  A    between atoms: C4_7  and  C5_8 
REMARK    4  A    between atoms: N2_9  and  N3_11 
REMARK    5  A    between atoms: N4_15  and  N5_16 
REMARK    6  A    between atoms: C8_21  and  C9_22 
REMARK       I    between atoms: C9_22  and  N7_24 
REMARK    7  A    between atoms: N7_24  and  N8_26 
ROOT
HETATM    1  N3  UNL     1     -13.702  -6.340  -1.951  1.00  0.00    -0.278 N 
ATOM      2  H3  UNL     1     -14.232  -6.967  -2.557  1.00  0.00     0.189 HD
HETATM    3  C6  UNL     1     -13.113  -6.791  -0.895  1.00  0.00     0.206 A 
HETATM    4  O2  UNL     1     -12.399  -6.072  -0.041  1.00  0.00    -0.194 OA
HETATM    5  N4  UNL     1     -11.945  -6.820   0.908  1.00  0.00    -0.145 N 
HETATM    6  C7  UNL     1     -12.340  -8.089   0.729  1.00  0.00     0.182 A 
HETATM    7  N6  UNL     1     -12.060  -9.225   1.542  1.00  0.00    -0.077 NA
HETATM    8  C8  UNL     1     -13.102  -8.093  -0.438  1.00  0.00     0.133 A 
ENDROOT
BRANCH   1   9
HETATM    9  N2  UNL     1     -13.600  -4.996  -2.249  1.00  0.00    -0.309 N 
HETATM   10  C5  UNL     1     -13.380  -4.628  -3.458  1.00  0.00     0.128 C 
ATOM     11  H2  UNL     1     -13.698  -4.299  -1.512  1.00  0.00     0.186 HD
BRANCH  10  12
HETATM   12  C4  UNL     1     -13.269  -3.192  -3.788  1.00  0.00     0.100 A 
HETATM   13  C3  UNL     1     -14.266  -2.534  -4.475  1.00  0.00     0.163 A 
HETATM   14  N1  UNL     1     -14.189  -1.227  -4.788  1.00  0.00    -0.279 N 
HETATM   15  C11 UNL     1     -13.090  -0.547  -4.411  1.00  0.00     0.331 A 
HETATM   16  N9  UNL     1     -12.079  -1.142  -3.734  1.00  0.00    -0.274 N 
HETATM   17  O5  UNL     1     -13.027   0.679  -4.710  1.00  0.00    -0.246 OA
HETATM   18  C10 UNL     1     -12.165  -2.448  -3.425  1.00  0.00     0.265 A 
ATOM     19  H9  UNL     1     -11.257  -0.604  -3.460  1.00  0.00     0.173 HD
HETATM   20  O4  UNL     1     -11.236  -3.043  -2.792  1.00  0.00    -0.267 OA
BRANCH  13  21
HETATM   21  O1  UNL     1     -15.375  -3.279  -4.840  1.00  0.00    -0.345 OA
ATOM     22  H1  UNL     1     -15.393  -3.739  -5.671  1.00  0.00     0.219 HD
ENDBRANCH  13  21
BRANCH  14  23
HETATM   23  C2  UNL     1     -15.225  -0.547  -5.501  1.00  0.00     0.131 C 
HETATM   24  C1  UNL     1     -14.989  -0.434  -6.969  1.00  0.00     0.027 C 
ENDBRANCH  14  23
ENDBRANCH  10  12
ENDBRANCH   1   9
BRANCH   8  25
HETATM   25  C9  UNL     1     -13.722  -9.283  -0.989  1.00  0.00     0.277 C 
HETATM   26  O3  UNL     1     -14.873  -9.169  -1.538  1.00  0.00    -0.266 OA
HETATM   27  N7  UNL     1     -13.159 -10.548  -0.968  1.00  0.00    -0.272 N 
ATOM     28  H7  UNL     1     -12.244 -10.695  -0.543  1.00  0.00     0.189 HD
BRANCH  27  29
HETATM   29  N8  UNL     1     -13.861 -11.636  -1.539  1.00  0.00    -0.342 N 
ATOM     30  H82 UNL     1     -14.343 -12.295  -0.926  1.00  0.00     0.176 HD
ATOM     31  H81 UNL     1     -13.877 -11.749  -2.553  1.00  0.00     0.176 HD
ENDBRANCH  27  29
ENDBRANCH   8  25
BRANCH   5  32
HETATM   32  N5  UNL     1     -11.154  -6.369   1.971  1.00  0.00    -0.317 N 
ATOM     33  H52 UNL     1     -11.140  -5.412   2.324  1.00  0.00     0.179 HD
ATOM     34  H51 UNL     1     -10.509  -6.952   2.504  1.00  0.00     0.179 HD
ENDBRANCH   5  32
TORSDOF 7
ENDMDL
MODEL 5
REMARK VINA RESULT: -7.708931845      1.525      3.214
REMARK  7 active torsions:
REMARK  status: ('A' for Active; 'I' for Inactive)
REMARK    1  A    between atoms: C2_2  and  N1_3 
REMARK    2  A    between atoms: C3_4  and  O1_5 
REMARK    3  A    between atoms: C4_7  and  C5_8 
REMARK    4  A    between atoms: N2_9  and  N3_11 
REMARK    5  A    between atoms: N4_15  and  N5_16 
REMARK    6  A    between atoms: C8_21  and  C9_22 
REMARK       I    between atoms: C9_22  and  N7_24 
REMARK    7  A    between atoms: N7_24  and  N8_26 
ROOT
HETATM    1  N3  UNL     1     -13.217  -4.544  -1.803  1.00  0.00    -0.278 N 
ATOM      2  H3  UNL     1     -12.279  -4.385  -1.437  1.00  0.00     0.189 HD
HETATM    3  C6  UNL     1     -13.889  -5.589  -1.456  1.00  0.00     0.206 A 
HETATM    4  O2  UNL     1     -15.112  -5.894  -1.867  1.00  0.00    -0.194 OA
HETATM    5  N4  UNL     1     -15.501  -7.005  -1.335  1.00  0.00    -0.145 N 
HETATM    6  C7  UNL     1     -14.545  -7.498  -0.535  1.00  0.00     0.182 A 
HETATM    7  N6  UNL     1     -14.568  -8.696   0.236  1.00  0.00    -0.077 NA
HETATM    8  C8  UNL     1     -13.487  -6.592  -0.599  1.00  0.00     0.133 A 
ENDROOT
BRANCH   1   9
HETATM    9  N2  UNL     1     -13.791  -3.642  -2.678  1.00  0.00    -0.309 N 
HETATM   10  C5  UNL     1     -13.048  -2.988  -3.493  1.00  0.00     0.128 C 
ATOM     11  H2  UNL     1     -14.801  -3.497  -2.675  1.00  0.00     0.186 HD
BRANCH  10  12
HETATM   12  C4  UNL     1     -13.651  -2.021  -4.433  1.00  0.00     0.100 A 
HETATM   13  C3  UNL     1     -13.251  -0.702  -4.462  1.00  0.00     0.163 A 
HETATM   14  N1  UNL     1     -13.784   0.199  -5.307  1.00  0.00    -0.279 N 
HETATM   15  C11 UNL     1     -14.746  -0.216  -6.153  1.00  0.00     0.331 A 
HETATM   16  N9  UNL     1     -15.179  -1.499  -6.169  1.00  0.00    -0.274 N 
HETATM   17  O5  UNL     1     -15.240   0.638  -6.943  1.00  0.00    -0.246 OA
HETATM   18  C10 UNL     1     -14.640  -2.391  -5.320  1.00  0.00     0.265 A 
ATOM     19  H9  UNL     1     -15.909  -1.786  -6.821  1.00  0.00     0.173 HD
HETATM   20  O4  UNL     1     -15.021  -3.605  -5.304  1.00  0.00    -0.267 OA
BRANCH  13  21
HETATM   21  O1  UNL     1     -12.258  -0.327  -3.571  1.00  0.00    -0.345 OA
ATOM     22  H1  UNL     1     -11.463  -0.840  -3.494  1.00  0.00     0.219 HD
ENDBRANCH  13  21
BRANCH  14  23
HETATM   23  C2  UNL     1     -13.365   1.566  -5.335  1.00  0.00     0.131 C 
HETATM   24  C1  UNL     1     -12.322   1.868  -6.357  1.00  0.00     0.027 C 
ENDBRANCH  14  23
ENDBRANCH  10  12
ENDBRANCH   1   9
BRANCH   8  25
HETATM   25  C9  UNL     1     -12.243  -6.757   0.130  1.00  0.00     0.277 C 
HETATM   26  O3  UNL     1     -11.475  -5.741   0.257  1.00  0.00    -0.266 OA
HETATM   27  N7  UNL     1     -11.817  -7.943   0.706  1.00  0.00    -0.272 N 
ATOM     28  H7  UNL     1     -12.390  -8.783   0.634  1.00  0.00     0.189 HD
BRANCH  27  29
HETATM   29  N8  UNL     1     -10.581  -7.981   1.394  1.00  0.00    -0.342 N 
ATOM     30  H82 UNL     1      -9.712  -7.955   0.860  1.00  0.00     0.176 HD
ATOM     31  H81 UNL     1     -10.573  -8.035   2.413  1.00  0.00     0.176 HD
ENDBRANCH  27  29
ENDBRANCH   8  25
BRANCH   5  32
HETATM   32  N5  UNL     1     -16.744  -7.606  -1.563  1.00  0.00    -0.317 N 
ATOM     33  H52 UNL     1     -17.473  -7.230  -2.170  1.00  0.00     0.179 HD
ATOM     34  H51 UNL     1     -17.050  -8.485  -1.146  1.00  0.00     0.179 HD
ENDBRANCH   5  32
TORSDOF 7
ENDMDL
