MODEL 1
REMARK VINA RESULT: -8.538790482      0.000      0.000
REMARK  8 active torsions:
REMARK  status: ('A' for Active; 'I' for Inactive)
REMARK    1  A    between atoms: O1_2  and  C2_3 
REMARK    2  A    between atoms: C8_10  and  O2_11 
REMARK    3  A    between atoms: C10_15  and  C11_16 
REMARK    4  A    between atoms: C15_22  and  C16_23 
REMARK    5  A    between atoms: C16_23  and  N1_24 
REMARK    6  A    between atoms: N1_24  and  S1_26 
REMARK    7  A    between atoms: S1_26  and  C17_29 
REMARK    8  A    between atoms: C17_29  and  C18_30 
ROOT
HETATM    1  C2  UNL     1       8.140  10.035  23.958  1.00  0.00     0.167 C 
HETATM    2  C3  UNL     1       6.753   9.404  23.835  1.00  0.00     0.080 C 
HETATM    3  C4  UNL     1       6.305   9.649  22.400  1.00  0.00     0.122 C 
HETATM    4  F1  UNL     1       5.003  10.069  22.324  1.00  0.00    -0.242 F 
HETATM    5  C5  UNL     1       6.486   8.434  21.593  1.00  0.00     0.062 C 
HETATM    6  C6  UNL     1       7.725   7.625  21.852  1.00  0.00     0.132 C 
HETATM    7  C7  UNL     1       8.865   8.309  21.213  1.00  0.00     0.067 C 
HETATM    8  C8  UNL     1       9.387   9.531  21.838  1.00  0.00     0.163 C 
HETATM    9  C9  UNL     1       8.523  10.449  22.549  1.00  0.00     0.165 C 
HETATM   10  F2  UNL     1       9.236  11.636  22.741  1.00  0.00    -0.237 F 
HETATM   11  C10 UNL     1       7.192  10.804  22.052  1.00  0.00     0.110 C 
HETATM   12  O3  UNL     1       7.428   6.478  21.094  1.00  0.00    -0.379 OA
HETATM   13  C14 UNL     1       6.097   6.187  21.283  1.00  0.00     0.132 C 
HETATM   14  C15 UNL     1       5.368   6.166  19.992  1.00  0.00     0.033 C 
HETATM   15  C22 UNL     1       3.939   6.384  20.433  1.00  0.00     0.009 C 
HETATM   16  C23 UNL     1       4.122   7.607  21.330  1.00  0.00     0.008 C 
HETATM   17  C24 UNL     1       5.455   7.387  21.974  1.00  0.00     0.025 C 
ENDROOT
BRANCH  14  18
HETATM   18  C16 UNL     1       5.554   5.032  19.080  1.00  0.00     0.139 C 
BRANCH  18  19
HETATM   19  N1  UNL     1       6.196   3.895  19.667  1.00  0.00    -0.319 N 
ATOM     20  H1  UNL     1       6.599   3.863  20.604  1.00  0.00     0.172 HD
BRANCH  19  21
HETATM   21  S1  UNL     1       6.178   2.586  18.536  1.00  0.00     0.227 S 
HETATM   22  O4  UNL     1       4.891   1.795  18.890  1.00  0.00    -0.206 OA
HETATM   23  O5  UNL     1       6.007   2.964  17.124  1.00  0.00    -0.206 OA
BRANCH  21  24
HETATM   24  C17 UNL     1       7.478   1.427  18.823  1.00  0.00     0.176 C 
BRANCH  24  25
HETATM   25  C18 UNL     1       8.742   1.728  18.087  1.00  0.00     0.013 C 
HETATM   26  C19 UNL     1       9.170   3.162  18.358  1.00  0.00     0.020 C 
HETATM   27  C20 UNL     1       8.849   1.415  16.641  1.00  0.00     0.179 C 
HETATM   28  O6  UNL     1       9.639   0.321  16.952  1.00  0.00    -0.389 OA
HETATM   29  C21 UNL     1       9.889   0.783  18.230  1.00  0.00     0.179 C 
ENDBRANCH  24  25
ENDBRANCH  21  24
ENDBRANCH  19  21
ENDBRANCH  18  19
ENDBRANCH  14  18
BRANCH   8  30
HETATM   30  O2  UNL     1      10.436   9.142  22.699  1.00  0.00    -0.392 OA
ATOM     31  H2  UNL     1      11.217   9.601  22.414  1.00  0.00     0.210 HD
ENDBRANCH   8  30
BRANCH  11  32
HETATM   32  C11 UNL     1       6.990  11.487  20.784  1.00  0.00     0.106 C 
HETATM   33  C12 UNL     1       7.345  12.978  20.837  1.00  0.00     0.052 C 
HETATM   34  C13 UNL     1       7.709  10.978  19.577  1.00  0.00     0.052 C 
HETATM   35  F3  UNL     1       5.637  11.555  20.393  1.00  0.00    -0.243 F 
ENDBRANCH  11  32
BRANCH   1  36
HETATM   36  O1  UNL     1       9.033   9.223  24.592  1.00  0.00    -0.387 OA
HETATM   37  C1  UNL     1       8.356   8.410  25.471  1.00  0.00     0.202 C 
ENDBRANCH   1  36
TORSDOF 8
ENDMDL
MODEL 2
REMARK VINA RESULT: -8.469228189      4.026      8.966
REMARK  8 active torsions:
REMARK  status: ('A' for Active; 'I' for Inactive)
REMARK    1  A    between atoms: O1_2  and  C2_3 
REMARK    2  A    between atoms: C8_10  and  O2_11 
REMARK    3  A    between atoms: C10_15  and  C11_16 
REMARK    4  A    between atoms: C15_22  and  C16_23 
REMARK    5  A    between atoms: C16_23  and  N1_24 
REMARK    6  A    between atoms: N1_24  and  S1_26 
REMARK    7  A    between atoms: S1_26  and  C17_29 
REMARK    8  A    between atoms: C17_29  and  C18_30 
ROOT
HETATM    1  C2  UNL     1       5.451   0.847  16.652  1.00  0.00     0.167 C 
HETATM    2  C3  UNL     1       5.141   1.498  18.000  1.00  0.00     0.080 C 
HETATM    3  C4  UNL     1       6.459   2.071  18.503  1.00  0.00     0.122 C 
HETATM    4  F1  UNL     1       6.671   1.804  19.831  1.00  0.00    -0.242 F 
HETATM    5  C5  UNL     1       6.509   3.521  18.271  1.00  0.00     0.062 C 
HETATM    6  C6  UNL     1       5.933   4.022  16.977  1.00  0.00     0.132 C 
HETATM    7  C7  UNL     1       6.901   3.740  15.901  1.00  0.00     0.067 C 
HETATM    8  C8  UNL     1       7.050   2.355  15.438  1.00  0.00     0.163 C 
HETATM    9  C9  UNL     1       6.884   1.232  16.336  1.00  0.00     0.165 C 
HETATM   10  F2  UNL     1       7.392   0.099  15.693  1.00  0.00    -0.237 F 
HETATM   11  C10 UNL     1       7.417   1.246  17.701  1.00  0.00     0.110 C 
HETATM   12  O3  UNL     1       5.950   5.406  17.224  1.00  0.00    -0.379 OA
HETATM   13  C14 UNL     1       5.559   5.602  18.528  1.00  0.00     0.132 C 
HETATM   14  C15 UNL     1       6.598   6.333  19.292  1.00  0.00     0.033 C 
HETATM   15  C22 UNL     1       6.258   5.967  20.718  1.00  0.00     0.009 C 
HETATM   16  C23 UNL     1       6.158   4.449  20.585  1.00  0.00     0.008 C 
HETATM   17  C24 UNL     1       5.573   4.242  19.224  1.00  0.00     0.025 C 
ENDROOT
BRANCH  14  18
HETATM   18  C16 UNL     1       6.780   7.771  19.062  1.00  0.00     0.139 C 
BRANCH  18  19
HETATM   19  N1  UNL     1       6.922   8.550  20.254  1.00  0.00    -0.319 N 
ATOM     20  H1  UNL     1       6.242   8.597  21.013  1.00  0.00     0.172 HD
BRANCH  19  21
HETATM   21  S1  UNL     1       8.429   9.398  20.203  1.00  0.00     0.227 S 
HETATM   22  O4  UNL     1       9.205   8.723  19.040  1.00  0.00    -0.206 OA
HETATM   23  O5  UNL     1       8.351  10.817  19.823  1.00  0.00    -0.206 OA
BRANCH  21  24
HETATM   24  C17 UNL     1       9.432   9.081  21.619  1.00  0.00     0.176 C 
BRANCH  24  25
HETATM   25  C18 UNL     1       8.695   9.130  22.916  1.00  0.00     0.013 C 
HETATM   26  C19 UNL     1       7.923  10.435  23.025  1.00  0.00     0.020 C 
HETATM   27  C20 UNL     1       9.408   8.838  24.185  1.00  0.00     0.179 C 
HETATM   28  O6  UNL     1       8.797   7.597  24.224  1.00  0.00    -0.389 OA
HETATM   29  C21 UNL     1       7.843   7.963  23.294  1.00  0.00     0.179 C 
ENDBRANCH  24  25
ENDBRANCH  21  24
ENDBRANCH  19  21
ENDBRANCH  18  19
ENDBRANCH  14  18
BRANCH   8  30
HETATM   30  O2  UNL     1       6.176   2.187  14.343  1.00  0.00    -0.392 OA
ATOM     31  H2  UNL     1       5.489   1.594  14.622  1.00  0.00     0.210 HD
ENDBRANCH   8  30
BRANCH  11  32
HETATM   32  C11 UNL     1       8.840   1.350  17.982  1.00  0.00     0.106 C 
HETATM   33  C12 UNL     1       9.720   0.802  16.852  1.00  0.00     0.052 C 
HETATM   34  C13 UNL     1       9.411   2.699  18.275  1.00  0.00     0.052 C 
HETATM   35  F3  UNL     1       9.260   0.540  19.056  1.00  0.00    -0.243 F 
ENDBRANCH  11  32
BRANCH   1  36
HETATM   36  O1  UNL     1       4.536   1.163  15.692  1.00  0.00    -0.387 OA
HETATM   37  C1  UNL     1       3.322   1.408  16.292  1.00  0.00     0.202 C 
ENDBRANCH   1  36
TORSDOF 8
ENDMDL
MODEL 3
REMARK VINA RESULT: -8.451025560      1.068      1.275
REMARK  8 active torsions:
REMARK  status: ('A' for Active; 'I' for Inactive)
REMARK    1  A    between atoms: O1_2  and  C2_3 
REMARK    2  A    between atoms: C8_10  and  O2_11 
REMARK    3  A    between atoms: C10_15  and  C11_16 
REMARK    4  A    between atoms: C15_22  and  C16_23 
REMARK    5  A    between atoms: C16_23  and  N1_24 
REMARK    6  A    between atoms: N1_24  and  S1_26 
REMARK    7  A    between atoms: S1_26  and  C17_29 
REMARK    8  A    between atoms: C17_29  and  C18_30 
ROOT
HETATM    1  C2  UNL     1       8.173   9.991  23.986  1.00  0.00     0.167 C 
HETATM    2  C3  UNL     1       6.728   9.494  23.921  1.00  0.00     0.080 C 
HETATM    3  C4  UNL     1       6.235   9.817  22.517  1.00  0.00     0.122 C 
HETATM    4  F1  UNL     1       4.975  10.358  22.518  1.00  0.00    -0.242 F 
HETATM    5  C5  UNL     1       6.261   8.613  21.676  1.00  0.00     0.062 C 
HETATM    6  C6  UNL     1       7.430   7.687  21.851  1.00  0.00     0.132 C 
HETATM    7  C7  UNL     1       8.596   8.280  21.169  1.00  0.00     0.067 C 
HETATM    8  C8  UNL     1       9.260   9.431  21.793  1.00  0.00     0.163 C 
HETATM    9  C9  UNL     1       8.522  10.405  22.568  1.00  0.00     0.165 C 
HETATM   10  F2  UNL     1       9.351  11.517  22.749  1.00  0.00    -0.237 F 
HETATM   11  C10 UNL     1       7.207  10.895  22.149  1.00  0.00     0.110 C 
HETATM   12  O3  UNL     1       6.991   6.593  21.085  1.00  0.00    -0.379 OA
HETATM   13  C14 UNL     1       5.649   6.420  21.336  1.00  0.00     0.132 C 
HETATM   14  C15 UNL     1       4.858   6.501  20.085  1.00  0.00     0.033 C 
HETATM   15  C22 UNL     1       3.480   6.838  20.605  1.00  0.00     0.009 C 
HETATM   16  C23 UNL     1       3.820   8.014  21.517  1.00  0.00     0.008 C 
HETATM   17  C24 UNL     1       5.157   7.656  22.086  1.00  0.00     0.025 C 
ENDROOT
BRANCH  14  18
HETATM   18  C16 UNL     1       4.892   5.379  19.140  1.00  0.00     0.139 C 
BRANCH  18  19
HETATM   19  N1  UNL     1       5.846   4.361  19.458  1.00  0.00    -0.319 N 
ATOM     20  H1  UNL     1       5.769   3.701  20.232  1.00  0.00     0.172 HD
BRANCH  19  21
HETATM   21  S1  UNL     1       7.150   4.429  18.323  1.00  0.00     0.227 S 
HETATM   22  O4  UNL     1       6.683   5.470  17.271  1.00  0.00    -0.206 OA
HETATM   23  O5  UNL     1       8.419   4.964  18.839  1.00  0.00    -0.206 OA
BRANCH  21  24
HETATM   24  C17 UNL     1       7.317   2.937  17.396  1.00  0.00     0.176 C 
BRANCH  24  25
HETATM   25  C18 UNL     1       8.218   1.924  18.019  1.00  0.00     0.013 C 
HETATM   26  C19 UNL     1       7.741   1.603  19.427  1.00  0.00     0.020 C 
HETATM   27  C20 UNL     1       9.688   2.129  18.001  1.00  0.00     0.179 C 
HETATM   28  O6  UNL     1       9.793   1.173  17.005  1.00  0.00    -0.389 OA
HETATM   29  C21 UNL     1       8.526   0.680  17.254  1.00  0.00     0.179 C 
ENDBRANCH  24  25
ENDBRANCH  21  24
ENDBRANCH  19  21
ENDBRANCH  18  19
ENDBRANCH  14  18
BRANCH   8  30
HETATM   30  O2  UNL     1      10.309   8.925  22.589  1.00  0.00    -0.392 OA
ATOM     31  H2  UNL     1      10.412   9.515  23.326  1.00  0.00     0.210 HD
ENDBRANCH   8  30
BRANCH  11  32
HETATM   32  C11 UNL     1       7.006  11.627  20.908  1.00  0.00     0.106 C 
HETATM   33  C12 UNL     1       7.414  13.102  21.005  1.00  0.00     0.052 C 
HETATM   34  C13 UNL     1       7.686  11.135  19.672  1.00  0.00     0.052 C 
HETATM   35  F3  UNL     1       5.650  11.755  20.546  1.00  0.00    -0.243 F 
ENDBRANCH  11  32
BRANCH   1  36
HETATM   36  O1  UNL     1       9.016   9.084  24.554  1.00  0.00    -0.387 OA
HETATM   37  C1  UNL     1       8.318   8.335  25.472  1.00  0.00     0.202 C 
ENDBRANCH   1  36
TORSDOF 8
ENDMDL
MODEL 4
REMARK VINA RESULT: -8.325496933      0.774      1.091
REMARK  8 active torsions:
REMARK  status: ('A' for Active; 'I' for Inactive)
REMARK    1  A    between atoms: O1_2  and  C2_3 
REMARK    2  A    between atoms: C8_10  and  O2_11 
REMARK    3  A    between atoms: C10_15  and  C11_16 
REMARK    4  A    between atoms: C15_22  and  C16_23 
REMARK    5  A    between atoms: C16_23  and  N1_24 
REMARK    6  A    between atoms: N1_24  and  S1_26 
REMARK    7  A    between atoms: S1_26  and  C17_29 
REMARK    8  A    between atoms: C17_29  and  C18_30 
ROOT
HETATM    1  C2  UNL     1       8.224  10.081  23.994  1.00  0.00     0.167 C 
HETATM    2  C3  UNL     1       6.817   9.489  23.924  1.00  0.00     0.080 C 
HETATM    3  C4  UNL     1       6.326   9.740  22.504  1.00  0.00     0.122 C 
HETATM    4  F1  UNL     1       5.033  10.196  22.472  1.00  0.00    -0.242 F 
HETATM    5  C5  UNL     1       6.444   8.517  21.698  1.00  0.00     0.062 C 
HETATM    6  C6  UNL     1       7.669   7.674  21.917  1.00  0.00     0.132 C 
HETATM    7  C7  UNL     1       8.803   8.324  21.235  1.00  0.00     0.067 C 
HETATM    8  C8  UNL     1       9.381   9.533  21.834  1.00  0.00     0.163 C 
HETATM    9  C9  UNL     1       8.569  10.478  22.571  1.00  0.00     0.165 C 
HETATM   10  F2  UNL     1       9.320  11.646  22.731  1.00  0.00    -0.237 F 
HETATM   11  C10 UNL     1       7.231  10.868  22.118  1.00  0.00     0.110 C 
HETATM   12  O3  UNL     1       7.314   6.533  21.177  1.00  0.00    -0.379 OA
HETATM   13  C14 UNL     1       5.983   6.279  21.414  1.00  0.00     0.132 C 
HETATM   14  C15 UNL     1       5.208   6.273  20.150  1.00  0.00     0.033 C 
HETATM   15  C22 UNL     1       3.802   6.533  20.640  1.00  0.00     0.009 C 
HETATM   16  C23 UNL     1       4.051   7.754  21.523  1.00  0.00     0.008 C 
HETATM   17  C24 UNL     1       5.398   7.501  22.121  1.00  0.00     0.025 C 
ENDROOT
BRANCH  14  18
HETATM   18  C16 UNL     1       5.330   5.130  19.238  1.00  0.00     0.139 C 
BRANCH  18  19
HETATM   19  N1  UNL     1       6.532   4.370  19.394  1.00  0.00    -0.319 N 
ATOM     20  H1  UNL     1       7.478   4.721  19.236  1.00  0.00     0.172 HD
BRANCH  19  21
HETATM   21  S1  UNL     1       6.129   2.764  19.895  1.00  0.00     0.227 S 
HETATM   22  O4  UNL     1       5.876   2.894  21.420  1.00  0.00    -0.206 OA
HETATM   23  O5  UNL     1       4.871   2.224  19.354  1.00  0.00    -0.206 OA
BRANCH  21  24
HETATM   24  C17 UNL     1       7.498   1.657  19.786  1.00  0.00     0.176 C 
BRANCH  24  25
HETATM   25  C18 UNL     1       8.150   1.618  18.444  1.00  0.00     0.013 C 
HETATM   26  C19 UNL     1       7.131   1.232  17.383  1.00  0.00     0.020 C 
HETATM   27  C20 UNL     1       9.412   0.860  18.256  1.00  0.00     0.179 C 
HETATM   28  O6  UNL     1      10.109   2.056  18.231  1.00  0.00    -0.389 OA
HETATM   29  C21 UNL     1       8.962   2.795  18.013  1.00  0.00     0.179 C 
ENDBRANCH  24  25
ENDBRANCH  21  24
ENDBRANCH  19  21
ENDBRANCH  18  19
ENDBRANCH  14  18
BRANCH   8  30
HETATM   30  O2  UNL     1      10.448   9.119  22.660  1.00  0.00    -0.392 OA
ATOM     31  H2  UNL     1      10.079   8.569  23.340  1.00  0.00     0.210 HD
ENDBRANCH   8  30
BRANCH  11  32
HETATM   32  C11 UNL     1       7.003  11.551  20.854  1.00  0.00     0.106 C 
HETATM   33  C12 UNL     1       7.275  13.058  20.924  1.00  0.00     0.052 C 
HETATM   34  C13 UNL     1       7.760  11.093  19.650  1.00  0.00     0.052 C 
HETATM   35  F3  UNL     1       5.652  11.548  20.452  1.00  0.00    -0.243 F 
ENDBRANCH  11  32
BRANCH   1  36
HETATM   36  O1  UNL     1       9.116   9.248  24.600  1.00  0.00    -0.387 OA
HETATM   37  C1  UNL     1       8.441   8.422  25.468  1.00  0.00     0.202 C 
ENDBRANCH   1  36
TORSDOF 8
ENDMDL
MODEL 5
REMARK VINA RESULT: -8.306090202      0.982      1.174
REMARK  8 active torsions:
REMARK  status: ('A' for Active; 'I' for Inactive)
REMARK    1  A    between atoms: O1_2  and  C2_3 
REMARK    2  A    between atoms: C8_10  and  O2_11 
REMARK    3  A    between atoms: C10_15  and  C11_16 
REMARK    4  A    between atoms: C15_22  and  C16_23 
REMARK    5  A    between atoms: C16_23  and  N1_24 
REMARK    6  A    between atoms: N1_24  and  S1_26 
REMARK    7  A    between atoms: S1_26  and  C17_29 
REMARK    8  A    between atoms: C17_29  and  C18_30 
ROOT
HETATM    1  C2  UNL     1       8.092   9.843  23.971  1.00  0.00     0.167 C 
HETATM    2  C3  UNL     1       6.823   9.055  23.646  1.00  0.00     0.080 C 
HETATM    3  C4  UNL     1       6.451   9.429  22.217  1.00  0.00     0.122 C 
HETATM    4  F1  UNL     1       5.110   9.679  22.076  1.00  0.00    -0.242 F 
HETATM    5  C5  UNL     1       6.862   8.369  21.287  1.00  0.00     0.062 C 
HETATM    6  C6  UNL     1       8.183   7.705  21.556  1.00  0.00     0.132 C 
HETATM    7  C7  UNL     1       9.255   8.614  21.112  1.00  0.00     0.067 C 
HETATM    8  C8  UNL     1       9.550   9.799  21.927  1.00  0.00     0.163 C 
HETATM    9  C9  UNL     1       8.514  10.490  22.665  1.00  0.00     0.165 C 
HETATM   10  F2  UNL     1       9.032  11.726  23.065  1.00  0.00    -0.237 F 
HETATM   11  C10 UNL     1       7.185  10.729  22.096  1.00  0.00     0.110 C 
HETATM   12  O3  UNL     1       8.110   6.641  20.639  1.00  0.00    -0.379 OA
HETATM   13  C14 UNL     1       6.825   6.152  20.669  1.00  0.00     0.132 C 
HETATM   14  C15 UNL     1       6.202   6.208  19.325  1.00  0.00     0.033 C 
HETATM   15  C22 UNL     1       4.728   6.173  19.657  1.00  0.00     0.009 C 
HETATM   16  C23 UNL     1       4.668   7.277  20.710  1.00  0.00     0.008 C 
HETATM   17  C24 UNL     1       5.967   7.153  21.441  1.00  0.00     0.025 C 
ENDROOT
BRANCH  14  18
HETATM   18  C16 UNL     1       6.615   5.242  18.301  1.00  0.00     0.139 C 
BRANCH  18  19
HETATM   19  N1  UNL     1       7.472   4.199  18.777  1.00  0.00    -0.319 N 
ATOM     20  H1  UNL     1       8.453   4.312  19.033  1.00  0.00     0.172 HD
BRANCH  19  21
HETATM   21  S1  UNL     1       6.578   2.719  18.852  1.00  0.00     0.227 S 
HETATM   22  O4  UNL     1       6.107   2.634  20.328  1.00  0.00    -0.206 OA
HETATM   23  O5  UNL     1       5.338   2.682  18.062  1.00  0.00    -0.206 OA
BRANCH  21  24
HETATM   24  C17 UNL     1       7.606   1.298  18.654  1.00  0.00     0.176 C 
BRANCH  24  25
HETATM   25  C18 UNL     1       8.477   1.334  17.443  1.00  0.00     0.013 C 
HETATM   26  C19 UNL     1       9.910   1.647  17.844  1.00  0.00     0.020 C 
HETATM   27  C20 UNL     1       8.075   2.144  16.266  1.00  0.00     0.179 C 
HETATM   28  O6  UNL     1       7.714   0.981  15.608  1.00  0.00    -0.389 OA
HETATM   29  C21 UNL     1       8.418   0.185  16.492  1.00  0.00     0.179 C 
ENDBRANCH  24  25
ENDBRANCH  21  24
ENDBRANCH  19  21
ENDBRANCH  18  19
ENDBRANCH  14  18
BRANCH   8  30
HETATM   30  O2  UNL     1      10.578   9.441  22.825  1.00  0.00    -0.392 OA
ATOM     31  H2  UNL     1      10.647  10.140  23.465  1.00  0.00     0.210 HD
ENDBRANCH   8  30
BRANCH  11  32
HETATM   32  C11 UNL     1       6.979  11.543  20.908  1.00  0.00     0.106 C 
HETATM   33  C12 UNL     1       5.499  11.799  20.600  1.00  0.00     0.052 C 
HETATM   34  C13 UNL     1       7.609  12.896  20.854  1.00  0.00     0.052 C 
HETATM   35  F3  UNL     1       7.387  10.908  19.717  1.00  0.00    -0.243 F 
ENDBRANCH  11  32
BRANCH   1  36
HETATM   36  O1  UNL     1       9.044   9.080  24.579  1.00  0.00    -0.387 OA
HETATM   37  C1  UNL     1       8.431   8.044  25.245  1.00  0.00     0.202 C 
ENDBRANCH   1  36
TORSDOF 8
ENDMDL
