MODEL 1
REMARK VINA RESULT: -8.195974210      0.000      0.000
REMARK  11 active torsions:
REMARK  status: ('A' for Active; 'I' for Inactive)
REMARK    1  A    between atoms: N1_1  and  N2_4 
REMARK    2  A    between atoms: N2_4  and  N3_5 
REMARK    3  A    between atoms: N3_5  and  S1_7 
REMARK    4  A    between atoms: S1_7  and  C1_10 
REMARK    5  A    between atoms: C1_10  and  C2_11 
REMARK    6  A    between atoms: C2_11  and  N4_12 
REMARK       I    between atoms: N4_12  and  C3_14 
REMARK    7  A    between atoms: C3_14  and  C4_16 
REMARK    8  A    between atoms: C4_16  and  C5_17 
REMARK    9  A    between atoms: C5_17  and  C6_18 
REMARK   10  A    between atoms: C19_33  and  O4_34 
REMARK   11  A    between atoms: C19_33  and  C20_36 
ROOT
HETATM    1  C6  UNL     1       6.659   3.669  19.199  1.00  0.00     0.040 C 
HETATM    2  C7  UNL     1       7.342   2.511  19.933  1.00  0.00     0.005 C 
HETATM    3 CL1  UNL     1       6.756   2.078  21.480  1.00  0.00    -0.092 Cl
HETATM    4  C8  UNL     1       7.627   1.455  18.933  1.00  0.00     0.079 C 
HETATM    5  C9  UNL     1       8.126   2.308  17.784  1.00  0.00     0.041 C 
HETATM    6  C10 UNL     1       9.656   2.380  17.939  1.00  0.00     0.032 C 
HETATM    7  C11 UNL     1      10.304   1.034  17.928  1.00  0.00     0.004 C 
HETATM    8  C12 UNL     1       9.610   0.039  17.053  1.00  0.00     0.020 C 
HETATM    9  C13 UNL     1       8.833   0.830  16.003  1.00  0.00     0.123 C 
HETATM   10  N5  UNL     1       7.865   1.691  16.568  1.00  0.00    -0.383 N 
HETATM   11  C14 UNL     1       6.776   2.048  15.767  1.00  0.00     0.064 C 
HETATM   12  C15 UNL     1       6.010   3.239  16.289  1.00  0.00     0.028 C 
HETATM   13  C16 UNL     1       7.051   4.231  16.757  1.00  0.00     0.018 C 
HETATM   14  C17 UNL     1       7.637   3.713  18.005  1.00  0.00     0.032 C 
HETATM   15  C18 UNL     1       5.135   2.758  17.386  1.00  0.00     0.058 C 
HETATM   16  C19 UNL     1       5.304   3.486  18.705  1.00  0.00     0.146 C 
ENDROOT
BRANCH   1  17
HETATM   17  C5  UNL     1       6.893   4.797  20.133  1.00  0.00     0.028 C 
BRANCH  17  18
HETATM   18  C4  UNL     1       7.877   5.830  19.947  1.00  0.00     0.104 C 
BRANCH  18  19
HETATM   19  C3  UNL     1       7.137   7.094  19.535  1.00  0.00     0.217 C 
HETATM   20  N4  UNL     1       6.952   8.093  20.506  1.00  0.00    -0.360 N 
ATOM     21  H4  UNL     1       7.322   7.922  21.442  1.00  0.00     0.162 HD
HETATM   22  O3  UNL     1       6.695   7.271  18.383  1.00  0.00    -0.274 OA
BRANCH  20  23
HETATM   23  C2  UNL     1       6.277   9.341  20.271  1.00  0.00     0.139 C 
BRANCH  23  24
HETATM   24  C1  UNL     1       6.567  10.395  21.322  1.00  0.00     0.185 C 
BRANCH  24  25
HETATM   25  S1  UNL     1       8.343  10.560  21.542  1.00  0.00     0.256 S 
HETATM   26  O1  UNL     1       8.843   9.504  22.479  1.00  0.00    -0.203 OA
HETATM   27  O2  UNL     1       9.024  10.443  20.209  1.00  0.00    -0.203 OA
BRANCH  25  28
HETATM   28  N3  UNL     1       8.739  12.086  22.202  1.00  0.00    -0.140 N 
ATOM     29  H3  UNL     1       9.050  12.110  23.174  1.00  0.00     0.217 HD
BRANCH  28  30
HETATM   30  N2  UNL     1       8.681  13.143  21.610  1.00  0.00    -0.234 NA
BRANCH  30  31
HETATM   31  N1  UNL     1       8.651  14.008  20.714  1.00  0.00    -0.260 N 
ATOM     32  H12 UNL     1       9.023  13.390  19.993  1.00  0.00     0.193 HD
ATOM     33  H11 UNL     1       8.519  14.882  20.203  1.00  0.00     0.193 HD
ENDBRANCH  30  31
ENDBRANCH  28  30
ENDBRANCH  25  28
ENDBRANCH  24  25
ENDBRANCH  23  24
ENDBRANCH  20  23
ENDBRANCH  18  19
ENDBRANCH  17  18
ENDBRANCH   1  17
BRANCH  16  34
HETATM   34  O4  UNL     1       4.831   4.799  18.362  1.00  0.00    -0.380 OA
ATOM     35  H4  UNL     1       5.598   5.284  18.082  1.00  0.00     0.211 HD
ENDBRANCH  16  34
BRANCH  16  36
HETATM   36  C20 UNL     1       4.263   2.950  19.592  1.00  0.00     0.254 C 
HETATM   37  O5  UNL     1       3.724   3.563  20.507  1.00  0.00    -0.276 OA
HETATM   38 CL2  UNL     1       3.646   1.290  19.426  1.00  0.00    -0.041 Cl
ENDBRANCH  16  36
TORSDOF 11
ENDMDL
MODEL 2
REMARK VINA RESULT: -8.098038288      0.907      1.082
REMARK  11 active torsions:
REMARK  status: ('A' for Active; 'I' for Inactive)
REMARK    1  A    between atoms: N1_1  and  N2_4 
REMARK    2  A    between atoms: N2_4  and  N3_5 
REMARK    3  A    between atoms: N3_5  and  S1_7 
REMARK    4  A    between atoms: S1_7  and  C1_10 
REMARK    5  A    between atoms: C1_10  and  C2_11 
REMARK    6  A    between atoms: C2_11  and  N4_12 
REMARK       I    between atoms: N4_12  and  C3_14 
REMARK    7  A    between atoms: C3_14  and  C4_16 
REMARK    8  A    between atoms: C4_16  and  C5_17 
REMARK    9  A    between atoms: C5_17  and  C6_18 
REMARK   10  A    between atoms: C19_33  and  O4_34 
REMARK   11  A    between atoms: C19_33  and  C20_36 
ROOT
HETATM    1  C6  UNL     1       6.489   3.820  19.493  1.00  0.00     0.040 C 
HETATM    2  C7  UNL     1       7.142   2.584  20.118  1.00  0.00     0.005 C 
HETATM    3 CL1  UNL     1       6.541   2.024  21.619  1.00  0.00    -0.092 Cl
HETATM    4  C8  UNL     1       7.407   1.618  19.026  1.00  0.00     0.079 C 
HETATM    5  C9  UNL     1       7.929   2.560  17.961  1.00  0.00     0.041 C 
HETATM    6  C10 UNL     1       9.459   2.582  18.125  1.00  0.00     0.032 C 
HETATM    7  C11 UNL     1      10.076   1.228  17.991  1.00  0.00     0.004 C 
HETATM    8  C12 UNL     1       9.362   0.335  17.026  1.00  0.00     0.020 C 
HETATM    9  C13 UNL     1       8.608   1.236  16.053  1.00  0.00     0.123 C 
HETATM   10  N5  UNL     1       7.658   2.064  16.693  1.00  0.00    -0.383 N 
HETATM   11  C14 UNL     1       6.581   2.519  15.927  1.00  0.00     0.064 C 
HETATM   12  C15 UNL     1       5.841   3.675  16.555  1.00  0.00     0.028 C 
HETATM   13  C16 UNL     1       6.903   4.594  17.114  1.00  0.00     0.018 C 
HETATM   14  C17 UNL     1       7.472   3.950  18.310  1.00  0.00     0.032 C 
HETATM   15  C18 UNL     1       4.951   3.116  17.601  1.00  0.00     0.058 C 
HETATM   16  C19 UNL     1       5.132   3.715  18.982  1.00  0.00     0.146 C 
ENDROOT
BRANCH   1  17
HETATM   17  C5  UNL     1       6.746   4.852  20.527  1.00  0.00     0.028 C 
BRANCH  17  18
HETATM   18  C4  UNL     1       7.942   5.646  20.619  1.00  0.00     0.104 C 
BRANCH  18  19
HETATM   19  C3  UNL     1       7.588   6.913  21.382  1.00  0.00     0.217 C 
HETATM   20  N4  UNL     1       6.632   7.776  20.819  1.00  0.00    -0.360 N 
ATOM     21  H4  UNL     1       6.222   7.510  19.923  1.00  0.00     0.162 HD
HETATM   22  O3  UNL     1       8.110   7.210  22.475  1.00  0.00    -0.274 OA
BRANCH  20  23
HETATM   23  C2  UNL     1       6.193   9.006  21.419  1.00  0.00     0.139 C 
BRANCH  23  24
HETATM   24  C1  UNL     1       6.436  10.225  20.550  1.00  0.00     0.185 C 
BRANCH  24  25
HETATM   25  S1  UNL     1       8.177  10.670  20.601  1.00  0.00     0.256 S 
HETATM   26  O1  UNL     1       8.660  10.685  22.018  1.00  0.00    -0.203 OA
HETATM   27  O2  UNL     1       8.967   9.685  19.788  1.00  0.00    -0.203 OA
BRANCH  25  28
HETATM   28  N3  UNL     1       8.432  12.223  19.936  1.00  0.00    -0.140 N 
ATOM     29  H3  UNL     1       8.498  12.293  18.920  1.00  0.00     0.217 HD
BRANCH  28  30
HETATM   30  N2  UNL     1       8.540  13.250  20.574  1.00  0.00    -0.234 NA
BRANCH  30  31
HETATM   31  N1  UNL     1       8.842  14.403  20.935  1.00  0.00    -0.260 N 
ATOM     32  H12 UNL     1       8.304  14.861  20.199  1.00  0.00     0.193 HD
ATOM     33  H11 UNL     1       9.240  15.197  21.438  1.00  0.00     0.193 HD
ENDBRANCH  30  31
ENDBRANCH  28  30
ENDBRANCH  25  28
ENDBRANCH  24  25
ENDBRANCH  23  24
ENDBRANCH  20  23
ENDBRANCH  18  19
ENDBRANCH  17  18
ENDBRANCH   1  17
BRANCH  16  34
HETATM   34  O4  UNL     1       4.691   5.065  18.761  1.00  0.00    -0.380 OA
ATOM     35  H4  UNL     1       3.761   5.068  18.953  1.00  0.00     0.211 HD
ENDBRANCH  16  34
BRANCH  16  36
HETATM   36  C20 UNL     1       4.075   3.125  19.815  1.00  0.00     0.254 C 
HETATM   37  O5  UNL     1       3.467   3.704  20.708  1.00  0.00    -0.276 OA
HETATM   38 CL2  UNL     1       3.543   1.440  19.608  1.00  0.00    -0.041 Cl
ENDBRANCH  16  36
TORSDOF 11
ENDMDL
MODEL 3
REMARK VINA RESULT: -8.069611094      2.325      2.784
REMARK  11 active torsions:
REMARK  status: ('A' for Active; 'I' for Inactive)
REMARK    1  A    between atoms: N1_1  and  N2_4 
REMARK    2  A    between atoms: N2_4  and  N3_5 
REMARK    3  A    between atoms: N3_5  and  S1_7 
REMARK    4  A    between atoms: S1_7  and  C1_10 
REMARK    5  A    between atoms: C1_10  and  C2_11 
REMARK    6  A    between atoms: C2_11  and  N4_12 
REMARK       I    between atoms: N4_12  and  C3_14 
REMARK    7  A    between atoms: C3_14  and  C4_16 
REMARK    8  A    between atoms: C4_16  and  C5_17 
REMARK    9  A    between atoms: C5_17  and  C6_18 
REMARK   10  A    between atoms: C19_33  and  O4_34 
REMARK   11  A    between atoms: C19_33  and  C20_36 
ROOT
HETATM    1  C6  UNL     1       6.468   3.779  19.284  1.00  0.00     0.040 C 
HETATM    2  C7  UNL     1       7.148   2.603  19.992  1.00  0.00     0.005 C 
HETATM    3 CL1  UNL     1       6.542   2.119  21.517  1.00  0.00    -0.092 Cl
HETATM    4  C8  UNL     1       7.455   1.580  18.966  1.00  0.00     0.079 C 
HETATM    5  C9  UNL     1       7.964   2.469  17.850  1.00  0.00     0.041 C 
HETATM    6  C10 UNL     1       9.491   2.547  18.030  1.00  0.00     0.032 C 
HETATM    7  C11 UNL     1      10.148   1.205  17.988  1.00  0.00     0.004 C 
HETATM    8  C12 UNL     1       9.474   0.234  17.072  1.00  0.00     0.020 C 
HETATM    9  C13 UNL     1       8.707   1.051  16.036  1.00  0.00     0.123 C 
HETATM   10  N5  UNL     1       7.725   1.888  16.612  1.00  0.00    -0.383 N 
HETATM   11  C14 UNL     1       6.645   2.263  15.807  1.00  0.00     0.064 C 
HETATM   12  C15 UNL     1       5.864   3.433  16.353  1.00  0.00     0.028 C 
HETATM   13  C16 UNL     1       6.892   4.416  16.866  1.00  0.00     0.018 C 
HETATM   14  C17 UNL     1       7.463   3.864  18.107  1.00  0.00     0.032 C 
HETATM   15  C18 UNL     1       4.976   2.914  17.421  1.00  0.00     0.058 C 
HETATM   16  C19 UNL     1       5.121   3.602  18.765  1.00  0.00     0.146 C 
ENDROOT
BRANCH   1  17
HETATM   17  C5  UNL     1       6.681   4.879  20.255  1.00  0.00     0.028 C 
BRANCH  17  18
HETATM   18  C4  UNL     1       7.840   5.730  20.293  1.00  0.00     0.104 C 
BRANCH  18  19
HETATM   19  C3  UNL     1       7.446   7.000  21.032  1.00  0.00     0.217 C 
HETATM   20  N4  UNL     1       8.434   7.981  21.230  1.00  0.00    -0.360 N 
ATOM     21  H4  UNL     1       9.369   7.792  20.868  1.00  0.00     0.162 HD
HETATM   22  O3  UNL     1       6.293   7.199  21.464  1.00  0.00    -0.274 OA
BRANCH  20  23
HETATM   23  C2  UNL     1       8.217   9.231  21.906  1.00  0.00     0.139 C 
BRANCH  23  24
HETATM   24  C1  UNL     1       9.177   9.475  23.053  1.00  0.00     0.185 C 
BRANCH  24  25
HETATM   25  S1  UNL     1       8.523   8.744  24.559  1.00  0.00     0.256 S 
HETATM   26  O1  UNL     1       7.327   9.516  25.025  1.00  0.00    -0.203 OA
HETATM   27  O2  UNL     1       8.153   7.313  24.299  1.00  0.00    -0.203 OA
BRANCH  25  28
HETATM   28  N3  UNL     1       9.689   8.767  25.808  1.00  0.00    -0.140 N 
ATOM     29  H3  UNL     1      10.385   9.513  25.786  1.00  0.00     0.217 HD
BRANCH  28  30
HETATM   30  N2  UNL     1       9.758   7.968  26.718  1.00  0.00    -0.234 NA
BRANCH  30  31
HETATM   31  N1  UNL     1       9.479   7.241  27.690  1.00  0.00    -0.260 N 
ATOM     32  H12 UNL     1       8.666   7.789  27.971  1.00  0.00     0.193 HD
ATOM     33  H11 UNL     1       9.491   6.497  28.389  1.00  0.00     0.193 HD
ENDBRANCH  30  31
ENDBRANCH  28  30
ENDBRANCH  25  28
ENDBRANCH  24  25
ENDBRANCH  23  24
ENDBRANCH  20  23
ENDBRANCH  18  19
ENDBRANCH  17  18
ENDBRANCH   1  17
BRANCH  16  34
HETATM   34  O4  UNL     1       4.645   4.922  18.454  1.00  0.00    -0.380 OA
ATOM     35  H4  UNL     1       4.191   4.844  17.624  1.00  0.00     0.211 HD
ENDBRANCH  16  34
BRANCH  16  36
HETATM   36  C20 UNL     1       4.071   3.033  19.620  1.00  0.00     0.254 C 
HETATM   37  O5  UNL     1       3.446   3.644  20.480  1.00  0.00    -0.276 OA
HETATM   38 CL2  UNL     1       3.572   1.331  19.493  1.00  0.00    -0.041 Cl
ENDBRANCH  16  36
TORSDOF 11
ENDMDL
MODEL 4
REMARK VINA RESULT: -8.053381643      1.240      1.372
REMARK  11 active torsions:
REMARK  status: ('A' for Active; 'I' for Inactive)
REMARK    1  A    between atoms: N1_1  and  N2_4 
REMARK    2  A    between atoms: N2_4  and  N3_5 
REMARK    3  A    between atoms: N3_5  and  S1_7 
REMARK    4  A    between atoms: S1_7  and  C1_10 
REMARK    5  A    between atoms: C1_10  and  C2_11 
REMARK    6  A    between atoms: C2_11  and  N4_12 
REMARK       I    between atoms: N4_12  and  C3_14 
REMARK    7  A    between atoms: C3_14  and  C4_16 
REMARK    8  A    between atoms: C4_16  and  C5_17 
REMARK    9  A    between atoms: C5_17  and  C6_18 
REMARK   10  A    between atoms: C19_33  and  O4_34 
REMARK   11  A    between atoms: C19_33  and  C20_36 
ROOT
HETATM    1  C6  UNL     1       6.412   3.804  19.530  1.00  0.00     0.040 C 
HETATM    2  C7  UNL     1       7.082   2.578  20.157  1.00  0.00     0.005 C 
HETATM    3 CL1  UNL     1       6.469   1.995  21.645  1.00  0.00    -0.092 Cl
HETATM    4  C8  UNL     1       7.383   1.625  19.064  1.00  0.00     0.079 C 
HETATM    5  C9  UNL     1       7.902   2.585  18.013  1.00  0.00     0.041 C 
HETATM    6  C10 UNL     1       9.429   2.638  18.200  1.00  0.00     0.032 C 
HETATM    7  C11 UNL     1      10.076   1.298  18.067  1.00  0.00     0.004 C 
HETATM    8  C12 UNL     1       9.397   0.396  17.086  1.00  0.00     0.020 C 
HETATM    9  C13 UNL     1       8.638   1.288  16.107  1.00  0.00     0.123 C 
HETATM   10  N5  UNL     1       7.661   2.091  16.737  1.00  0.00    -0.383 N 
HETATM   11  C14 UNL     1       6.586   2.528  15.958  1.00  0.00     0.064 C 
HETATM   12  C15 UNL     1       5.812   3.664  16.581  1.00  0.00     0.028 C 
HETATM   13  C16 UNL     1       6.846   4.602  17.162  1.00  0.00     0.018 C 
HETATM   14  C17 UNL     1       7.410   3.963  18.363  1.00  0.00     0.032 C 
HETATM   15  C18 UNL     1       4.918   3.079  17.610  1.00  0.00     0.058 C 
HETATM   16  C19 UNL     1       5.065   3.673  18.997  1.00  0.00     0.146 C 
ENDROOT
BRANCH   1  17
HETATM   17  C5  UNL     1       6.630   4.834  20.574  1.00  0.00     0.028 C 
BRANCH  17  18
HETATM   18  C4  UNL     1       7.732   5.758  20.601  1.00  0.00     0.104 C 
BRANCH  18  19
HETATM   19  C3  UNL     1       7.346   6.898  21.531  1.00  0.00     0.217 C 
HETATM   20  N4  UNL     1       8.342   7.825  21.885  1.00  0.00    -0.360 N 
ATOM     21  H4  UNL     1       9.278   7.688  21.501  1.00  0.00     0.162 HD
HETATM   22  O3  UNL     1       6.193   7.037  21.985  1.00  0.00    -0.274 OA
BRANCH  20  23
HETATM   23  C2  UNL     1       8.132   8.954  22.751  1.00  0.00     0.139 C 
BRANCH  23  24
HETATM   24  C1  UNL     1       8.677  10.255  22.193  1.00  0.00     0.185 C 
BRANCH  24  25
HETATM   25  S1  UNL     1       8.187  10.431  20.473  1.00  0.00     0.256 S 
HETATM   26  O1  UNL     1       8.974   9.486  19.618  1.00  0.00    -0.203 OA
HETATM   27  O2  UNL     1       6.717  10.155  20.342  1.00  0.00    -0.203 OA
BRANCH  25  28
HETATM   28  N3  UNL     1       8.475  12.019  19.913  1.00  0.00    -0.140 N 
ATOM     29  H3  UNL     1       8.592  12.148  18.907  1.00  0.00     0.217 HD
BRANCH  28  30
HETATM   30  N2  UNL     1       8.552  13.007  20.613  1.00  0.00    -0.234 NA
BRANCH  30  31
HETATM   31  N1  UNL     1       8.720  14.174  21.015  1.00  0.00    -0.260 N 
ATOM     32  H12 UNL     1       8.686  14.586  20.082  1.00  0.00     0.193 HD
ATOM     33  H11 UNL     1       8.863  14.992  21.608  1.00  0.00     0.193 HD
ENDBRANCH  30  31
ENDBRANCH  28  30
ENDBRANCH  25  28
ENDBRANCH  24  25
ENDBRANCH  23  24
ENDBRANCH  20  23
ENDBRANCH  18  19
ENDBRANCH  17  18
ENDBRANCH   1  17
BRANCH  16  34
HETATM   34  O4  UNL     1       4.599   5.015  18.777  1.00  0.00    -0.380 OA
ATOM     35  H4  UNL     1       4.076   5.235  19.539  1.00  0.00     0.211 HD
ENDBRANCH  16  34
BRANCH  16  36
HETATM   36  C20 UNL     1       4.009   3.055  19.810  1.00  0.00     0.254 C 
HETATM   37  O5  UNL     1       3.386   3.611  20.708  1.00  0.00    -0.276 OA
HETATM   38 CL2  UNL     1       3.499   1.369  19.567  1.00  0.00    -0.041 Cl
ENDBRANCH  16  36
TORSDOF 11
ENDMDL
MODEL 5
REMARK VINA RESULT: -8.052654056      1.402      1.509
REMARK  11 active torsions:
REMARK  status: ('A' for Active; 'I' for Inactive)
REMARK    1  A    between atoms: N1_1  and  N2_4 
REMARK    2  A    between atoms: N2_4  and  N3_5 
REMARK    3  A    between atoms: N3_5  and  S1_7 
REMARK    4  A    between atoms: S1_7  and  C1_10 
REMARK    5  A    between atoms: C1_10  and  C2_11 
REMARK    6  A    between atoms: C2_11  and  N4_12 
REMARK       I    between atoms: N4_12  and  C3_14 
REMARK    7  A    between atoms: C3_14  and  C4_16 
REMARK    8  A    between atoms: C4_16  and  C5_17 
REMARK    9  A    between atoms: C5_17  and  C6_18 
REMARK   10  A    between atoms: C19_33  and  O4_34 
REMARK   11  A    between atoms: C19_33  and  C20_36 
ROOT
HETATM    1  C6  UNL     1       6.360   3.721  19.357  1.00  0.00     0.040 C 
HETATM    2  C7  UNL     1       7.045   2.527  20.030  1.00  0.00     0.005 C 
HETATM    3 CL1  UNL     1       6.418   1.971  21.521  1.00  0.00    -0.092 Cl
HETATM    4  C8  UNL     1       7.388   1.552  18.969  1.00  0.00     0.079 C 
HETATM    5  C9  UNL     1       7.905   2.495  17.901  1.00  0.00     0.041 C 
HETATM    6  C10 UNL     1       9.427   2.588  18.115  1.00  0.00     0.032 C 
HETATM    7  C11 UNL     1      10.106   1.259  18.031  1.00  0.00     0.004 C 
HETATM    8  C12 UNL     1       9.465   0.316  17.063  1.00  0.00     0.020 C 
HETATM    9  C13 UNL     1       8.706   1.164  16.046  1.00  0.00     0.123 C 
HETATM   10  N5  UNL     1       7.700   1.962  16.636  1.00  0.00    -0.383 N 
HETATM   11  C14 UNL     1       6.630   2.353  15.825  1.00  0.00     0.064 C 
HETATM   12  C15 UNL     1       5.820   3.488  16.402  1.00  0.00     0.028 C 
HETATM   13  C16 UNL     1       6.822   4.464  16.977  1.00  0.00     0.018 C 
HETATM   14  C17 UNL     1       7.377   3.870  18.205  1.00  0.00     0.032 C 
HETATM   15  C18 UNL     1       4.920   2.911  17.431  1.00  0.00     0.058 C 
HETATM   16  C19 UNL     1       5.027   3.545  18.804  1.00  0.00     0.146 C 
ENDROOT
BRANCH   1  17
HETATM   17  C5  UNL     1       6.537   4.783  20.377  1.00  0.00     0.028 C 
BRANCH  17  18
HETATM   18  C4  UNL     1       7.477   5.867  20.282  1.00  0.00     0.104 C 
BRANCH  18  19
HETATM   19  C3  UNL     1       7.054   6.925  21.290  1.00  0.00     0.217 C 
HETATM   20  N4  UNL     1       7.837   7.084  22.446  1.00  0.00    -0.360 N 
ATOM     21  H4  UNL     1       8.652   6.480  22.554  1.00  0.00     0.162 HD
HETATM   22  O3  UNL     1       6.049   7.646  21.128  1.00  0.00    -0.274 OA
BRANCH  20  23
HETATM   23  C2  UNL     1       7.568   8.039  23.486  1.00  0.00     0.139 C 
BRANCH  23  24
HETATM   24  C1  UNL     1       8.808   8.485  24.236  1.00  0.00     0.185 C 
BRANCH  24  25
HETATM   25  S1  UNL     1       9.782   9.585  23.200  1.00  0.00     0.256 S 
HETATM   26  O1  UNL     1      11.239   9.409  23.494  1.00  0.00    -0.203 OA
HETATM   27  O2  UNL     1       9.500   9.288  21.755  1.00  0.00    -0.203 OA
BRANCH  25  28
HETATM   28  N3  UNL     1       9.375  11.219  23.489  1.00  0.00    -0.140 N 
ATOM     29  H3  UNL     1       9.470  11.563  24.445  1.00  0.00     0.217 HD
BRANCH  28  30
HETATM   30  N2  UNL     1       8.983  12.003  22.651  1.00  0.00    -0.234 NA
BRANCH  30  31
HETATM   31  N1  UNL     1       8.516  12.501  21.609  1.00  0.00    -0.260 N 
ATOM     32  H12 UNL     1       7.610  12.719  22.023  1.00  0.00     0.193 HD
ATOM     33  H11 UNL     1       8.403  12.837  20.652  1.00  0.00     0.193 HD
ENDBRANCH  30  31
ENDBRANCH  28  30
ENDBRANCH  25  28
ENDBRANCH  24  25
ENDBRANCH  23  24
ENDBRANCH  20  23
ENDBRANCH  18  19
ENDBRANCH  17  18
ENDBRANCH   1  17
BRANCH  16  34
HETATM   34  O4  UNL     1       4.536   4.869  18.539  1.00  0.00    -0.380 OA
ATOM     35  H4  UNL     1       5.181   5.462  18.907  1.00  0.00     0.211 HD
ENDBRANCH  16  34
BRANCH  16  36
HETATM   36  C20 UNL     1       3.970   2.926  19.613  1.00  0.00     0.254 C 
HETATM   37  O5  UNL     1       3.362   3.472  20.527  1.00  0.00    -0.276 OA
HETATM   38 CL2  UNL     1       3.435   1.251  19.343  1.00  0.00    -0.041 Cl
ENDBRANCH  16  36
TORSDOF 11
ENDMDL
