MODEL 1
REMARK VINA RESULT: -7.751057198      0.000      0.000
REMARK  12 active torsions:
REMARK  status: ('A' for Active; 'I' for Inactive)
REMARK    1  A    between atoms: C2_2  and  N1_3 
REMARK    2  A    between atoms: N1_3  and  C3_4 
REMARK    3  A    between atoms: N1_3  and  C10_15 
REMARK    4  A    between atoms: C3_4  and  C4_5 
REMARK    5  A    between atoms: C4_5  and  C5_7 
REMARK    6  A    between atoms: C5_7  and  O2_8 
REMARK    7  A    between atoms: O2_8  and  C6_9 
REMARK    8  A    between atoms: C6_9  and  O4_11 
REMARK    9  A    between atoms: C10_15  and  O5_16 
REMARK   10  A    between atoms: C10_15  and  C11_18 
REMARK   11  A    between atoms: C18_29  and  C19_30 
REMARK       I    between atoms: C19_30  and  N3_32 
REMARK   12  A    between atoms: N4_35  and  C22_36 
ROOT
HETATM    1  C11 UNL     1       7.572   5.721  18.310  1.00  0.00     0.100 A 
HETATM    2  N2  UNL     1       8.551   4.848  18.586  1.00  0.00    -0.351 N 
ATOM      3  H2  UNL     1       9.260   4.985  19.307  1.00  0.00     0.166 HD
HETATM    4  C12 UNL     1       8.476   3.749  17.775  1.00  0.00     0.045 A 
HETATM    5  C13 UNL     1       9.268   2.613  17.708  1.00  0.00     0.056 A 
HETATM    6  C14 UNL     1       8.945   1.646  16.766  1.00  0.00     0.058 A 
HETATM    7 CL1  UNL     1       9.945   0.212  16.678  1.00  0.00    -0.082 Cl
HETATM    8  C15 UNL     1       7.879   1.797  15.924  1.00  0.00     0.056 A 
HETATM    9 CL2  UNL     1       7.507   0.544  14.745  1.00  0.00    -0.083 Cl
HETATM   10  C16 UNL     1       7.120   2.944  16.031  1.00  0.00     0.040 A 
HETATM   11  C17 UNL     1       7.404   3.943  16.958  1.00  0.00     0.010 A 
HETATM   12  C18 UNL     1       6.827   5.153  17.267  1.00  0.00     0.075 A 
ENDROOT
BRANCH   1  13
HETATM   13  C10 UNL     1       7.260   6.996  18.902  1.00  0.00     0.167 C 
BRANCH  13  14
HETATM   14  N1  UNL     1       6.766   7.324  20.158  1.00  0.00    -0.353 N 
BRANCH  14  15
HETATM   15  C2  UNL     1       5.408   7.615  20.494  1.00  0.00     0.121 C 
HETATM   16  C1  UNL     1       4.887   6.759  21.642  1.00  0.00     0.026 C 
ENDBRANCH  14  15
BRANCH  14  17
HETATM   17  C3  UNL     1       7.743   7.409  21.274  1.00  0.00     0.206 C 
BRANCH  17  18
HETATM   18  C4  UNL     1       8.113   8.793  21.593  1.00  0.00     0.179 C 
HETATM   19  O1  UNL     1       8.591   9.522  20.744  1.00  0.00    -0.293 OA
BRANCH  18  20
HETATM   20  C5  UNL     1       7.920   9.344  22.949  1.00  0.00     0.135 A 
HETATM   21  C8  UNL     1       7.242   8.555  24.006  1.00  0.00     0.050 A 
HETATM   22  C9  UNL     1       6.496   9.706  23.354  1.00  0.00     0.050 A 
BRANCH  20  23
HETATM   23  O2  UNL     1       8.983  10.171  23.442  1.00  0.00    -0.279 OA
BRANCH  23  24
HETATM   24  C6  UNL     1      10.075   9.550  24.034  1.00  0.00     0.407 C 
HETATM   25  O3  UNL     1      10.983   9.121  23.284  1.00  0.00    -0.229 OA
BRANCH  24  26
HETATM   26  O4  UNL     1      10.195   9.392  25.403  1.00  0.00    -0.303 OA
HETATM   27  C7  UNL     1      10.432   8.089  25.947  1.00  0.00     0.215 C 
ENDBRANCH  24  26
ENDBRANCH  23  24
ENDBRANCH  20  23
ENDBRANCH  18  20
ENDBRANCH  17  18
ENDBRANCH  14  17
ENDBRANCH  13  14
BRANCH  13  28
HETATM   28  O5  UNL     1       7.476   8.024  18.133  1.00  0.00    -0.344 OA
ATOM     29  H5  UNL     1       7.221   7.890  17.227  1.00  0.00     0.219 HD
ENDBRANCH  13  28
ENDBRANCH   1  13
BRANCH  12  30
HETATM   30  C19 UNL     1       5.663   5.709  16.615  1.00  0.00     0.257 C 
HETATM   31  O6  UNL     1       5.892   6.512  15.654  1.00  0.00    -0.267 OA
HETATM   32  N3  UNL     1       4.338   5.430  16.963  1.00  0.00    -0.344 N 
HETATM   33  C20 UNL     1       3.989   4.529  18.041  1.00  0.00     0.156 C 
HETATM   34  C26 UNL     1       3.239   6.041  16.246  1.00  0.00     0.156 C 
HETATM   35  C21 UNL     1       2.911   5.133  18.932  1.00  0.00     0.292 C 
HETATM   36  N4  UNL     1       1.835   5.689  18.135  1.00  0.00     0.095 N 
HETATM   37  C25 UNL     1       2.379   6.729  17.311  1.00  0.00     0.292 C 
BRANCH  36  38
HETATM   38  C22 UNL     1       0.800   6.143  19.029  1.00  0.00     0.215 C 
HETATM   39  C23 UNL     1       1.282   6.370  20.427  1.00  0.00     0.042 C 
HETATM   40  C24 UNL     1       0.098   7.373  18.536  1.00  0.00     0.042 C 
ENDBRANCH  36  38
ENDBRANCH  12  30
TORSDOF 12
ENDMDL
MODEL 2
REMARK VINA RESULT: -7.631540984      2.491      4.139
REMARK  12 active torsions:
REMARK  status: ('A' for Active; 'I' for Inactive)
REMARK    1  A    between atoms: C2_2  and  N1_3 
REMARK    2  A    between atoms: N1_3  and  C3_4 
REMARK    3  A    between atoms: N1_3  and  C10_15 
REMARK    4  A    between atoms: C3_4  and  C4_5 
REMARK    5  A    between atoms: C4_5  and  C5_7 
REMARK    6  A    between atoms: C5_7  and  O2_8 
REMARK    7  A    between atoms: O2_8  and  C6_9 
REMARK    8  A    between atoms: C6_9  and  O4_11 
REMARK    9  A    between atoms: C10_15  and  O5_16 
REMARK   10  A    between atoms: C10_15  and  C11_18 
REMARK   11  A    between atoms: C18_29  and  C19_30 
REMARK       I    between atoms: C19_30  and  N3_32 
REMARK   12  A    between atoms: N4_35  and  C22_36 
ROOT
HETATM    1  C11 UNL     1       6.908   5.881  18.057  1.00  0.00     0.100 A 
HETATM    2  N2  UNL     1       8.043   5.268  18.423  1.00  0.00    -0.351 N 
ATOM      3  H2  UNL     1       8.706   5.641  19.102  1.00  0.00     0.166 HD
HETATM    4  C12 UNL     1       8.194   4.077  17.767  1.00  0.00     0.045 A 
HETATM    5  C13 UNL     1       9.201   3.126  17.833  1.00  0.00     0.056 A 
HETATM    6  C14 UNL     1       9.083   1.995  17.034  1.00  0.00     0.058 A 
HETATM    7 CL1  UNL     1      10.352   0.793  17.115  1.00  0.00    -0.082 Cl
HETATM    8  C15 UNL     1       8.012   1.814  16.205  1.00  0.00     0.056 A 
HETATM    9 CL2  UNL     1       7.905   0.365  15.212  1.00  0.00    -0.083 Cl
HETATM   10  C16 UNL     1       7.037   2.789  16.177  1.00  0.00     0.040 A 
HETATM   11  C17 UNL     1       7.109   3.940  16.956  1.00  0.00     0.010 A 
HETATM   12  C18 UNL     1       6.298   5.040  17.115  1.00  0.00     0.075 A 
ENDROOT
BRANCH   1  13
HETATM   13  C10 UNL     1       6.343   7.135  18.481  1.00  0.00     0.167 C 
BRANCH  13  14
HETATM   14  N1  UNL     1       5.395   7.427  19.453  1.00  0.00    -0.353 N 
BRANCH  14  15
HETATM   15  C2  UNL     1       4.104   8.005  19.243  1.00  0.00     0.121 C 
HETATM   16  C1  UNL     1       3.287   8.106  20.525  1.00  0.00     0.026 C 
ENDBRANCH  14  15
BRANCH  14  17
HETATM   17  C3  UNL     1       5.753   7.138  20.865  1.00  0.00     0.206 C 
BRANCH  17  18
HETATM   18  C4  UNL     1       6.903   7.925  21.326  1.00  0.00     0.179 C 
HETATM   19  O1  UNL     1       7.952   7.383  21.619  1.00  0.00    -0.293 OA
BRANCH  18  20
HETATM   20  C5  UNL     1       6.825   9.395  21.451  1.00  0.00     0.135 A 
HETATM   21  C8  UNL     1       7.484  10.102  22.575  1.00  0.00     0.050 A 
HETATM   22  C9  UNL     1       5.973   9.949  22.586  1.00  0.00     0.050 A 
BRANCH  20  23
HETATM   23  O2  UNL     1       6.850  10.126  20.217  1.00  0.00    -0.279 OA
BRANCH  23  24
HETATM   24  C6  UNL     1       8.073  10.599  19.762  1.00  0.00     0.407 C 
HETATM   25  O3  UNL     1       8.947   9.758  19.445  1.00  0.00    -0.229 OA
BRANCH  24  26
HETATM   26  O4  UNL     1       8.359  11.948  19.645  1.00  0.00    -0.303 OA
HETATM   27  C7  UNL     1       7.466  12.913  20.210  1.00  0.00     0.215 C 
ENDBRANCH  24  26
ENDBRANCH  23  24
ENDBRANCH  20  23
ENDBRANCH  18  20
ENDBRANCH  17  18
ENDBRANCH  14  17
ENDBRANCH  13  14
BRANCH  13  28
HETATM   28  O5  UNL     1       6.793   8.181  17.850  1.00  0.00    -0.344 OA
ATOM     29  H5  UNL     1       6.140   8.855  17.703  1.00  0.00     0.219 HD
ENDBRANCH  13  28
ENDBRANCH   1  13
BRANCH  12  30
HETATM   30  C19 UNL     1       5.048   5.259  16.423  1.00  0.00     0.257 C 
HETATM   31  O6  UNL     1       3.991   5.078  17.110  1.00  0.00    -0.267 OA
HETATM   32  N3  UNL     1       4.929   5.646  15.085  1.00  0.00    -0.344 N 
HETATM   33  C20 UNL     1       6.078   5.873  14.234  1.00  0.00     0.156 C 
HETATM   34  C26 UNL     1       3.627   5.839  14.483  1.00  0.00     0.156 C 
HETATM   35  C21 UNL     1       5.900   5.196  12.881  1.00  0.00     0.292 C 
HETATM   36  N4  UNL     1       4.585   5.470  12.336  1.00  0.00     0.095 N 
HETATM   37  C25 UNL     1       3.606   4.943  13.241  1.00  0.00     0.292 C 
BRANCH  36  38
HETATM   38  C22 UNL     1       4.518   4.900  11.015  1.00  0.00     0.215 C 
HETATM   39  C23 UNL     1       4.727   5.903   9.925  1.00  0.00     0.042 C 
HETATM   40  C24 UNL     1       5.462   3.750  10.823  1.00  0.00     0.042 C 
ENDBRANCH  36  38
ENDBRANCH  12  30
TORSDOF 12
ENDMDL
MODEL 3
REMARK VINA RESULT: -7.554575960      2.038      3.291
REMARK  12 active torsions:
REMARK  status: ('A' for Active; 'I' for Inactive)
REMARK    1  A    between atoms: C2_2  and  N1_3 
REMARK    2  A    between atoms: N1_3  and  C3_4 
REMARK    3  A    between atoms: N1_3  and  C10_15 
REMARK    4  A    between atoms: C3_4  and  C4_5 
REMARK    5  A    between atoms: C4_5  and  C5_7 
REMARK    6  A    between atoms: C5_7  and  O2_8 
REMARK    7  A    between atoms: O2_8  and  C6_9 
REMARK    8  A    between atoms: C6_9  and  O4_11 
REMARK    9  A    between atoms: C10_15  and  O5_16 
REMARK   10  A    between atoms: C10_15  and  C11_18 
REMARK   11  A    between atoms: C18_29  and  C19_30 
REMARK       I    between atoms: C19_30  and  N3_32 
REMARK   12  A    between atoms: N4_35  and  C22_36 
ROOT
HETATM    1  C11 UNL     1       7.412   5.636  18.180  1.00  0.00     0.100 A 
HETATM    2  N2  UNL     1       8.477   4.848  18.386  1.00  0.00    -0.351 N 
ATOM      3  H2  UNL     1       9.250   5.074  19.011  1.00  0.00     0.166 HD
HETATM    4  C12 UNL     1       8.392   3.701  17.644  1.00  0.00     0.045 A 
HETATM    5  C13 UNL     1       9.252   2.619  17.544  1.00  0.00     0.056 A 
HETATM    6  C14 UNL     1       8.897   1.579  16.695  1.00  0.00     0.058 A 
HETATM    7 CL1  UNL     1       9.982   0.212  16.566  1.00  0.00    -0.082 Cl
HETATM    8  C15 UNL     1       7.736   1.609  15.976  1.00  0.00     0.056 A 
HETATM    9 CL2  UNL     1       7.326   0.267  14.912  1.00  0.00    -0.083 Cl
HETATM   10  C16 UNL     1       6.912   2.707  16.111  1.00  0.00     0.040 A 
HETATM   11  C17 UNL     1       7.224   3.775  16.948  1.00  0.00     0.010 A 
HETATM   12  C18 UNL     1       6.599   4.960  17.260  1.00  0.00     0.075 A 
ENDROOT
BRANCH   1  13
HETATM   13  C10 UNL     1       7.076   6.920  18.739  1.00  0.00     0.167 C 
BRANCH  13  14
HETATM   14  N1  UNL     1       6.603   7.274  19.996  1.00  0.00    -0.353 N 
BRANCH  14  15
HETATM   15  C2  UNL     1       5.243   7.519  20.359  1.00  0.00     0.121 C 
HETATM   16  C1  UNL     1       4.572   6.304  20.990  1.00  0.00     0.026 C 
ENDBRANCH  14  15
BRANCH  14  17
HETATM   17  C3  UNL     1       7.604   7.443  21.080  1.00  0.00     0.206 C 
BRANCH  17  18
HETATM   18  C4  UNL     1       8.069   8.830  21.205  1.00  0.00     0.179 C 
HETATM   19  O1  UNL     1       8.739   9.344  20.329  1.00  0.00    -0.293 OA
BRANCH  18  20
HETATM   20  C5  UNL     1       7.741   9.643  22.393  1.00  0.00     0.135 A 
HETATM   21  C8  UNL     1       6.543   9.348  23.215  1.00  0.00     0.050 A 
HETATM   22  C9  UNL     1       6.524  10.555  22.294  1.00  0.00     0.050 A 
BRANCH  20  23
HETATM   23  O2  UNL     1       8.862  10.109  23.156  1.00  0.00    -0.279 OA
BRANCH  23  24
HETATM   24  C6  UNL     1       9.814   9.180  23.555  1.00  0.00     0.407 C 
HETATM   25  O3  UNL     1      10.995   9.350  23.172  1.00  0.00    -0.229 OA
BRANCH  24  26
HETATM   26  O4  UNL     1       9.510   8.090  24.350  1.00  0.00    -0.303 OA
HETATM   27  C7  UNL     1       9.283   8.275  25.751  1.00  0.00     0.215 C 
ENDBRANCH  24  26
ENDBRANCH  23  24
ENDBRANCH  20  23
ENDBRANCH  18  20
ENDBRANCH  17  18
ENDBRANCH  14  17
ENDBRANCH  13  14
BRANCH  13  28
HETATM   28  O5  UNL     1       7.243   7.929  17.933  1.00  0.00    -0.344 OA
ATOM     29  H5  UNL     1       6.941   7.770  17.047  1.00  0.00     0.219 HD
ENDBRANCH  13  28
ENDBRANCH   1  13
BRANCH  12  30
HETATM   30  C19 UNL     1       5.332   5.399  16.719  1.00  0.00     0.257 C 
HETATM   31  O6  UNL     1       4.331   5.306  17.500  1.00  0.00    -0.267 OA
HETATM   32  N3  UNL     1       5.143   5.906  15.431  1.00  0.00    -0.344 N 
HETATM   33  C20 UNL     1       6.226   6.047  14.481  1.00  0.00     0.156 C 
HETATM   34  C26 UNL     1       3.829   6.320  14.983  1.00  0.00     0.156 C 
HETATM   35  C21 UNL     1       5.826   5.512  13.111  1.00  0.00     0.292 C 
HETATM   36  N4  UNL     1       4.517   6.003  12.728  1.00  0.00     0.095 N 
HETATM   37  C25 UNL     1       3.564   5.539  13.693  1.00  0.00     0.292 C 
BRANCH  36  38
HETATM   38  C22 UNL     1       4.244   5.556  11.385  1.00  0.00     0.215 C 
HETATM   39  C23 UNL     1       4.351   6.645  10.365  1.00  0.00     0.042 C 
HETATM   40  C24 UNL     1       5.099   4.396  10.968  1.00  0.00     0.042 C 
ENDBRANCH  36  38
ENDBRANCH  12  30
TORSDOF 12
ENDMDL
MODEL 4
REMARK VINA RESULT: -7.520323642      1.664      2.328
REMARK  12 active torsions:
REMARK  status: ('A' for Active; 'I' for Inactive)
REMARK    1  A    between atoms: C2_2  and  N1_3 
REMARK    2  A    between atoms: N1_3  and  C3_4 
REMARK    3  A    between atoms: N1_3  and  C10_15 
REMARK    4  A    between atoms: C3_4  and  C4_5 
REMARK    5  A    between atoms: C4_5  and  C5_7 
REMARK    6  A    between atoms: C5_7  and  O2_8 
REMARK    7  A    between atoms: O2_8  and  C6_9 
REMARK    8  A    between atoms: C6_9  and  O4_11 
REMARK    9  A    between atoms: C10_15  and  O5_16 
REMARK   10  A    between atoms: C10_15  and  C11_18 
REMARK   11  A    between atoms: C18_29  and  C19_30 
REMARK       I    between atoms: C19_30  and  N3_32 
REMARK   12  A    between atoms: N4_35  and  C22_36 
ROOT
HETATM    1  C11 UNL     1       7.253   5.781  18.072  1.00  0.00     0.100 A 
HETATM    2  N2  UNL     1       8.262   5.025  18.528  1.00  0.00    -0.351 N 
ATOM      3  H2  UNL     1       8.866   5.279  19.309  1.00  0.00     0.166 HD
HETATM    4  C12 UNL     1       8.376   3.868  17.806  1.00  0.00     0.045 A 
HETATM    5  C13 UNL     1       9.264   2.809  17.922  1.00  0.00     0.056 A 
HETATM    6  C14 UNL     1       9.137   1.751  17.032  1.00  0.00     0.058 A 
HETATM    7 CL1  UNL     1      10.257   0.413  17.176  1.00  0.00    -0.082 Cl
HETATM    8  C15 UNL     1       8.170   1.741  16.067  1.00  0.00     0.056 A 
HETATM    9 CL2  UNL     1       8.048   0.377  14.960  1.00  0.00    -0.083 Cl
HETATM   10  C16 UNL     1       7.311   2.818  15.993  1.00  0.00     0.040 A 
HETATM   11  C17 UNL     1       7.397   3.902  16.860  1.00  0.00     0.010 A 
HETATM   12  C18 UNL     1       6.688   5.073  17.002  1.00  0.00     0.075 A 
ENDROOT
BRANCH   1  13
HETATM   13  C10 UNL     1       6.767   7.061  18.518  1.00  0.00     0.167 C 
BRANCH  13  14
HETATM   14  N1  UNL     1       5.720   7.395  19.369  1.00  0.00    -0.353 N 
BRANCH  14  15
HETATM   15  C2  UNL     1       4.466   7.970  18.996  1.00  0.00     0.121 C 
HETATM   16  C1  UNL     1       3.485   8.051  20.159  1.00  0.00     0.026 C 
ENDBRANCH  14  15
BRANCH  14  17
HETATM   17  C3  UNL     1       5.919   7.159  20.821  1.00  0.00     0.206 C 
BRANCH  17  18
HETATM   18  C4  UNL     1       6.995   7.984  21.383  1.00  0.00     0.179 C 
HETATM   19  O1  UNL     1       8.038   7.479  21.756  1.00  0.00    -0.293 OA
BRANCH  18  20
HETATM   20  C5  UNL     1       6.849   9.447  21.515  1.00  0.00     0.135 A 
HETATM   21  C8  UNL     1       7.463  10.177  22.651  1.00  0.00     0.050 A 
HETATM   22  C9  UNL     1       5.960   9.955  22.644  1.00  0.00     0.050 A 
BRANCH  20  23
HETATM   23  O2  UNL     1       6.854  10.186  20.286  1.00  0.00    -0.279 OA
BRANCH  23  24
HETATM   24  C6  UNL     1       8.051  10.751  19.866  1.00  0.00     0.407 C 
HETATM   25  O3  UNL     1       9.011   9.980  19.629  1.00  0.00    -0.229 OA
BRANCH  24  26
HETATM   26  O4  UNL     1       8.221  12.114  19.702  1.00  0.00    -0.303 OA
HETATM   27  C7  UNL     1       7.316  13.023  20.339  1.00  0.00     0.215 C 
ENDBRANCH  24  26
ENDBRANCH  23  24
ENDBRANCH  20  23
ENDBRANCH  18  20
ENDBRANCH  17  18
ENDBRANCH  14  17
ENDBRANCH  13  14
BRANCH  13  28
HETATM   28  O5  UNL     1       7.415   8.087  18.048  1.00  0.00    -0.344 OA
ATOM     29  H5  UNL     1       7.105   8.385  17.201  1.00  0.00     0.219 HD
ENDBRANCH  13  28
ENDBRANCH   1  13
BRANCH  12  30
HETATM   30  C19 UNL     1       5.568   5.471  16.180  1.00  0.00     0.257 C 
HETATM   31  O6  UNL     1       5.848   6.180  15.161  1.00  0.00    -0.267 OA
HETATM   32  N3  UNL     1       4.233   5.135  16.426  1.00  0.00    -0.344 N 
HETATM   33  C20 UNL     1       3.828   4.332  17.561  1.00  0.00     0.156 C 
HETATM   34  C26 UNL     1       3.180   5.585  15.539  1.00  0.00     0.156 C 
HETATM   35  C21 UNL     1       2.626   4.949  18.266  1.00  0.00     0.292 C 
HETATM   36  N4  UNL     1       1.610   5.337  17.309  1.00  0.00     0.095 N 
HETATM   37  C25 UNL     1       2.173   6.319  16.429  1.00  0.00     0.292 C 
BRANCH  36  38
HETATM   38  C22 UNL     1       0.460   5.808  18.040  1.00  0.00     0.215 C 
HETATM   39  C23 UNL     1       0.383   5.271  19.434  1.00  0.00     0.042 C 
HETATM   40  C24 UNL     1       0.360   7.304  18.074  1.00  0.00     0.042 C 
ENDBRANCH  36  38
ENDBRANCH  12  30
TORSDOF 12
ENDMDL
MODEL 5
REMARK VINA RESULT: -7.437453865      2.475      3.896
REMARK  12 active torsions:
REMARK  status: ('A' for Active; 'I' for Inactive)
REMARK    1  A    between atoms: C2_2  and  N1_3 
REMARK    2  A    between atoms: N1_3  and  C3_4 
REMARK    3  A    between atoms: N1_3  and  C10_15 
REMARK    4  A    between atoms: C3_4  and  C4_5 
REMARK    5  A    between atoms: C4_5  and  C5_7 
REMARK    6  A    between atoms: C5_7  and  O2_8 
REMARK    7  A    between atoms: O2_8  and  C6_9 
REMARK    8  A    between atoms: C6_9  and  O4_11 
REMARK    9  A    between atoms: C10_15  and  O5_16 
REMARK   10  A    between atoms: C10_15  and  C11_18 
REMARK   11  A    between atoms: C18_29  and  C19_30 
REMARK       I    between atoms: C19_30  and  N3_32 
REMARK   12  A    between atoms: N4_35  and  C22_36 
ROOT
HETATM    1  C11 UNL     1       6.654   5.627  18.000  1.00  0.00     0.100 A 
HETATM    2  N2  UNL     1       7.838   5.137  18.397  1.00  0.00    -0.351 N 
ATOM      3  H2  UNL     1       8.444   5.582  19.086  1.00  0.00     0.166 HD
HETATM    4  C12 UNL     1       8.125   3.962  17.757  1.00  0.00     0.045 A 
HETATM    5  C13 UNL     1       9.221   3.120  17.855  1.00  0.00     0.056 A 
HETATM    6  C14 UNL     1       9.238   1.976  17.067  1.00  0.00     0.058 A 
HETATM    7 CL1  UNL     1      10.622   0.911  17.188  1.00  0.00    -0.082 Cl
HETATM    8  C15 UNL     1       8.209   1.678  16.219  1.00  0.00     0.056 A 
HETATM    9 CL2  UNL     1       8.274   0.216  15.240  1.00  0.00    -0.083 Cl
HETATM   10  C16 UNL     1       7.140   2.547  16.159  1.00  0.00     0.040 A 
HETATM   11  C17 UNL     1       7.077   3.707  16.926  1.00  0.00     0.010 A 
HETATM   12  C18 UNL     1       6.154   4.719  17.056  1.00  0.00     0.075 A 
ENDROOT
BRANCH   1  13
HETATM   13  C10 UNL     1       5.954   6.820  18.399  1.00  0.00     0.167 C 
BRANCH  13  14
HETATM   14  N1  UNL     1       5.273   7.132  19.568  1.00  0.00    -0.353 N 
BRANCH  14  15
HETATM   15  C2  UNL     1       3.990   6.642  19.967  1.00  0.00     0.121 C 
HETATM   16  C1  UNL     1       4.062   5.273  20.632  1.00  0.00     0.026 C 
ENDBRANCH  14  15
BRANCH  14  17
HETATM   17  C3  UNL     1       5.918   8.091  20.499  1.00  0.00     0.206 C 
BRANCH  17  18
HETATM   18  C4  UNL     1       7.318   7.749  20.779  1.00  0.00     0.179 C 
HETATM   19  O1  UNL     1       7.615   6.660  21.233  1.00  0.00    -0.293 OA
BRANCH  18  20
HETATM   20  C5  UNL     1       8.408   8.711  20.520  1.00  0.00     0.135 A 
HETATM   21  C8  UNL     1       8.182   9.917  19.687  1.00  0.00     0.050 A 
HETATM   22  C9  UNL     1       8.969   8.757  19.103  1.00  0.00     0.050 A 
BRANCH  20  23
HETATM   23  O2  UNL     1       9.321   8.924  21.605  1.00  0.00    -0.279 OA
BRANCH  23  24
HETATM   24  C6  UNL     1       8.793   9.169  22.866  1.00  0.00     0.407 C 
HETATM   25  O3  UNL     1       8.269  10.288  23.075  1.00  0.00    -0.229 OA
BRANCH  24  26
HETATM   26  O4  UNL     1       8.822   8.234  23.885  1.00  0.00    -0.303 OA
HETATM   27  C7  UNL     1       9.475   8.551  25.119  1.00  0.00     0.215 C 
ENDBRANCH  24  26
ENDBRANCH  23  24
ENDBRANCH  20  23
ENDBRANCH  18  20
ENDBRANCH  17  18
ENDBRANCH  14  17
ENDBRANCH  13  14
BRANCH  13  28
HETATM   28  O5  UNL     1       5.956   7.777  17.515  1.00  0.00    -0.344 OA
ATOM     29  H5  UNL     1       5.093   7.997  17.182  1.00  0.00     0.219 HD
ENDBRANCH  13  28
ENDBRANCH   1  13
BRANCH  12  30
HETATM   30  C19 UNL     1       4.904   4.801  16.336  1.00  0.00     0.257 C 
HETATM   31  O6  UNL     1       3.866   4.433  16.975  1.00  0.00    -0.267 OA
HETATM   32  N3  UNL     1       4.765   5.248  15.018  1.00  0.00    -0.344 N 
HETATM   33  C20 UNL     1       5.891   5.686  14.221  1.00  0.00     0.156 C 
HETATM   34  C26 UNL     1       3.464   5.293  14.384  1.00  0.00     0.156 C 
HETATM   35  C21 UNL     1       5.846   5.074  12.826  1.00  0.00     0.292 C 
HETATM   36  N4  UNL     1       4.520   5.193  12.254  1.00  0.00     0.095 N 
HETATM   37  C25 UNL     1       3.602   4.480  13.094  1.00  0.00     0.292 C 
BRANCH  36  38
HETATM   38  C22 UNL     1       4.567   4.700  10.901  1.00  0.00     0.215 C 
HETATM   39  C23 UNL     1       4.832   5.770   9.889  1.00  0.00     0.042 C 
HETATM   40  C24 UNL     1       5.552   3.584  10.718  1.00  0.00     0.042 C 
ENDBRANCH  36  38
ENDBRANCH  12  30
TORSDOF 12
ENDMDL
