MODEL 1
REMARK VINA RESULT: -6.486373699      0.000      0.000
REMARK  9 active torsions:
REMARK  status: ('A' for Active; 'I' for Inactive)
REMARK    1  A    between atoms: C2_2  and  C3_3 
REMARK    2  A    between atoms: C4_5  and  N1_6 
REMARK       I    between atoms: N1_6  and  C5_8 
REMARK    3  A    between atoms: C5_8  and  C6_10 
REMARK    4  A    between atoms: C6_10  and  N2_11 
REMARK    5  A    between atoms: N2_11  and  C7_12 
REMARK    6  A    between atoms: N2_11  and  C9_14 
REMARK    7  A    between atoms: C11_17  and  C12_18 
REMARK    8  A    between atoms: C15_22  and  O3_23 
REMARK    9  A    between atoms: O3_23  and  C16_24 
REMARK       I    between atoms: C16_24  and  N3_26 
ROOT
HETATM    1  C3  UNL     1       7.817   3.170  17.048  1.00  0.00     0.073 A 
HETATM    2  O1  UNL     1       7.709   2.531  15.953  1.00  0.00    -0.290 OA
HETATM    3  C4  UNL     1       6.836   2.815  15.071  1.00  0.00     0.195 A 
HETATM    4  S1  UNL     1       6.029   4.124  15.791  1.00  0.00    -0.043 SA
HETATM    5  C11 UNL     1       6.955   4.198  17.280  1.00  0.00     0.049 A 
ENDROOT
BRANCH   5   6
HETATM    6  C12 UNL     1       6.735   5.172  18.329  1.00  0.00    -0.014 A 
HETATM    7  C13 UNL     1       7.546   6.307  18.294  1.00  0.00     0.035 A 
HETATM    8  C14 UNL     1       7.419   7.313  19.208  1.00  0.00     0.047 A 
HETATM    9 BR1  UNL     1       8.558   8.827  19.102  1.00  0.00    -0.048 Br
HETATM   10  C15 UNL     1       6.463   7.207  20.194  1.00  0.00     0.115 A 
HETATM   11  C19 UNL     1       5.642   6.106  20.263  1.00  0.00     0.047 A 
HETATM   12 BR2  UNL     1       4.306   5.926  21.619  1.00  0.00    -0.048 Br
HETATM   13  C20 UNL     1       5.806   5.091  19.301  1.00  0.00     0.035 A 
BRANCH  10  14
HETATM   14  O3  UNL     1       6.307   8.227  21.151  1.00  0.00    -0.259 OA
BRANCH  14  15
HETATM   15  C16 UNL     1       7.039   8.195  22.333  1.00  0.00     0.367 C 
HETATM   16  O4  UNL     1       8.071   7.472  22.345  1.00  0.00    -0.238 OA
HETATM   17  N3  UNL     1       6.651   8.936  23.478  1.00  0.00    -0.336 N 
HETATM   18  C17 UNL     1       7.431   8.873  24.677  1.00  0.00     0.154 C 
HETATM   19  C18 UNL     1       5.461   9.756  23.418  1.00  0.00     0.154 C 
ENDBRANCH  14  15
ENDBRANCH  10  14
ENDBRANCH   5   6
BRANCH   1  20
HETATM   20  C2  UNL     1       8.901   2.753  18.033  1.00  0.00     0.062 C 
HETATM   21  C1  UNL     1       9.257   1.296  17.879  1.00  0.00     0.012 C 
ENDBRANCH   1  20
BRANCH   3  22
HETATM   22  N1  UNL     1       6.626   2.234  13.907  1.00  0.00    -0.297 N 
HETATM   23  C5  UNL     1       5.504   1.395  13.805  1.00  0.00     0.262 C 
HETATM   24  O2  UNL     1       5.144   0.713  14.792  1.00  0.00    -0.267 OA
ATOM     25  H1  UNL     1       7.250   2.388  13.116  1.00  0.00     0.171 HD
BRANCH  23  26
HETATM   26  C6  UNL     1       4.740   1.301  12.553  1.00  0.00     0.160 C 
BRANCH  26  27
HETATM   27  N2  UNL     1       5.454   1.020  11.371  1.00  0.00    -0.386 N 
BRANCH  27  28
HETATM   28  C7  UNL     1       5.820  -0.323  11.139  1.00  0.00     0.118 C 
HETATM   29  C8  UNL     1       5.370  -0.834   9.773  1.00  0.00     0.026 C 
ENDBRANCH  27  28
BRANCH  27  30
HETATM   30  C9  UNL     1       5.084   1.718  10.192  1.00  0.00     0.118 C 
HETATM   31  C10 UNL     1       5.817   3.028  10.018  1.00  0.00     0.026 C 
ENDBRANCH  27  30
ENDBRANCH  26  27
ENDBRANCH  23  26
ENDBRANCH   3  22
TORSDOF 9
ENDMDL
MODEL 2
REMARK VINA RESULT: -6.438679004      3.142     10.714
REMARK  9 active torsions:
REMARK  status: ('A' for Active; 'I' for Inactive)
REMARK    1  A    between atoms: C2_2  and  C3_3 
REMARK    2  A    between atoms: C4_5  and  N1_6 
REMARK       I    between atoms: N1_6  and  C5_8 
REMARK    3  A    between atoms: C5_8  and  C6_10 
REMARK    4  A    between atoms: C6_10  and  N2_11 
REMARK    5  A    between atoms: N2_11  and  C7_12 
REMARK    6  A    between atoms: N2_11  and  C9_14 
REMARK    7  A    between atoms: C11_17  and  C12_18 
REMARK    8  A    between atoms: C15_22  and  O3_23 
REMARK    9  A    between atoms: O3_23  and  C16_24 
REMARK       I    between atoms: C16_24  and  N3_26 
ROOT
HETATM    1  C3  UNL     1       8.025   8.828  19.632  1.00  0.00     0.073 A 
HETATM    2  O1  UNL     1       8.431   9.490  20.639  1.00  0.00    -0.290 OA
HETATM    3  C4  UNL     1       8.385   9.037  21.828  1.00  0.00     0.195 A 
HETATM    4  S1  UNL     1       7.703   7.501  21.587  1.00  0.00    -0.043 SA
HETATM    5  C11 UNL     1       7.519   7.582  19.843  1.00  0.00     0.049 A 
ENDROOT
BRANCH   5   6
HETATM    6  C12 UNL     1       6.988   6.508  19.028  1.00  0.00    -0.014 A 
HETATM    7  C13 UNL     1       7.870   5.470  18.727  1.00  0.00     0.035 A 
HETATM    8  C14 UNL     1       7.484   4.386  17.993  1.00  0.00     0.047 A 
HETATM    9 BR1  UNL     1       8.737   3.011  17.618  1.00  0.00    -0.048 Br
HETATM   10  C15 UNL     1       6.187   4.312  17.536  1.00  0.00     0.115 A 
HETATM   11  C19 UNL     1       5.285   5.313  17.812  1.00  0.00     0.047 A 
HETATM   12 BR2  UNL     1       3.478   5.244  17.192  1.00  0.00    -0.048 Br
HETATM   13  C20 UNL     1       5.723   6.414  18.572  1.00  0.00     0.035 A 
BRANCH  10  14
HETATM   14  O3  UNL     1       5.758   3.208  16.777  1.00  0.00    -0.259 OA
BRANCH  14  15
HETATM   15  C16 UNL     1       5.833   3.241  15.388  1.00  0.00     0.367 C 
HETATM   16  O4  UNL     1       6.445   4.216  14.874  1.00  0.00    -0.238 OA
HETATM   17  N3  UNL     1       5.251   2.234  14.579  1.00  0.00    -0.336 N 
HETATM   18  C17 UNL     1       5.347   2.308  13.152  1.00  0.00     0.154 C 
HETATM   19  C18 UNL     1       4.560   1.132  15.212  1.00  0.00     0.154 C 
ENDBRANCH  14  15
ENDBRANCH  10  14
ENDBRANCH   5   6
BRANCH   1  20
HETATM   20  C2  UNL     1       8.130   9.461  18.250  1.00  0.00     0.062 C 
HETATM   21  C1  UNL     1       6.780   9.893  17.737  1.00  0.00     0.012 C 
ENDBRANCH   1  20
BRANCH   3  22
HETATM   22  N1  UNL     1       8.771   9.620  22.944  1.00  0.00    -0.297 N 
HETATM   23  C5  UNL     1       8.995   8.790  24.055  1.00  0.00     0.262 C 
HETATM   24  O2  UNL     1       8.285   7.773  24.226  1.00  0.00    -0.267 OA
ATOM     25  H1  UNL     1       8.901  10.630  22.999  1.00  0.00     0.171 HD
BRANCH  23  26
HETATM   26  C6  UNL     1      10.053   9.096  25.027  1.00  0.00     0.160 C 
BRANCH  26  27
HETATM   27  N2  UNL     1      10.950   8.063  25.365  1.00  0.00    -0.386 N 
BRANCH  27  28
HETATM   28  C7  UNL     1      12.257   8.141  24.841  1.00  0.00     0.118 C 
HETATM   29  C8  UNL     1      13.310   7.559  25.780  1.00  0.00     0.026 C 
ENDBRANCH  27  28
BRANCH  27  30
HETATM   30  C9  UNL     1      10.900   7.547  26.687  1.00  0.00     0.118 C 
HETATM   31  C10 UNL     1       9.880   6.445  26.860  1.00  0.00     0.026 C 
ENDBRANCH  27  30
ENDBRANCH  26  27
ENDBRANCH  23  26
ENDBRANCH   3  22
TORSDOF 9
ENDMDL
MODEL 3
REMARK VINA RESULT: -6.402380817      1.000      1.377
REMARK  9 active torsions:
REMARK  status: ('A' for Active; 'I' for Inactive)
REMARK    1  A    between atoms: C2_2  and  C3_3 
REMARK    2  A    between atoms: C4_5  and  N1_6 
REMARK       I    between atoms: N1_6  and  C5_8 
REMARK    3  A    between atoms: C5_8  and  C6_10 
REMARK    4  A    between atoms: C6_10  and  N2_11 
REMARK    5  A    between atoms: N2_11  and  C7_12 
REMARK    6  A    between atoms: N2_11  and  C9_14 
REMARK    7  A    between atoms: C11_17  and  C12_18 
REMARK    8  A    between atoms: C15_22  and  O3_23 
REMARK    9  A    between atoms: O3_23  and  C16_24 
REMARK       I    between atoms: C16_24  and  N3_26 
ROOT
HETATM    1  C3  UNL     1       7.428   2.793  17.265  1.00  0.00     0.073 A 
HETATM    2  O1  UNL     1       7.391   2.182  16.150  1.00  0.00    -0.290 OA
HETATM    3  C4  UNL     1       6.814   2.658  15.120  1.00  0.00     0.195 A 
HETATM    4  S1  UNL     1       6.225   4.139  15.706  1.00  0.00    -0.043 SA
HETATM    5  C11 UNL     1       6.818   4.007  17.353  1.00  0.00     0.049 A 
ENDROOT
BRANCH   5   6
HETATM    6  C12 UNL     1       6.636   5.024  18.369  1.00  0.00    -0.014 A 
HETATM    7  C13 UNL     1       7.483   6.131  18.289  1.00  0.00     0.035 A 
HETATM    8  C14 UNL     1       7.394   7.171  19.168  1.00  0.00     0.047 A 
HETATM    9 BR1  UNL     1       8.579   8.644  19.002  1.00  0.00    -0.048 Br
HETATM   10  C15 UNL     1       6.442   7.131  20.162  1.00  0.00     0.115 A 
HETATM   11  C19 UNL     1       5.587   6.059  20.275  1.00  0.00     0.047 A 
HETATM   12 BR2  UNL     1       4.256   5.969  21.644  1.00  0.00    -0.048 Br
HETATM   13  C20 UNL     1       5.712   5.007  19.349  1.00  0.00     0.035 A 
BRANCH  10  14
HETATM   14  O3  UNL     1       6.325   8.188  21.084  1.00  0.00    -0.259 OA
BRANCH  14  15
HETATM   15  C16 UNL     1       7.049   8.165  22.271  1.00  0.00     0.367 C 
HETATM   16  O4  UNL     1       8.071   7.428  22.301  1.00  0.00    -0.238 OA
HETATM   17  N3  UNL     1       6.664   8.928  23.402  1.00  0.00    -0.336 N 
HETATM   18  C17 UNL     1       7.435   8.873  24.608  1.00  0.00     0.154 C 
HETATM   19  C18 UNL     1       5.485   9.762  23.322  1.00  0.00     0.154 C 
ENDBRANCH  14  15
ENDBRANCH  10  14
ENDBRANCH   5   6
BRANCH   1  20
HETATM   20  C2  UNL     1       8.152   2.138  18.435  1.00  0.00     0.062 C 
HETATM   21  C1  UNL     1       9.238   1.207  17.959  1.00  0.00     0.012 C 
ENDBRANCH   1  20
BRANCH   3  22
HETATM   22  N1  UNL     1       6.708   2.127  13.919  1.00  0.00    -0.297 N 
HETATM   23  C5  UNL     1       5.418   1.788  13.481  1.00  0.00     0.262 C 
HETATM   24  O2  UNL     1       4.571   1.371  14.304  1.00  0.00    -0.267 OA
ATOM     25  H1  UNL     1       7.528   1.970  13.333  1.00  0.00     0.171 HD
BRANCH  23  26
HETATM   26  C6  UNL     1       5.040   1.914  12.067  1.00  0.00     0.160 C 
BRANCH  26  27
HETATM   27  N2  UNL     1       5.400   3.100  11.397  1.00  0.00    -0.386 N 
BRANCH  27  28
HETATM   28  C7  UNL     1       5.844   2.983  10.063  1.00  0.00     0.118 C 
HETATM   29  C8  UNL     1       4.721   3.155   9.045  1.00  0.00     0.026 C 
ENDBRANCH  27  28
BRANCH  27  30
HETATM   30  C9  UNL     1       4.614   4.259  11.632  1.00  0.00     0.118 C 
HETATM   31  C10 UNL     1       5.396   5.394  12.253  1.00  0.00     0.026 C 
ENDBRANCH  27  30
ENDBRANCH  26  27
ENDBRANCH  23  26
ENDBRANCH   3  22
TORSDOF 9
ENDMDL
MODEL 4
REMARK VINA RESULT: -6.364203498      0.355      1.231
REMARK  9 active torsions:
REMARK  status: ('A' for Active; 'I' for Inactive)
REMARK    1  A    between atoms: C2_2  and  C3_3 
REMARK    2  A    between atoms: C4_5  and  N1_6 
REMARK       I    between atoms: N1_6  and  C5_8 
REMARK    3  A    between atoms: C5_8  and  C6_10 
REMARK    4  A    between atoms: C6_10  and  N2_11 
REMARK    5  A    between atoms: N2_11  and  C7_12 
REMARK    6  A    between atoms: N2_11  and  C9_14 
REMARK    7  A    between atoms: C11_17  and  C12_18 
REMARK    8  A    between atoms: C15_22  and  O3_23 
REMARK    9  A    between atoms: O3_23  and  C16_24 
REMARK       I    between atoms: C16_24  and  N3_26 
ROOT
HETATM    1  C3  UNL     1       7.795   3.304  16.991  1.00  0.00     0.073 A 
HETATM    2  O1  UNL     1       7.656   2.682  15.890  1.00  0.00    -0.290 OA
HETATM    3  C4  UNL     1       6.735   2.955  15.054  1.00  0.00     0.195 A 
HETATM    4  S1  UNL     1       5.924   4.226  15.834  1.00  0.00    -0.043 SA
HETATM    5  C11 UNL     1       6.915   4.302  17.280  1.00  0.00     0.049 A 
ENDROOT
BRANCH   5   6
HETATM    6  C12 UNL     1       6.716   5.251  18.357  1.00  0.00    -0.014 A 
HETATM    7  C13 UNL     1       7.524   6.389  18.331  1.00  0.00     0.035 A 
HETATM    8  C14 UNL     1       7.414   7.372  19.270  1.00  0.00     0.047 A 
HETATM    9 BR1  UNL     1       8.547   8.892  19.176  1.00  0.00    -0.048 Br
HETATM   10  C15 UNL     1       6.479   7.242  20.273  1.00  0.00     0.115 A 
HETATM   11  C19 UNL     1       5.663   6.137  20.335  1.00  0.00     0.047 A 
HETATM   12 BR2  UNL     1       4.356   5.922  21.714  1.00  0.00    -0.048 Br
HETATM   13  C20 UNL     1       5.808   5.145  19.346  1.00  0.00     0.035 A 
BRANCH  10  14
HETATM   14  O3  UNL     1       6.342   8.239  21.257  1.00  0.00    -0.259 OA
BRANCH  14  15
HETATM   15  C16 UNL     1       7.116   8.195  22.411  1.00  0.00     0.367 C 
HETATM   16  O4  UNL     1       8.163   7.494  22.369  1.00  0.00    -0.238 OA
HETATM   17  N3  UNL     1       6.755   8.899  23.587  1.00  0.00    -0.336 N 
HETATM   18  C17 UNL     1       7.579   8.825  24.756  1.00  0.00     0.154 C 
HETATM   19  C18 UNL     1       5.546   9.694  23.590  1.00  0.00     0.154 C 
ENDBRANCH  14  15
ENDBRANCH  10  14
ENDBRANCH   5   6
BRANCH   1  20
HETATM   20  C2  UNL     1       8.935   2.903  17.918  1.00  0.00     0.062 C 
HETATM   21  C1  UNL     1       9.209   1.422  17.848  1.00  0.00     0.012 C 
ENDBRANCH   1  20
BRANCH   3  22
HETATM   22  N1  UNL     1       6.489   2.388  13.891  1.00  0.00    -0.297 N 
HETATM   23  C5  UNL     1       5.311   1.630  13.785  1.00  0.00     0.262 C 
HETATM   24  O2  UNL     1       4.900   0.977  14.772  1.00  0.00    -0.267 OA
ATOM     25  H1  UNL     1       7.125   2.495  13.101  1.00  0.00     0.171 HD
BRANCH  23  26
HETATM   26  C6  UNL     1       4.547   1.588  12.531  1.00  0.00     0.160 C 
BRANCH  26  27
HETATM   27  N2  UNL     1       5.022   0.750  11.504  1.00  0.00    -0.386 N 
BRANCH  27  28
HETATM   28  C7  UNL     1       5.420   1.363  10.297  1.00  0.00     0.118 C 
HETATM   29  C8  UNL     1       5.612   2.871  10.431  1.00  0.00     0.026 C 
ENDBRANCH  27  28
BRANCH  27  30
HETATM   30  C9  UNL     1       5.837  -0.354  11.872  1.00  0.00     0.118 C 
HETATM   31  C10 UNL     1       6.209  -1.238  10.704  1.00  0.00     0.026 C 
ENDBRANCH  27  30
ENDBRANCH  26  27
ENDBRANCH  23  26
ENDBRANCH   3  22
TORSDOF 9
ENDMDL
MODEL 5
REMARK VINA RESULT: -6.265106255      0.214      1.719
REMARK  9 active torsions:
REMARK  status: ('A' for Active; 'I' for Inactive)
REMARK    1  A    between atoms: C2_2  and  C3_3 
REMARK    2  A    between atoms: C4_5  and  N1_6 
REMARK       I    between atoms: N1_6  and  C5_8 
REMARK    3  A    between atoms: C5_8  and  C6_10 
REMARK    4  A    between atoms: C6_10  and  N2_11 
REMARK    5  A    between atoms: N2_11  and  C7_12 
REMARK    6  A    between atoms: N2_11  and  C9_14 
REMARK    7  A    between atoms: C11_17  and  C12_18 
REMARK    8  A    between atoms: C15_22  and  O3_23 
REMARK    9  A    between atoms: O3_23  and  C16_24 
REMARK       I    between atoms: C16_24  and  N3_26 
ROOT
HETATM    1  C3  UNL     1       7.853   3.271  16.995  1.00  0.00     0.073 A 
HETATM    2  O1  UNL     1       7.737   2.589  15.927  1.00  0.00    -0.290 OA
HETATM    3  C4  UNL     1       6.884   2.862  15.023  1.00  0.00     0.195 A 
HETATM    4  S1  UNL     1       6.113   4.227  15.673  1.00  0.00    -0.043 SA
HETATM    5  C11 UNL     1       7.023   4.336  17.169  1.00  0.00     0.049 A 
ENDROOT
BRANCH   5   6
HETATM    6  C12 UNL     1       6.824   5.363  18.172  1.00  0.00    -0.014 A 
HETATM    7  C13 UNL     1       5.866   5.092  19.149  1.00  0.00     0.035 A 
HETATM    8  C14 UNL     1       5.605   5.964  20.166  1.00  0.00     0.047 A 
HETATM    9 BR1  UNL     1       4.285   5.531  21.459  1.00  0.00    -0.048 Br
HETATM   10  C15 UNL     1       6.307   7.147  20.232  1.00  0.00     0.115 A 
HETATM   11  C19 UNL     1       7.261   7.453  19.290  1.00  0.00     0.047 A 
HETATM   12 BR2  UNL     1       8.254   9.086  19.351  1.00  0.00    -0.048 Br
HETATM   13  C20 UNL     1       7.500   6.526  18.258  1.00  0.00     0.035 A 
BRANCH  10  14
HETATM   14  O3  UNL     1       6.061   8.067  21.268  1.00  0.00    -0.259 OA
BRANCH  14  15
HETATM   15  C16 UNL     1       6.886   8.098  22.387  1.00  0.00     0.367 C 
HETATM   16  O4  UNL     1       7.908   7.360  22.362  1.00  0.00    -0.238 OA
HETATM   17  N3  UNL     1       6.600   8.913  23.510  1.00  0.00    -0.336 N 
HETATM   18  C17 UNL     1       7.474   8.913  24.646  1.00  0.00     0.154 C 
HETATM   19  C18 UNL     1       5.417   9.746  23.494  1.00  0.00     0.154 C 
ENDBRANCH  14  15
ENDBRANCH  10  14
ENDBRANCH   5   6
BRANCH   1  20
HETATM   20  C2  UNL     1       8.911   2.863  18.012  1.00  0.00     0.062 C 
HETATM   21  C1  UNL     1       9.637   1.613  17.583  1.00  0.00     0.012 C 
ENDBRANCH   1  20
BRANCH   3  22
HETATM   22  N1  UNL     1       6.668   2.237  13.883  1.00  0.00    -0.297 N 
HETATM   23  C5  UNL     1       5.535   1.411  13.811  1.00  0.00     0.262 C 
HETATM   24  O2  UNL     1       5.163   0.775  14.824  1.00  0.00    -0.267 OA
ATOM     25  H1  UNL     1       7.297   2.348  13.088  1.00  0.00     0.171 HD
BRANCH  23  26
HETATM   26  C6  UNL     1       4.773   1.276  12.562  1.00  0.00     0.160 C 
BRANCH  26  27
HETATM   27  N2  UNL     1       5.484   0.935  11.396  1.00  0.00    -0.386 N 
BRANCH  27  28
HETATM   28  C7  UNL     1       5.803  -0.426  11.205  1.00  0.00     0.118 C 
HETATM   29  C8  UNL     1       5.504  -0.915   9.790  1.00  0.00     0.026 C 
ENDBRANCH  27  28
BRANCH  27  30
HETATM   30  C9  UNL     1       5.149   1.612  10.193  1.00  0.00     0.118 C 
HETATM   31  C10 UNL     1       5.793   2.975  10.076  1.00  0.00     0.026 C 
ENDBRANCH  27  30
ENDBRANCH  26  27
ENDBRANCH  23  26
ENDBRANCH   3  22
TORSDOF 9
ENDMDL
