MODEL 1
REMARK VINA RESULT: -10.241467103      0.000      0.000
REMARK  11 active torsions:
REMARK  status: ('A' for Active; 'I' for Inactive)
REMARK    1  A    between atoms: C2_2  and  N1_3 
REMARK    2  A    between atoms: C2_2  and  C4_10 
REMARK    3  A    between atoms: N1_3  and  N2_5 
REMARK       I    between atoms: N2_5  and  C3_7 
REMARK    4  A    between atoms: C5_13  and  N6_14 
REMARK    5  A    between atoms: C6_19  and  C7_20 
REMARK    6  A    between atoms: C7_20  and  N9_21 
REMARK    7  A    between atoms: C9_25  and  O1_26 
REMARK    8  A    between atoms: C10_30  and  N12_31 
REMARK    9  A    between atoms: C12_40  and  O3_41 
REMARK   10  A    between atoms: O3_41  and  N15_42 
REMARK   11  A    between atoms: N15_42  and  N16_43 
ROOT
HETATM    1  N6  UNL     1      86.755  51.640   2.606  1.00  0.00    -0.139 N 
HETATM    2  N7  UNL     1      86.687  52.424   1.550  1.00  0.00    -0.216 N 
ATOM      3  H7  UNL     1      85.975  52.357   0.822  1.00  0.00     0.210 HD
HETATM    4  N8  UNL     1      87.666  53.310   1.564  1.00  0.00    -0.270 N 
ATOM      5  H8  UNL     1      87.840  54.032   0.864  1.00  0.00     0.190 HD
HETATM    6  C6  UNL     1      88.383  53.087   2.659  1.00  0.00     0.133 A 
HETATM    7  N14 UNL     1      87.799  52.035   3.304  1.00  0.00    -0.260 N 
ATOM      8  H14 UNL     1      88.119  51.624   4.181  1.00  0.00     0.190 HD
ENDROOT
BRANCH   1   9
HETATM    9  C5  UNL     1      85.887  50.554   2.970  1.00  0.00     0.270 A 
HETATM   10  N5  UNL     1      85.772  49.405   2.296  1.00  0.00    -0.313 N 
HETATM   11  C4  UNL     1      84.851  48.587   2.922  1.00  0.00     0.120 A 
ATOM     12  H5  UNL     1      86.286  49.169   1.447  1.00  0.00     0.170 HD
HETATM   13  C12 UNL     1      84.429  49.296   3.994  1.00  0.00     0.240 A 
HETATM   14  O2  UNL     1      85.079  50.462   3.972  1.00  0.00    -0.249 OA
BRANCH  11  15
HETATM   15  C2  UNL     1      84.455  47.301   2.412  1.00  0.00     0.053 C 
HETATM   16  C1  UNL     1      85.198  46.767   1.166  1.00  0.00     0.072 C 
BRANCH  15  17
HETATM   17  N1  UNL     1      83.602  46.527   2.837  1.00  0.00    -0.301 N 
ATOM     18  H1  UNL     1      83.872  45.579   2.577  1.00  0.00     0.186 HD
BRANCH  17  19
HETATM   19  N2  UNL     1      82.475  46.464   3.501  1.00  0.00    -0.276 N 
HETATM   20  C3  UNL     1      81.289  46.857   3.173  1.00  0.00     0.215 C 
HETATM   21  N3  UNL     1      80.253  46.639   4.140  1.00  0.00    -0.065 NA
HETATM   22  N4  UNL     1      81.016  47.476   1.917  1.00  0.00    -0.065 NA
ATOM     23  H2  UNL     1      82.544  46.036   4.424  1.00  0.00     0.189 HD
ENDBRANCH  17  19
ENDBRANCH  15  17
ENDBRANCH  11  15
BRANCH  13  24
HETATM   24  O3  UNL     1      83.496  48.957   5.000  1.00  0.00    -0.196 OA
BRANCH  24  25
HETATM   25  N15 UNL     1      82.510  49.885   5.340  1.00  0.00     0.021 NA
BRANCH  25  26
HETATM   26  N16 UNL     1      81.478  49.858   4.373  1.00  0.00    -0.322 N 
ATOM     27 2H16 UNL     1      81.282  49.065   3.762  1.00  0.00     0.174 HD
ATOM     28 1H16 UNL     1      80.972  50.744   4.386  1.00  0.00     0.174 HD
ENDBRANCH  25  26
ENDBRANCH  24  25
ENDBRANCH  13  24
ENDBRANCH   1   9
BRANCH   6  29
HETATM   29  C7  UNL     1      89.590  53.831   3.106  1.00  0.00     0.230 C 
BRANCH  29  30
HETATM   30  N9  UNL     1      89.151  55.113   3.655  1.00  0.00    -0.266 N 
HETATM   31  N10 UNL     1      89.698  56.296   3.773  1.00  0.00    -0.289 N 
HETATM   32  C8  UNL     1      88.616  56.802   4.362  1.00  0.00     0.146 A 
ATOM     33  H10 UNL     1      90.605  56.683   3.513  1.00  0.00     0.187 HD
HETATM   34  C9  UNL     1      87.943  57.862   4.943  1.00  0.00     0.187 A 
HETATM   35  C11 UNL     1      88.046  55.556   4.235  1.00  0.00     0.171 A 
HETATM   36  N11 UNL     1      86.699  57.646   5.390  1.00  0.00    -0.168 N 
HETATM   37  C10 UNL     1      86.141  56.424   5.267  1.00  0.00     0.679 A 
ATOM     38  H11 UNL     1      86.174  58.405   5.825  1.00  0.00     0.186 HD
HETATM   39  N13 UNL     1      86.790  55.383   4.700  1.00  0.00    -0.173 N 
ATOM     40  H13 UNL     1      86.334  54.473   4.623  1.00  0.00     0.186 HD
BRANCH  34  41
HETATM   41  O1  UNL     1      88.573  59.086   5.038  1.00  0.00    -0.344 OA
ATOM     42  H1  UNL     1      88.046  59.873   5.110  1.00  0.00     0.219 HD
ENDBRANCH  34  41
BRANCH  37  43
HETATM   43  N12 UNL     1      84.929  56.213   5.702  1.00  0.00    -0.234 N 
ATOM     44 2H12 UNL     1      84.732  55.307   6.128  1.00  0.00     0.174 HD
ATOM     45 1H12 UNL     1      84.220  56.941   5.610  1.00  0.00     0.174 HD
ENDBRANCH  37  43
ENDBRANCH  29  30
ENDBRANCH   6  29
TORSDOF 11
ENDMDL
MODEL 2
REMARK VINA RESULT: -10.059512725      1.746      2.370
REMARK  11 active torsions:
REMARK  status: ('A' for Active; 'I' for Inactive)
REMARK    1  A    between atoms: C2_2  and  N1_3 
REMARK    2  A    between atoms: C2_2  and  C4_10 
REMARK    3  A    between atoms: N1_3  and  N2_5 
REMARK       I    between atoms: N2_5  and  C3_7 
REMARK    4  A    between atoms: C5_13  and  N6_14 
REMARK    5  A    between atoms: C6_19  and  C7_20 
REMARK    6  A    between atoms: C7_20  and  N9_21 
REMARK    7  A    between atoms: C9_25  and  O1_26 
REMARK    8  A    between atoms: C10_30  and  N12_31 
REMARK    9  A    between atoms: C12_40  and  O3_41 
REMARK   10  A    between atoms: O3_41  and  N15_42 
REMARK   11  A    between atoms: N15_42  and  N16_43 
ROOT
HETATM    1  N6  UNL     1      87.392  52.281   3.512  1.00  0.00    -0.139 N 
HETATM    2  N7  UNL     1      88.641  52.358   3.102  1.00  0.00    -0.216 N 
ATOM      3  H7  UNL     1      89.168  51.583   2.699  1.00  0.00     0.210 HD
HETATM    4  N8  UNL     1      89.117  53.577   3.284  1.00  0.00    -0.270 N 
ATOM      5  H8  UNL     1      90.056  53.901   3.052  1.00  0.00     0.190 HD
HETATM    6  C6  UNL     1      88.146  54.301   3.826  1.00  0.00     0.133 A 
HETATM    7  N14 UNL     1      87.067  53.475   3.964  1.00  0.00    -0.260 N 
ATOM      8  H14 UNL     1      86.162  53.739   4.352  1.00  0.00     0.190 HD
ENDROOT
BRANCH   1   9
HETATM    9  C5  UNL     1      86.512  51.145   3.491  1.00  0.00     0.270 A 
HETATM   10  N5  UNL     1      86.451  50.240   2.509  1.00  0.00    -0.313 N 
HETATM   11  C4  UNL     1      85.499  49.285   2.812  1.00  0.00     0.120 A 
ATOM     12  H5  UNL     1      87.022  50.254   1.662  1.00  0.00     0.170 HD
HETATM   13  C12 UNL     1      85.003  49.660   4.013  1.00  0.00     0.240 A 
HETATM   14  O2  UNL     1      85.642  50.776   4.369  1.00  0.00    -0.249 OA
BRANCH  11  15
HETATM   15  C2  UNL     1      85.150  48.205   1.928  1.00  0.00     0.053 C 
HETATM   16  C1  UNL     1      85.711  48.248   0.488  1.00  0.00     0.072 C 
BRANCH  15  17
HETATM   17  N1  UNL     1      84.466  47.210   2.153  1.00  0.00    -0.301 N 
ATOM     18  H1  UNL     1      84.644  46.527   1.417  1.00  0.00     0.186 HD
BRANCH  17  19
HETATM   19  N2  UNL     1      83.593  46.698   2.984  1.00  0.00    -0.276 N 
HETATM   20  C3  UNL     1      82.302  46.706   2.950  1.00  0.00     0.215 C 
HETATM   21  N3  UNL     1      81.630  46.045   4.031  1.00  0.00    -0.065 NA
HETATM   22  N4  UNL     1      81.575  47.336   1.897  1.00  0.00    -0.065 NA
ATOM     23  H2  UNL     1      83.998  46.217   3.788  1.00  0.00     0.189 HD
ENDBRANCH  17  19
ENDBRANCH  15  17
ENDBRANCH  11  15
BRANCH  13  24
HETATM   24  O3  UNL     1      84.009  49.055   4.816  1.00  0.00    -0.196 OA
BRANCH  24  25
HETATM   25  N15 UNL     1      82.913  49.820   5.216  1.00  0.00     0.021 NA
BRANCH  25  26
HETATM   26  N16 UNL     1      81.954  49.858   4.178  1.00  0.00    -0.322 N 
ATOM     27 2H16 UNL     1      80.985  49.553   4.277  1.00  0.00     0.174 HD
ATOM     28 1H16 UNL     1      82.380  50.231   3.329  1.00  0.00     0.174 HD
ENDBRANCH  25  26
ENDBRANCH  24  25
ENDBRANCH  13  24
ENDBRANCH   1   9
BRANCH   6  29
HETATM   29  C7  UNL     1      88.209  55.735   4.214  1.00  0.00     0.230 C 
BRANCH  29  30
HETATM   30  N9  UNL     1      86.874  56.143   4.649  1.00  0.00    -0.266 N 
HETATM   31  N10 UNL     1      85.793  56.550   4.034  1.00  0.00    -0.289 N 
HETATM   32  C8  UNL     1      85.123  56.683   5.176  1.00  0.00     0.146 A 
ATOM     33  H10 UNL     1      85.555  56.705   3.054  1.00  0.00     0.187 HD
HETATM   34  C9  UNL     1      83.969  57.012   5.867  1.00  0.00     0.187 A 
HETATM   35  C11 UNL     1      86.262  56.256   5.818  1.00  0.00     0.171 A 
HETATM   36  N11 UNL     1      83.985  56.903   7.201  1.00  0.00    -0.168 N 
HETATM   37  C10 UNL     1      85.103  56.483   7.831  1.00  0.00     0.679 A 
ATOM     38  H11 UNL     1      83.153  57.137   7.743  1.00  0.00     0.186 HD
HETATM   39  N13 UNL     1      86.233  56.160   7.165  1.00  0.00    -0.173 N 
ATOM     40  H13 UNL     1      87.059  55.846   7.675  1.00  0.00     0.186 HD
BRANCH  34  41
HETATM   41  O1  UNL     1      82.861  57.433   5.161  1.00  0.00    -0.344 OA
ATOM     42  H1  UNL     1      82.753  58.360   4.981  1.00  0.00     0.219 HD
ENDBRANCH  34  41
BRANCH  37  43
HETATM   43  N12 UNL     1      85.119  56.377   9.131  1.00  0.00    -0.234 N 
ATOM     44 2H12 UNL     1      84.377  56.846   9.651  1.00  0.00     0.174 HD
ATOM     45 1H12 UNL     1      85.855  55.841   9.590  1.00  0.00     0.174 HD
ENDBRANCH  37  43
ENDBRANCH  29  30
ENDBRANCH   6  29
TORSDOF 11
ENDMDL
MODEL 3
REMARK VINA RESULT: -9.914433486      2.497      4.110
REMARK  11 active torsions:
REMARK  status: ('A' for Active; 'I' for Inactive)
REMARK    1  A    between atoms: C2_2  and  N1_3 
REMARK    2  A    between atoms: C2_2  and  C4_10 
REMARK    3  A    between atoms: N1_3  and  N2_5 
REMARK       I    between atoms: N2_5  and  C3_7 
REMARK    4  A    between atoms: C5_13  and  N6_14 
REMARK    5  A    between atoms: C6_19  and  C7_20 
REMARK    6  A    between atoms: C7_20  and  N9_21 
REMARK    7  A    between atoms: C9_25  and  O1_26 
REMARK    8  A    between atoms: C10_30  and  N12_31 
REMARK    9  A    between atoms: C12_40  and  O3_41 
REMARK   10  A    between atoms: O3_41  and  N15_42 
REMARK   11  A    between atoms: N15_42  and  N16_43 
ROOT
HETATM    1  N6  UNL     1      85.334  49.301   2.955  1.00  0.00    -0.139 N 
HETATM    2  N7  UNL     1      86.091  49.777   1.988  1.00  0.00    -0.216 N 
ATOM      3  H7  UNL     1      86.118  49.408   1.037  1.00  0.00     0.210 HD
HETATM    4  N8  UNL     1      86.808  50.799   2.418  1.00  0.00    -0.270 N 
ATOM      5  H8  UNL     1      87.473  51.345   1.870  1.00  0.00     0.190 HD
HETATM    6  C6  UNL     1      86.503  50.982   3.697  1.00  0.00     0.133 A 
HETATM    7  N14 UNL     1      85.576  50.035   4.021  1.00  0.00    -0.260 N 
ATOM      8  H14 UNL     1      85.143  49.915   4.937  1.00  0.00     0.190 HD
ENDROOT
BRANCH   1   9
HETATM    9  C5  UNL     1      84.410  48.202   2.908  1.00  0.00     0.270 A 
HETATM   10  N5  UNL     1      83.141  48.248   3.328  1.00  0.00    -0.313 N 
HETATM   11  C4  UNL     1      82.541  47.018   3.137  1.00  0.00     0.120 A 
ATOM     12  H5  UNL     1      82.686  49.068   3.729  1.00  0.00     0.170 HD
HETATM   13  C12 UNL     1      83.503  46.244   2.585  1.00  0.00     0.240 A 
HETATM   14  O2  UNL     1      84.597  47.001   2.473  1.00  0.00    -0.249 OA
BRANCH  11  15
HETATM   15  C2  UNL     1      81.192  46.721   3.541  1.00  0.00     0.053 C 
HETATM   16  C1  UNL     1      80.849  46.858   5.043  1.00  0.00     0.072 C 
BRANCH  15  17
HETATM   17  N1  UNL     1      80.233  46.382   2.853  1.00  0.00    -0.301 N 
ATOM     18  H1  UNL     1      80.343  45.396   2.617  1.00  0.00     0.186 HD
BRANCH  17  19
HETATM   19  N2  UNL     1      79.123  46.812   2.308  1.00  0.00    -0.276 N 
HETATM   20  C3  UNL     1      78.933  47.509   1.237  1.00  0.00     0.215 C 
HETATM   21  N3  UNL     1      77.572  47.820   0.910  1.00  0.00    -0.065 NA
HETATM   22  N4  UNL     1      80.015  47.951   0.418  1.00  0.00    -0.065 NA
ATOM     23  H2  UNL     1      78.273  46.557   2.810  1.00  0.00     0.189 HD
ENDBRANCH  17  19
ENDBRANCH  15  17
ENDBRANCH  11  15
BRANCH  13  24
HETATM   24  O3  UNL     1      83.459  44.894   2.168  1.00  0.00    -0.196 OA
BRANCH  24  25
HETATM   25  N15 UNL     1      83.760  43.896   3.096  1.00  0.00     0.021 NA
BRANCH  25  26
HETATM   26  N16 UNL     1      84.989  44.190   3.731  1.00  0.00    -0.322 N 
ATOM     27 2H16 UNL     1      85.880  44.287   3.243  1.00  0.00     0.174 HD
ATOM     28 1H16 UNL     1      84.842  44.288   4.736  1.00  0.00     0.174 HD
ENDBRANCH  25  26
ENDBRANCH  24  25
ENDBRANCH  13  24
ENDBRANCH   1   9
BRANCH   6  29
HETATM   29  C7  UNL     1      87.059  52.016   4.610  1.00  0.00     0.230 C 
BRANCH  29  30
HETATM   30  N9  UNL     1      87.679  53.055   3.790  1.00  0.00    -0.266 N 
HETATM   31  N10 UNL     1      87.261  53.832   2.822  1.00  0.00    -0.289 N 
HETATM   32  C8  UNL     1      88.450  54.416   2.698  1.00  0.00     0.146 A 
ATOM     33  H10 UNL     1      86.366  53.946   2.346  1.00  0.00     0.187 HD
HETATM   34  C9  UNL     1      89.286  55.335   2.088  1.00  0.00     0.187 A 
HETATM   35  C11 UNL     1      88.884  53.597   3.715  1.00  0.00     0.171 A 
HETATM   36  N11 UNL     1      90.552  55.412   2.516  1.00  0.00    -0.168 N 
HETATM   37  C10 UNL     1      90.978  54.609   3.513  1.00  0.00     0.679 A 
ATOM     38  H11 UNL     1      91.196  56.078   2.088  1.00  0.00     0.186 HD
HETATM   39  N13 UNL     1      90.170  53.709   4.115  1.00  0.00    -0.173 N 
ATOM     40  H13 UNL     1      90.527  53.119   4.867  1.00  0.00     0.186 HD
BRANCH  34  41
HETATM   41  O1  UNL     1      88.786  56.126   1.074  1.00  0.00    -0.344 OA
ATOM     42  H1  UNL     1      88.289  55.720   0.374  1.00  0.00     0.219 HD
ENDBRANCH  34  41
BRANCH  37  43
HETATM   43  N12 UNL     1      92.212  54.684   3.929  1.00  0.00    -0.234 N 
ATOM     44 2H12 UNL     1      92.715  53.808   4.071  1.00  0.00     0.174 HD
ATOM     45 1H12 UNL     1      92.638  55.595   4.101  1.00  0.00     0.174 HD
ENDBRANCH  37  43
ENDBRANCH  29  30
ENDBRANCH   6  29
TORSDOF 11
ENDMDL
MODEL 4
REMARK VINA RESULT: -9.866850558      2.393      3.499
REMARK  11 active torsions:
REMARK  status: ('A' for Active; 'I' for Inactive)
REMARK    1  A    between atoms: C2_2  and  N1_3 
REMARK    2  A    between atoms: C2_2  and  C4_10 
REMARK    3  A    between atoms: N1_3  and  N2_5 
REMARK       I    between atoms: N2_5  and  C3_7 
REMARK    4  A    between atoms: C5_13  and  N6_14 
REMARK    5  A    between atoms: C6_19  and  C7_20 
REMARK    6  A    between atoms: C7_20  and  N9_21 
REMARK    7  A    between atoms: C9_25  and  O1_26 
REMARK    8  A    between atoms: C10_30  and  N12_31 
REMARK    9  A    between atoms: C12_40  and  O3_41 
REMARK   10  A    between atoms: O3_41  and  N15_42 
REMARK   11  A    between atoms: N15_42  and  N16_43 
ROOT
HETATM    1  N6  UNL     1      87.043  52.331   2.854  1.00  0.00    -0.139 N 
HETATM    2  N7  UNL     1      87.538  52.810   1.731  1.00  0.00    -0.216 N 
ATOM      3  H7  UNL     1      87.420  52.378   0.814  1.00  0.00     0.210 HD
HETATM    4  N8  UNL     1      88.208  53.925   1.955  1.00  0.00    -0.270 N 
ATOM      5  H8  UNL     1      88.688  54.494   1.257  1.00  0.00     0.190 HD
HETATM    6  C6  UNL     1      88.142  54.169   3.258  1.00  0.00     0.133 A 
HETATM    7  N14 UNL     1      87.407  53.160   3.811  1.00  0.00    -0.260 N 
ATOM      8  H14 UNL     1      87.177  53.064   4.800  1.00  0.00     0.190 HD
ENDROOT
BRANCH   1   9
HETATM    9  C5  UNL     1      86.256  51.146   3.050  1.00  0.00     0.270 A 
HETATM   10  N5  UNL     1      86.184  50.122   2.193  1.00  0.00    -0.313 N 
HETATM   11  C4  UNL     1      85.337  49.152   2.694  1.00  0.00     0.120 A 
ATOM     12  H5  UNL     1      86.679  50.067   1.302  1.00  0.00     0.170 HD
HETATM   13  C12 UNL     1      84.914  49.641   3.882  1.00  0.00     0.240 A 
HETATM   14  O2  UNL     1      85.492  50.833   4.042  1.00  0.00    -0.249 OA
BRANCH  11  15
HETATM   15  C2  UNL     1      85.000  47.947   1.982  1.00  0.00     0.053 C 
HETATM   16  C1  UNL     1      85.399  47.863   0.491  1.00  0.00     0.072 C 
BRANCH  15  17
HETATM   17  N1  UNL     1      84.441  46.935   2.394  1.00  0.00    -0.301 N 
ATOM     18  H1  UNL     1      84.875  46.127   1.948  1.00  0.00     0.186 HD
BRANCH  17  19
HETATM   19  N2  UNL     1      83.496  46.503   3.191  1.00  0.00    -0.276 N 
HETATM   20  C3  UNL     1      82.212  46.611   3.101  1.00  0.00     0.215 C 
HETATM   21  N3  UNL     1      81.446  46.020   4.158  1.00  0.00    -0.065 NA
HETATM   22  N4  UNL     1      81.583  47.282   2.011  1.00  0.00    -0.065 NA
ATOM     23  H2  UNL     1      83.827  46.003   4.016  1.00  0.00     0.189 HD
ENDBRANCH  17  19
ENDBRANCH  15  17
ENDBRANCH  11  15
BRANCH  13  24
HETATM   24  O3  UNL     1      84.041  49.077   4.840  1.00  0.00    -0.196 OA
BRANCH  24  25
HETATM   25  N15 UNL     1      82.905  49.796   5.217  1.00  0.00     0.021 NA
BRANCH  25  26
HETATM   26  N16 UNL     1      81.977  49.815   4.150  1.00  0.00    -0.322 N 
ATOM     27 2H16 UNL     1      82.198  49.549   3.190  1.00  0.00     0.174 HD
ATOM     28 1H16 UNL     1      81.069  50.133   4.490  1.00  0.00     0.174 HD
ENDBRANCH  25  26
ENDBRANCH  24  25
ENDBRANCH  13  24
ENDBRANCH   1   9
BRANCH   6  29
HETATM   29  C7  UNL     1      88.747  55.315   3.986  1.00  0.00     0.230 C 
BRANCH  29  30
HETATM   30  N9  UNL     1      90.201  55.196   3.885  1.00  0.00    -0.266 N 
HETATM   31  N10 UNL     1      91.057  54.223   4.071  1.00  0.00    -0.289 N 
HETATM   32  C8  UNL     1      92.094  54.999   3.766  1.00  0.00     0.146 A 
ATOM     33  H10 UNL     1      90.964  53.244   4.345  1.00  0.00     0.187 HD
HETATM   34  C9  UNL     1      93.455  55.182   3.591  1.00  0.00     0.187 A 
HETATM   35  C11 UNL     1      91.190  56.018   3.572  1.00  0.00     0.171 A 
HETATM   36  N11 UNL     1      93.883  56.396   3.224  1.00  0.00    -0.168 N 
HETATM   37  C10 UNL     1      92.996  57.395   3.034  1.00  0.00     0.679 A 
ATOM     38  H11 UNL     1      94.879  56.566   3.087  1.00  0.00     0.186 HD
HETATM   39  N13 UNL     1      91.666  57.227   3.201  1.00  0.00    -0.173 N 
ATOM     40  H13 UNL     1      91.025  58.006   3.048  1.00  0.00     0.186 HD
BRANCH  34  41
HETATM   41  O1  UNL     1      94.307  54.117   3.801  1.00  0.00    -0.344 OA
ATOM     42  H1  UNL     1      95.001  54.200   4.444  1.00  0.00     0.219 HD
ENDBRANCH  34  41
BRANCH  37  43
HETATM   43  N12 UNL     1      93.412  58.579   2.676  1.00  0.00    -0.234 N 
ATOM     44 2H12 UNL     1      93.585  58.737   1.683  1.00  0.00     0.174 HD
ATOM     45 1H12 UNL     1      93.554  59.304   3.379  1.00  0.00     0.174 HD
ENDBRANCH  37  43
ENDBRANCH  29  30
ENDBRANCH   6  29
TORSDOF 11
ENDMDL
MODEL 5
REMARK VINA RESULT: -9.837245162      2.886      3.477
REMARK  11 active torsions:
REMARK  status: ('A' for Active; 'I' for Inactive)
REMARK    1  A    between atoms: C2_2  and  N1_3 
REMARK    2  A    between atoms: C2_2  and  C4_10 
REMARK    3  A    between atoms: N1_3  and  N2_5 
REMARK       I    between atoms: N2_5  and  C3_7 
REMARK    4  A    between atoms: C5_13  and  N6_14 
REMARK    5  A    between atoms: C6_19  and  C7_20 
REMARK    6  A    between atoms: C7_20  and  N9_21 
REMARK    7  A    between atoms: C9_25  and  O1_26 
REMARK    8  A    between atoms: C10_30  and  N12_31 
REMARK    9  A    between atoms: C12_40  and  O3_41 
REMARK   10  A    between atoms: O3_41  and  N15_42 
REMARK   11  A    between atoms: N15_42  and  N16_43 
ROOT
HETATM    1  N6  UNL     1      87.271  51.963   3.189  1.00  0.00    -0.139 N 
HETATM    2  N7  UNL     1      88.214  52.296   4.046  1.00  0.00    -0.216 N 
ATOM      3  H7  UNL     1      88.424  51.786   4.904  1.00  0.00     0.210 HD
HETATM    4  N8  UNL     1      88.851  53.380   3.641  1.00  0.00    -0.270 N 
ATOM      5  H8  UNL     1      89.622  53.844   4.121  1.00  0.00     0.190 HD
HETATM    6  C6  UNL     1      88.300  53.753   2.492  1.00  0.00     0.133 A 
HETATM    7  N14 UNL     1      87.309  52.854   2.220  1.00  0.00    -0.260 N 
ATOM      8  H14 UNL     1      86.700  52.870   1.402  1.00  0.00     0.190 HD
ENDROOT
BRANCH   1   9
HETATM    9  C5  UNL     1      86.357  50.857   3.251  1.00  0.00     0.270 A 
HETATM   10  N5  UNL     1      86.267  49.884   2.338  1.00  0.00    -0.313 N 
HETATM   11  C4  UNL     1      85.285  48.984   2.710  1.00  0.00     0.120 A 
ATOM     12  H5  UNL     1      86.838  49.815   1.495  1.00  0.00     0.170 HD
HETATM   13  C12 UNL     1      84.800  49.463   3.878  1.00  0.00     0.240 A 
HETATM   14  O2  UNL     1      85.475  50.582   4.152  1.00  0.00    -0.249 OA
BRANCH  11  15
HETATM   15  C2  UNL     1      84.902  47.852   1.908  1.00  0.00     0.053 C 
HETATM   16  C1  UNL     1      85.418  47.799   0.452  1.00  0.00     0.072 C 
BRANCH  15  17
HETATM   17  N1  UNL     1      84.219  46.879   2.218  1.00  0.00    -0.301 N 
ATOM     18  H1  UNL     1      84.422  46.125   1.561  1.00  0.00     0.186 HD
BRANCH  17  19
HETATM   19  N2  UNL     1      83.329  46.448   3.075  1.00  0.00    -0.276 N 
HETATM   20  C3  UNL     1      82.046  46.594   3.092  1.00  0.00     0.215 C 
HETATM   21  N3  UNL     1      81.348  45.988   4.188  1.00  0.00    -0.065 NA
HETATM   22  N4  UNL     1      81.351  47.318   2.078  1.00  0.00    -0.065 NA
ATOM     23  H2  UNL     1      83.709  45.910   3.854  1.00  0.00     0.189 HD
ENDBRANCH  17  19
ENDBRANCH  15  17
ENDBRANCH  11  15
BRANCH  13  24
HETATM   24  O3  UNL     1      83.788  48.952   4.721  1.00  0.00    -0.196 OA
BRANCH  24  25
HETATM   25  N15 UNL     1      82.817  49.827   5.210  1.00  0.00     0.021 NA
BRANCH  25  26
HETATM   26  N16 UNL     1      81.683  49.801   4.364  1.00  0.00    -0.322 N 
ATOM     27 2H16 UNL     1      81.662  49.361   3.444  1.00  0.00     0.174 HD
ATOM     28 1H16 UNL     1      80.906  50.283   4.817  1.00  0.00     0.174 HD
ENDBRANCH  25  26
ENDBRANCH  24  25
ENDBRANCH  13  24
ENDBRANCH   1   9
BRANCH   6  29
HETATM   29  C7  UNL     1      88.680  54.922   1.656  1.00  0.00     0.230 C 
BRANCH  29  30
HETATM   30  N9  UNL     1      87.455  55.632   1.292  1.00  0.00    -0.266 N 
HETATM   31  N10 UNL     1      86.459  56.150   1.967  1.00  0.00    -0.289 N 
HETATM   32  C8  UNL     1      85.846  56.561   0.859  1.00  0.00     0.146 A 
ATOM     33  H10 UNL     1      86.238  56.213   2.960  1.00  0.00     0.187 HD
HETATM   34  C9  UNL     1      84.788  57.194   0.229  1.00  0.00     0.187 A 
HETATM   35  C11 UNL     1      86.895  56.015   0.155  1.00  0.00     0.171 A 
HETATM   36  N11 UNL     1      84.807  57.265  -1.108  1.00  0.00    -0.168 N 
HETATM   37  C10 UNL     1      85.836  56.729  -1.798  1.00  0.00     0.679 A 
ATOM     38  H11 UNL     1      84.043  57.723  -1.605  1.00  0.00     0.186 HD
HETATM   39  N13 UNL     1      86.873  56.111  -1.192  1.00  0.00    -0.173 N 
ATOM     40  H13 UNL     1      87.633  55.718  -1.748  1.00  0.00     0.186 HD
BRANCH  34  41
HETATM   41  O1  UNL     1      83.769  57.720   0.995  1.00  0.00    -0.344 OA
ATOM     42  H1  UNL     1      83.117  57.134   1.361  1.00  0.00     0.219 HD
ENDBRANCH  34  41
BRANCH  37  43
HETATM   43  N12 UNL     1      85.853  56.798  -3.101  1.00  0.00    -0.234 N 
ATOM     44 2H12 UNL     1      85.453  57.630  -3.534  1.00  0.00     0.174 HD
ATOM     45 1H12 UNL     1      86.258  56.037  -3.646  1.00  0.00     0.174 HD
ENDBRANCH  37  43
ENDBRANCH  29  30
ENDBRANCH   6  29
TORSDOF 11
ENDMDL
