MODEL 1
REMARK VINA RESULT: -10.707568561      0.000      0.000
REMARK  7 active torsions:
REMARK  status: ('A' for Active; 'I' for Inactive)
REMARK    1  A    between atoms: C3_5  and  N2_6 
REMARK    2  A    between atoms: N2_6  and  C4_8 
REMARK    3  A    between atoms: C4_8  and  C5_9 
REMARK    4  A    between atoms: C4_8  and  C6_12 
REMARK    5  A    between atoms: C5_9  and  O2_10 
REMARK    6  A    between atoms: C7_13  and  O3_14 
REMARK       I    between atoms: N5_22  and  C9_23 
REMARK    7  A    between atoms: N6_27  and  C11_28 
ROOT
HETATM    1  C1  UNL     1      86.462  48.913   0.527  1.00  0.00     0.182 C 
HETATM    2  N1  UNL     1      85.595  49.027   1.688  1.00  0.00    -0.252 N 
HETATM    3  C2  UNL     1      84.725  48.070   2.018  1.00  0.00     0.290 A 
HETATM    4  O1  UNL     1      84.523  46.969   1.470  1.00  0.00    -0.264 OA
HETATM    5  C3  UNL     1      84.021  48.535   3.157  1.00  0.00     0.117 A 
HETATM    6  C10 UNL     1      84.572  49.757   3.390  1.00  0.00     0.153 A 
HETATM    7  N6  UNL     1      85.523  50.067   2.510  1.00  0.00    -0.240 N 
ENDROOT
BRANCH   5   8
HETATM    8  N2  UNL     1      83.039  47.784   3.784  1.00  0.00    -0.372 N 
ATOM      9  H2  UNL     1      83.170  46.773   3.770  1.00  0.00     0.160 HD
BRANCH   8  10
HETATM   10  C4  UNL     1      81.866  48.257   4.449  1.00  0.00     0.161 C 
BRANCH  10  11
HETATM   11  C5  UNL     1      81.846  49.729   4.361  1.00  0.00     0.195 C 
BRANCH  11  12
HETATM   12  O2  UNL     1      81.055  50.315   5.377  1.00  0.00    -0.398 OA
ATOM     13  H2  UNL     1      80.127  50.170   5.239  1.00  0.00     0.209 HD
ENDBRANCH  11  12
ENDBRANCH  10  11
BRANCH  10  14
HETATM   14  C6  UNL     1      80.659  47.503   3.974  1.00  0.00     0.116 A 
HETATM   15  C7  UNL     1      80.447  47.238   2.597  1.00  0.00     0.181 A 
HETATM   16  N3  UNL     1      79.289  46.608   2.493  1.00  0.00    -0.168 N 
HETATM   17  C8  UNL     1      78.719  46.435   3.674  1.00  0.00     0.690 A 
ATOM     18  H3  UNL     1      78.885  46.294   1.611  1.00  0.00     0.186 HD
HETATM   19  N4  UNL     1      77.584  45.876   3.977  1.00  0.00    -0.234 N 
HETATM   20  N5  UNL     1      79.594  47.012   4.601  1.00  0.00    -0.086 N 
ATOM     21  H42 UNL     1      76.946  45.456   3.302  1.00  0.00     0.174 HD
ATOM     22  H41 UNL     1      77.144  45.742   4.888  1.00  0.00     0.174 HD
HETATM   23  C9  UNL     1      79.202  47.157   5.944  1.00  0.00     0.309 C 
HETATM   24  O4  UNL     1      79.694  47.877   6.802  1.00  0.00    -0.629 OA
HETATM   25  O5  UNL     1      78.104  46.395   6.408  1.00  0.00    -0.629 OA
BRANCH  15  26
HETATM   26  O3  UNL     1      81.323  47.591   1.588  1.00  0.00    -0.344 OA
ATOM     27  H3  UNL     1      81.623  47.002   0.905  1.00  0.00     0.219 HD
ENDBRANCH  15  26
ENDBRANCH  10  14
ENDBRANCH   8  10
ENDBRANCH   5   8
BRANCH   7  28
HETATM   28  C11 UNL     1      86.315  51.244   2.414  1.00  0.00     0.189 A 
HETATM   29  N7  UNL     1      86.305  52.063   1.354  1.00  0.00    -0.266 N 
HETATM   30  N8  UNL     1      87.035  53.189   1.325  1.00  0.00    -0.127 N 
ATOM     31  H7  UNL     1      85.728  51.825   0.547  1.00  0.00     0.189 HD
HETATM   32  C12 UNL     1      87.813  53.548   2.361  1.00  0.00     0.737 A 
ATOM     33  H8  UNL     1      86.999  53.785   0.499  1.00  0.00     0.206 HD
HETATM   34  N9  UNL     1      88.646  54.572   2.660  1.00  0.00    -0.113 N 
HETATM   35  N12 UNL     1      87.842  52.740   3.447  1.00  0.00    -0.048 N 
HETATM   36  N10 UNL     1      89.160  54.399   3.861  1.00  0.00    -0.213 N 
ATOM     37  H9  UNL     1      88.847  55.362   2.046  1.00  0.00     0.207 HD
HETATM   38  N11 UNL     1      88.654  53.283   4.319  1.00  0.00    -0.205 N 
ATOM     39  H10 UNL     1      89.820  55.013   4.338  1.00  0.00     0.210 HD
ATOM     40  H11 UNL     1      88.865  52.888   5.236  1.00  0.00     0.211 HD
HETATM   41  C13 UNL     1      87.095  51.588   3.478  1.00  0.00     0.188 A 
HETATM   42  N13 UNL     1      87.133  50.838   4.493  1.00  0.00    -0.380 N 
ATOM     43 2H13 UNL     1      86.578  49.983   4.516  1.00  0.00     0.157 HD
ATOM     44 1H13 UNL     1      87.717  51.096   5.289  1.00  0.00     0.157 HD
ENDBRANCH   7  28
TORSDOF 7
ENDMDL
MODEL 2
REMARK VINA RESULT: -9.283287630      0.730      2.073
REMARK  7 active torsions:
REMARK  status: ('A' for Active; 'I' for Inactive)
REMARK    1  A    between atoms: C3_5  and  N2_6 
REMARK    2  A    between atoms: N2_6  and  C4_8 
REMARK    3  A    between atoms: C4_8  and  C5_9 
REMARK    4  A    between atoms: C4_8  and  C6_12 
REMARK    5  A    between atoms: C5_9  and  O2_10 
REMARK    6  A    between atoms: C7_13  and  O3_14 
REMARK       I    between atoms: N5_22  and  C9_23 
REMARK    7  A    between atoms: N6_27  and  C11_28 
ROOT
HETATM    1  C1  UNL     1      86.354  48.447   0.935  1.00  0.00     0.182 C 
HETATM    2  N1  UNL     1      85.378  48.689   1.984  1.00  0.00    -0.252 N 
HETATM    3  C2  UNL     1      84.445  47.790   2.303  1.00  0.00     0.290 A 
HETATM    4  O1  UNL     1      84.260  46.650   1.834  1.00  0.00    -0.264 OA
HETATM    5  C3  UNL     1      83.646  48.374   3.317  1.00  0.00     0.117 A 
HETATM    6  C10 UNL     1      84.214  49.597   3.499  1.00  0.00     0.153 A 
HETATM    7  N6  UNL     1      85.260  49.801   2.701  1.00  0.00    -0.240 N 
ENDROOT
BRANCH   5   8
HETATM    8  N2  UNL     1      82.579  47.709   3.901  1.00  0.00    -0.372 N 
ATOM      9  H2  UNL     1      82.565  46.696   3.788  1.00  0.00     0.160 HD
BRANCH   8  10
HETATM   10  C4  UNL     1      81.496  48.273   4.644  1.00  0.00     0.161 C 
BRANCH  10  11
HETATM   11  C5  UNL     1      81.528  49.737   4.468  1.00  0.00     0.195 C 
BRANCH  11  12
HETATM   12  O2  UNL     1      80.958  50.421   5.568  1.00  0.00    -0.398 OA
ATOM     13  H2  UNL     1      81.221  51.333   5.600  1.00  0.00     0.209 HD
ENDBRANCH  11  12
ENDBRANCH  10  11
BRANCH  10  14
HETATM   14  C6  UNL     1      80.219  47.551   4.332  1.00  0.00     0.116 A 
HETATM   15  C7  UNL     1      79.425  46.975   5.356  1.00  0.00     0.181 A 
HETATM   16  N3  UNL     1      78.403  46.375   4.768  1.00  0.00    -0.168 N 
HETATM   17  C8  UNL     1      78.452  46.501   3.453  1.00  0.00     0.690 A 
ATOM     18  H3  UNL     1      77.668  45.876   5.269  1.00  0.00     0.186 HD
HETATM   19  N4  UNL     1      77.644  46.044   2.542  1.00  0.00    -0.234 N 
HETATM   20  N5  UNL     1      79.609  47.242   3.191  1.00  0.00    -0.086 N 
ATOM     21  H42 UNL     1      76.800  45.504   2.733  1.00  0.00     0.174 HD
ATOM     22  H41 UNL     1      77.681  46.141   1.527  1.00  0.00     0.174 HD
HETATM   23  C9  UNL     1      80.056  47.405   1.867  1.00  0.00     0.309 C 
HETATM   24  O4  UNL     1      81.162  47.754   1.479  1.00  0.00    -0.629 OA
HETATM   25  O5  UNL     1      79.146  47.144   0.815  1.00  0.00    -0.629 OA
BRANCH  15  26
HETATM   26  O3  UNL     1      79.708  47.059   6.706  1.00  0.00    -0.344 OA
ATOM     27  H3  UNL     1      79.830  47.873   7.181  1.00  0.00     0.219 HD
ENDBRANCH  15  26
ENDBRANCH  10  14
ENDBRANCH   8  10
ENDBRANCH   5   8
BRANCH   7  28
HETATM   28  C11 UNL     1      86.099  50.942   2.585  1.00  0.00     0.189 A 
HETATM   29  N7  UNL     1      86.148  51.723   1.499  1.00  0.00    -0.266 N 
HETATM   30  N8  UNL     1      86.922  52.820   1.452  1.00  0.00    -0.127 N 
ATOM     31  H7  UNL     1      85.583  51.480   0.686  1.00  0.00     0.189 HD
HETATM   32  C12 UNL     1      87.687  53.185   2.495  1.00  0.00     0.737 A 
ATOM     33  H8  UNL     1      86.930  53.388   0.605  1.00  0.00     0.206 HD
HETATM   34  N9  UNL     1      88.551  54.186   2.782  1.00  0.00    -0.113 N 
HETATM   35  N12 UNL     1      87.657  52.414   3.608  1.00  0.00    -0.048 N 
HETATM   36  N10 UNL     1      89.027  54.036   4.001  1.00  0.00    -0.213 N 
ATOM     37  H9  UNL     1      88.799  54.945   2.147  1.00  0.00     0.207 HD
HETATM   38  N11 UNL     1      88.467  52.956   4.483  1.00  0.00    -0.205 N 
ATOM     39  H10 UNL     1      89.698  54.640   4.475  1.00  0.00     0.210 HD
ATOM     40  H11 UNL     1      88.639  52.585   5.418  1.00  0.00     0.211 HD
HETATM   41  C13 UNL     1      86.864  51.293   3.658  1.00  0.00     0.188 A 
HETATM   42  N13 UNL     1      86.848  50.578   4.699  1.00  0.00    -0.380 N 
ATOM     43 2H13 UNL     1      86.259  49.746   4.736  1.00  0.00     0.157 HD
ATOM     44 1H13 UNL     1      87.421  50.841   5.500  1.00  0.00     0.157 HD
ENDBRANCH   7  28
TORSDOF 7
ENDMDL
MODEL 3
REMARK VINA RESULT: -8.829710033      1.401      2.544
REMARK  7 active torsions:
REMARK  status: ('A' for Active; 'I' for Inactive)
REMARK    1  A    between atoms: C3_5  and  N2_6 
REMARK    2  A    between atoms: N2_6  and  C4_8 
REMARK    3  A    between atoms: C4_8  and  C5_9 
REMARK    4  A    between atoms: C4_8  and  C6_12 
REMARK    5  A    between atoms: C5_9  and  O2_10 
REMARK    6  A    between atoms: C7_13  and  O3_14 
REMARK       I    between atoms: N5_22  and  C9_23 
REMARK    7  A    between atoms: N6_27  and  C11_28 
ROOT
HETATM    1  C1  UNL     1      86.469  48.835   0.624  1.00  0.00     0.182 C 
HETATM    2  N1  UNL     1      85.520  48.952   1.719  1.00  0.00    -0.252 N 
HETATM    3  C2  UNL     1      84.629  47.995   1.987  1.00  0.00     0.290 A 
HETATM    4  O1  UNL     1      84.468  46.892   1.429  1.00  0.00    -0.264 OA
HETATM    5  C3  UNL     1      83.843  48.462   3.070  1.00  0.00     0.117 A 
HETATM    6  C10 UNL     1      84.374  49.685   3.338  1.00  0.00     0.153 A 
HETATM    7  N6  UNL     1      85.386  49.994   2.530  1.00  0.00    -0.240 N 
ENDROOT
BRANCH   5   8
HETATM    8  N2  UNL     1      82.819  47.711   3.626  1.00  0.00    -0.372 N 
ATOM      9  H2  UNL     1      82.555  47.951   4.582  1.00  0.00     0.160 HD
BRANCH   8  10
HETATM   10  C4  UNL     1      82.088  46.643   3.022  1.00  0.00     0.161 C 
BRANCH  10  11
HETATM   11  C5  UNL     1      82.856  45.397   3.204  1.00  0.00     0.195 C 
BRANCH  11  12
HETATM   12  O2  UNL     1      83.034  44.695   1.988  1.00  0.00    -0.398 OA
ATOM     13  H2  UNL     1      83.161  45.280   1.251  1.00  0.00     0.209 HD
ENDBRANCH  11  12
ENDBRANCH  10  11
BRANCH  10  14
HETATM   14  C6  UNL     1      80.659  46.666   3.478  1.00  0.00     0.116 A 
HETATM   15  C7  UNL     1      80.296  46.288   4.795  1.00  0.00     0.181 A 
HETATM   16  N3  UNL     1      78.978  46.366   4.876  1.00  0.00    -0.168 N 
HETATM   17  C8  UNL     1      78.441  46.760   3.734  1.00  0.00     0.690 A 
ATOM     18  H3  UNL     1      78.443  46.149   5.716  1.00  0.00     0.186 HD
HETATM   19  N4  UNL     1      77.191  46.941   3.420  1.00  0.00    -0.234 N 
HETATM   20  N5  UNL     1      79.516  46.940   2.856  1.00  0.00    -0.086 N 
ATOM     21  H42 UNL     1      76.408  46.810   4.059  1.00  0.00     0.174 HD
ATOM     22  H41 UNL     1      76.776  47.245   2.539  1.00  0.00     0.174 HD
HETATM   23  C9  UNL     1      79.278  47.189   1.493  1.00  0.00     0.309 C 
HETATM   24  O4  UNL     1      80.057  47.083   0.557  1.00  0.00    -0.629 OA
HETATM   25  O5  UNL     1      77.986  47.618   1.105  1.00  0.00    -0.629 OA
BRANCH  15  26
HETATM   26  O3  UNL     1      81.194  45.917   5.778  1.00  0.00    -0.344 OA
ATOM     27  H3  UNL     1      81.053  45.210   6.398  1.00  0.00     0.219 HD
ENDBRANCH  15  26
ENDBRANCH  10  14
ENDBRANCH   8  10
ENDBRANCH   5   8
BRANCH   7  28
HETATM   28  C11 UNL     1      86.181  51.172   2.488  1.00  0.00     0.189 A 
HETATM   29  N7  UNL     1      86.206  52.016   1.448  1.00  0.00    -0.266 N 
HETATM   30  N8  UNL     1      86.938  53.142   1.471  1.00  0.00    -0.127 N 
ATOM     31  H7  UNL     1      85.655  51.799   0.618  1.00  0.00     0.189 HD
HETATM   32  C12 UNL     1      87.682  53.475   2.540  1.00  0.00     0.737 A 
ATOM     33  H8  UNL     1      86.928  53.758   0.659  1.00  0.00     0.206 HD
HETATM   34  N9  UNL     1      88.506  54.490   2.890  1.00  0.00    -0.113 N 
HETATM   35  N12 UNL     1      87.676  52.640   3.606  1.00  0.00    -0.048 N 
HETATM   36  N10 UNL     1      88.980  54.287   4.103  1.00  0.00    -0.213 N 
ATOM     37  H9  UNL     1      88.727  55.294   2.303  1.00  0.00     0.207 HD
HETATM   38  N11 UNL     1      88.459  53.160   4.517  1.00  0.00    -0.205 N 
ATOM     39  H10 UNL     1      89.625  54.888   4.616  1.00  0.00     0.210 HD
ATOM     40  H11 UNL     1      88.640  52.743   5.430  1.00  0.00     0.211 HD
HETATM   41  C13 UNL     1      86.927  51.489   3.584  1.00  0.00     0.188 A 
HETATM   42  N13 UNL     1      86.932  50.714   4.582  1.00  0.00    -0.380 N 
ATOM     43 2H13 UNL     1      86.376  49.859   4.566  1.00  0.00     0.157 HD
ATOM     44 1H13 UNL     1      87.490  50.952   5.402  1.00  0.00     0.157 HD
ENDBRANCH   7  28
TORSDOF 7
ENDMDL
MODEL 4
REMARK VINA RESULT: -8.769073537      7.936      9.684
REMARK  7 active torsions:
REMARK  status: ('A' for Active; 'I' for Inactive)
REMARK    1  A    between atoms: C3_5  and  N2_6 
REMARK    2  A    between atoms: N2_6  and  C4_8 
REMARK    3  A    between atoms: C4_8  and  C5_9 
REMARK    4  A    between atoms: C4_8  and  C6_12 
REMARK    5  A    between atoms: C5_9  and  O2_10 
REMARK    6  A    between atoms: C7_13  and  O3_14 
REMARK       I    between atoms: N5_22  and  C9_23 
REMARK    7  A    between atoms: N6_27  and  C11_28 
ROOT
HETATM    1  C1  UNL     1      86.212  57.621   1.991  1.00  0.00     0.182 C 
HETATM    2  N1  UNL     1      85.818  57.268   3.345  1.00  0.00    -0.252 N 
HETATM    3  C2  UNL     1      84.550  57.341   3.754  1.00  0.00     0.290 A 
HETATM    4  O1  UNL     1      83.533  57.662   3.108  1.00  0.00    -0.264 OA
HETATM    5  C3  UNL     1      84.543  56.978   5.124  1.00  0.00     0.117 A 
HETATM    6  C10 UNL     1      85.851  56.716   5.386  1.00  0.00     0.153 A 
HETATM    7  N6  UNL     1      86.632  56.888   4.322  1.00  0.00    -0.240 N 
ENDROOT
BRANCH   5   8
HETATM    8  N2  UNL     1      83.379  56.930   5.876  1.00  0.00    -0.372 N 
ATOM      9  H2  UNL     1      83.090  56.006   6.197  1.00  0.00     0.160 HD
BRANCH   8  10
HETATM   10  C4  UNL     1      82.536  58.019   6.257  1.00  0.00     0.161 C 
BRANCH  10  11
HETATM   11  C5  UNL     1      81.214  57.819   5.635  1.00  0.00     0.195 C 
BRANCH  11  12
HETATM   12  O2  UNL     1      81.198  56.710   4.757  1.00  0.00    -0.398 OA
ATOM     13  H2  UNL     1      80.315  56.453   4.517  1.00  0.00     0.209 HD
ENDBRANCH  11  12
ENDBRANCH  10  11
BRANCH  10  14
HETATM   14  C6  UNL     1      82.596  58.230   7.741  1.00  0.00     0.116 A 
HETATM   15  C7  UNL     1      82.581  57.138   8.645  1.00  0.00     0.181 A 
HETATM   16  N3  UNL     1      82.595  57.642   9.868  1.00  0.00    -0.168 N 
HETATM   17  C8  UNL     1      82.617  58.964   9.852  1.00  0.00     0.690 A 
ATOM     18  H3  UNL     1      82.589  57.079  10.718  1.00  0.00     0.186 HD
HETATM   19  N4  UNL     1      82.623  59.809  10.841  1.00  0.00    -0.234 N 
HETATM   20  N5  UNL     1      82.611  59.323   8.499  1.00  0.00    -0.086 N 
ATOM     21  H42 UNL     1      82.627  59.548  11.827  1.00  0.00     0.174 HD
ATOM     22  H41 UNL     1      82.640  60.829  10.829  1.00  0.00     0.174 HD
HETATM   23  C9  UNL     1      82.451  60.670   8.128  1.00  0.00     0.309 C 
HETATM   24  O4  UNL     1      82.136  61.122   7.037  1.00  0.00    -0.629 OA
HETATM   25  O5  UNL     1      82.671  61.666   9.110  1.00  0.00    -0.629 OA
BRANCH  15  26
HETATM   26  O3  UNL     1      82.559  55.809   8.266  1.00  0.00    -0.344 OA
ATOM     27  H3  UNL     1      81.792  55.250   8.306  1.00  0.00     0.219 HD
ENDBRANCH  15  26
ENDBRANCH  10  14
ENDBRANCH   8  10
ENDBRANCH   5   8
BRANCH   7  28
HETATM   28  C11 UNL     1      88.039  56.726   4.199  1.00  0.00     0.189 A 
HETATM   29  N7  UNL     1      88.913  57.741   4.254  1.00  0.00    -0.266 N 
HETATM   30  N8  UNL     1      90.238  57.536   4.179  1.00  0.00    -0.127 N 
ATOM     31  H7  UNL     1      88.562  58.693   4.355  1.00  0.00     0.189 HD
HETATM   32  C12 UNL     1      90.751  56.301   4.044  1.00  0.00     0.737 A 
ATOM     33  H8  UNL     1      90.868  58.335   4.225  1.00  0.00     0.206 HD
HETATM   34  N9  UNL     1      91.984  55.751   3.942  1.00  0.00    -0.113 N 
HETATM   35  N12 UNL     1      89.892  55.256   3.987  1.00  0.00    -0.048 N 
HETATM   36  N10 UNL     1      91.886  54.442   3.825  1.00  0.00    -0.213 N 
ATOM     37  H9  UNL     1      92.860  56.273   3.954  1.00  0.00     0.207 HD
HETATM   38  N11 UNL     1      90.607  54.166   3.859  1.00  0.00    -0.205 N 
ATOM     39  H10 UNL     1      92.653  53.778   3.729  1.00  0.00     0.210 HD
ATOM     40  H11 UNL     1      90.219  53.225   3.794  1.00  0.00     0.211 HD
HETATM   41  C13 UNL     1      88.537  55.464   4.064  1.00  0.00     0.188 A 
HETATM   42  N13 UNL     1      87.744  54.483   4.004  1.00  0.00    -0.380 N 
ATOM     43 2H13 UNL     1      86.737  54.637   4.062  1.00  0.00     0.157 HD
ATOM     44 1H13 UNL     1      88.116  53.539   3.903  1.00  0.00     0.157 HD
ENDBRANCH   7  28
TORSDOF 7
ENDMDL
MODEL 5
REMARK VINA RESULT: -8.686874193      7.655      9.797
REMARK  7 active torsions:
REMARK  status: ('A' for Active; 'I' for Inactive)
REMARK    1  A    between atoms: C3_5  and  N2_6 
REMARK    2  A    between atoms: N2_6  and  C4_8 
REMARK    3  A    between atoms: C4_8  and  C5_9 
REMARK    4  A    between atoms: C4_8  and  C6_12 
REMARK    5  A    between atoms: C5_9  and  O2_10 
REMARK    6  A    between atoms: C7_13  and  O3_14 
REMARK       I    between atoms: N5_22  and  C9_23 
REMARK    7  A    between atoms: N6_27  and  C11_28 
ROOT
HETATM    1  C1  UNL     1      85.197  57.588   3.442  1.00  0.00     0.182 C 
HETATM    2  N1  UNL     1      85.339  57.544   4.887  1.00  0.00    -0.252 N 
HETATM    3  C2  UNL     1      84.646  58.352   5.692  1.00  0.00     0.290 A 
HETATM    4  O1  UNL     1      83.786  59.205   5.397  1.00  0.00    -0.264 OA
HETATM    5  C3  UNL     1      85.070  58.072   7.014  1.00  0.00     0.117 A 
HETATM    6  C10 UNL     1      85.998  57.092   6.846  1.00  0.00     0.153 A 
HETATM    7  N6  UNL     1      86.172  56.764   5.567  1.00  0.00    -0.240 N 
ENDROOT
BRANCH   5   8
HETATM    8  N2  UNL     1      84.544  58.723   8.119  1.00  0.00    -0.372 N 
ATOM      9  H2  UNL     1      84.889  59.667   8.291  1.00  0.00     0.160 HD
BRANCH   8  10
HETATM   10  C4  UNL     1      83.576  58.230   9.048  1.00  0.00     0.161 C 
BRANCH  10  11
HETATM   11  C5  UNL     1      83.750  58.951  10.323  1.00  0.00     0.195 C 
BRANCH  11  12
HETATM   12  O2  UNL     1      83.783  58.074  11.433  1.00  0.00    -0.398 OA
ATOM     13  H2  UNL     1      84.335  57.316  11.277  1.00  0.00     0.209 HD
ENDBRANCH  11  12
ENDBRANCH  10  11
BRANCH  10  14
HETATM   14  C6  UNL     1      82.213  58.219   8.422  1.00  0.00     0.116 A 
HETATM   15  C7  UNL     1      81.555  57.004   8.103  1.00  0.00     0.181 A 
HETATM   16  N3  UNL     1      80.407  57.320   7.526  1.00  0.00    -0.168 N 
HETATM   17  C8  UNL     1      80.250  58.630   7.435  1.00  0.00     0.690 A 
ATOM     18  H3  UNL     1      79.727  56.637   7.193  1.00  0.00     0.186 HD
HETATM   19  N4  UNL     1      79.270  59.318   6.926  1.00  0.00    -0.234 N 
HETATM   20  N5  UNL     1      81.403  59.186   8.000  1.00  0.00    -0.086 N 
ATOM     21  H42 UNL     1      78.430  58.912   6.514  1.00  0.00     0.174 HD
ATOM     22  H41 UNL     1      79.148  60.328   6.856  1.00  0.00     0.174 HD
HETATM   23  C9  UNL     1      81.638  60.569   7.903  1.00  0.00     0.309 C 
HETATM   24  O4  UNL     1      82.689  61.172   8.069  1.00  0.00    -0.629 OA
HETATM   25  O5  UNL     1      80.550  61.413   7.574  1.00  0.00    -0.629 OA
BRANCH  15  26
HETATM   26  O3  UNL     1      82.062  55.747   8.371  1.00  0.00    -0.344 OA
ATOM     27  H3  UNL     1      81.941  54.988   7.811  1.00  0.00     0.219 HD
ENDBRANCH  15  26
ENDBRANCH  10  14
ENDBRANCH   8  10
ENDBRANCH   5   8
BRANCH   7  28
HETATM   28  C11 UNL     1      87.049  55.805   4.992  1.00  0.00     0.189 A 
HETATM   29  N7  UNL     1      86.737  54.512   4.832  1.00  0.00    -0.266 N 
HETATM   30  N8  UNL     1      87.580  53.650   4.240  1.00  0.00    -0.127 N 
ATOM     31  H7  UNL     1      85.835  54.173   5.168  1.00  0.00     0.189 HD
HETATM   32  C12 UNL     1      88.779  54.045   3.781  1.00  0.00     0.737 A 
ATOM     33  H8  UNL     1      87.303  52.674   4.137  1.00  0.00     0.206 HD
HETATM   34  N9  UNL     1      89.835  53.470   3.158  1.00  0.00    -0.113 N 
HETATM   35  N12 UNL     1      89.122  55.347   3.928  1.00  0.00    -0.048 N 
HETATM   36  N10 UNL     1      90.774  54.369   2.939  1.00  0.00    -0.213 N 
ATOM     37  H9  UNL     1      89.896  52.486   2.897  1.00  0.00     0.207 HD
HETATM   38  N11 UNL     1      90.316  55.500   3.412  1.00  0.00    -0.205 N 
ATOM     39  H10 UNL     1      91.676  54.213   2.491  1.00  0.00     0.210 HD
ATOM     40  H11 UNL     1      90.823  56.384   3.382  1.00  0.00     0.211 HD
HETATM   41  C13 UNL     1      88.260  56.229   4.532  1.00  0.00     0.188 A 
HETATM   42  N13 UNL     1      88.592  57.440   4.669  1.00  0.00    -0.380 N 
ATOM     43 2H13 UNL     1      87.952  58.096   5.117  1.00  0.00     0.157 HD
ATOM     44 1H13 UNL     1      89.498  57.757   4.325  1.00  0.00     0.157 HD
ENDBRANCH   7  28
TORSDOF 7
ENDMDL
