MODEL 1
REMARK VINA RESULT: -7.494556518      0.000      0.000
REMARK  15 active torsions:
REMARK  status: ('A' for Active; 'I' for Inactive)
REMARK    1  A    between atoms: C2_2  and  O1_3 
REMARK    2  A    between atoms: O1_3  and  C3_4 
REMARK       I    between atoms: C3_4  and  N1_6 
REMARK    3  A    between atoms: N1_6  and  C4_8 
REMARK    4  A    between atoms: C5_12  and  C6_13 
REMARK    5  A    between atoms: C6_13  and  O3_14 
REMARK    6  A    between atoms: C6_13  and  O4_16 
REMARK    7  A    between atoms: C10_22  and  N3_23 
REMARK    8  A    between atoms: N3_23  and  C11_25 
REMARK    9  A    between atoms: C12_26  and  N4_27 
REMARK   10  A    between atoms: N4_27  and  C13_29 
REMARK   11  A    between atoms: C16_32  and  O6_33 
REMARK   12  A    between atoms: C23_42  and  O9_43 
REMARK   13  A    between atoms: C23_42  and  C24_45 
REMARK   14  A    between atoms: C24_45  and  O11_47 
REMARK   15  A    between atoms: C27_51  and  C28_52 
ROOT
HETATM    1  C4  UNL     1     -58.087  62.371  10.163  1.00  0.00     0.298 C 
HETATM    2  N2  UNL     1     -59.543  62.336   9.899  1.00  0.00    -0.041 N 
ATOM      3  H21 UNL     1     -59.963  61.417  10.044  1.00  0.00     0.280 HD
ATOM      4  H22 UNL     1     -59.782  62.425   8.911  1.00  0.00     0.280 HD
HETATM    5  C5  UNL     1     -60.121  63.377  10.731  1.00  0.00     0.285 C 
HETATM    6  C7  UNL     1     -59.268  63.253  11.947  1.00  0.00     0.165 C 
HETATM    7  O5  UNL     1     -59.078  64.339  12.738  1.00  0.00    -0.352 OA
HETATM    8  C8  UNL     1     -57.757  64.207  13.268  1.00  0.00     0.127 C 
HETATM    9  C9  UNL     1     -57.195  65.621  13.102  1.00  0.00     0.052 C 
HETATM   10  C10 UNL     1     -57.039  63.224  12.369  1.00  0.00     0.131 C 
HETATM   11  C22 UNL     1     -57.909  63.309  11.206  1.00  0.00     0.106 C 
HETATM   12  C23 UNL     1     -57.917  63.823  14.681  1.00  0.00     0.240 C 
HETATM   13  C26 UNL     1     -58.455  62.454  14.838  1.00  0.00     0.193 C 
HETATM   14  O12 UNL     1     -58.264  62.010  15.969  1.00  0.00    -0.293 OA
HETATM   15  C27 UNL     1     -59.158  61.513  13.971  1.00  0.00     0.201 C 
HETATM   16  C30 UNL     1     -59.535  62.007  12.638  1.00  0.00     0.182 C 
HETATM   17  O14 UNL     1     -60.199  61.189  12.018  1.00  0.00    -0.293 OA
ENDROOT
BRANCH  10  18
HETATM   18  N3  UNL     1     -55.710  63.710  12.081  1.00  0.00    -0.376 N 
ATOM     19  H3  UNL     1     -55.617  64.689  11.808  1.00  0.00     0.160 HD
BRANCH  18  20
HETATM   20  C11 UNL     1     -54.535  62.943  12.148  1.00  0.00     0.114 A 
HETATM   21  C12 UNL     1     -53.382  63.025  12.894  1.00  0.00     0.118 A 
HETATM   22  C20 UNL     1     -52.892  61.927  12.241  1.00  0.00     0.253 A 
HETATM   23  O7  UNL     1     -51.826  61.281  12.311  1.00  0.00    -0.281 OA
HETATM   24  C21 UNL     1     -54.036  61.843  11.501  1.00  0.00     0.252 A 
HETATM   25  O8  UNL     1     -54.452  61.047  10.578  1.00  0.00    -0.281 OA
BRANCH  21  26
HETATM   26  N4  UNL     1     -52.885  63.873  13.943  1.00  0.00    -0.351 N 
ATOM     27  H4  UNL     1     -53.259  63.770  14.887  1.00  0.00     0.166 HD
BRANCH  26  28
HETATM   28  C13 UNL     1     -51.885  64.851  13.696  1.00  0.00     0.032 A 
HETATM   29  C14 UNL     1     -50.552  64.586  13.929  1.00  0.00     0.032 A 
HETATM   30  C15 UNL     1     -49.529  65.482  13.705  1.00  0.00     0.039 A 
HETATM   31  C16 UNL     1     -49.828  66.732  13.218  1.00  0.00     0.068 A 
HETATM   32  C18 UNL     1     -51.162  67.029  12.974  1.00  0.00     0.039 A 
HETATM   33  C19 UNL     1     -52.170  66.120  13.205  1.00  0.00     0.032 A 
BRANCH  31  34
HETATM   34  O6  UNL     1     -48.830  67.683  12.972  1.00  0.00    -0.356 OA
HETATM   35  C17 UNL     1     -47.773  67.850  13.872  1.00  0.00     0.210 C 
ENDBRANCH  31  34
ENDBRANCH  26  28
ENDBRANCH  21  26
ENDBRANCH  18  20
ENDBRANCH  10  18
BRANCH  12  36
HETATM   36  O9  UNL     1     -58.910  64.691  15.208  1.00  0.00    -0.370 OA
ATOM     37  H9  UNL     1     -59.543  64.815  14.511  1.00  0.00     0.212 HD
ENDBRANCH  12  36
BRANCH  12  38
HETATM   38  C24 UNL     1     -56.698  63.938  15.496  1.00  0.00     0.304 C 
HETATM   39  O10 UNL     1     -55.729  63.117  15.287  1.00  0.00    -0.261 OA
BRANCH  38  40
HETATM   40  O11 UNL     1     -56.512  64.868  16.472  1.00  0.00    -0.324 OA
HETATM   41  C25 UNL     1     -55.550  65.879  16.533  1.00  0.00     0.213 C 
ENDBRANCH  38  40
ENDBRANCH  12  38
BRANCH   1  42
HETATM   42  N1  UNL     1     -57.555  61.053  10.269  1.00  0.00    -0.308 N 
HETATM   43  C3  UNL     1     -57.503  60.240   9.094  1.00  0.00     0.362 C 
HETATM   44  O2  UNL     1     -57.933  60.700   7.981  1.00  0.00    -0.238 OA
ATOM     45  H1  UNL     1     -57.219  60.698  11.163  1.00  0.00     0.166 HD
BRANCH  43  46
HETATM   46  O1  UNL     1     -57.014  58.956   9.040  1.00  0.00    -0.304 OA
BRANCH  46  47
HETATM   47  C2  UNL     1     -56.084  58.507   8.065  1.00  0.00     0.176 C 
HETATM   48  C1  UNL     1     -56.749  57.552   7.101  1.00  0.00     0.034 C 
ENDBRANCH  46  47
ENDBRANCH  43  46
ENDBRANCH   1  42
BRANCH   5  49
HETATM   49  C6  UNL     1     -60.236  64.706  10.110  1.00  0.00     0.288 C 
BRANCH  49  50
HETATM   50  O3  UNL     1     -61.079  64.582   8.978  1.00  0.00    -0.369 OA
ATOM     51  H3  UNL     1     -61.673  65.322   8.977  1.00  0.00     0.212 HD
ENDBRANCH  49  50
BRANCH  49  52
HETATM   52  O4  UNL     1     -60.814  65.601  11.031  1.00  0.00    -0.369 OA
ATOM     53  H4  UNL     1     -60.134  66.148  11.405  1.00  0.00     0.212 HD
ENDBRANCH  49  52
ENDBRANCH   5  49
BRANCH  15  54
HETATM   54  C28 UNL     1     -60.456  61.177  14.680  1.00  0.00     0.141 C 
HETATM   55  C29 UNL     1     -61.477  62.229  14.928  1.00  0.00     0.092 C 
HETATM   56  O13 UNL     1     -60.658  60.038  15.045  1.00  0.00    -0.297 OA
ENDBRANCH  15  54
TORSDOF 15
ENDMDL
MODEL 2
REMARK VINA RESULT: -7.330555163      1.028      1.289
REMARK  15 active torsions:
REMARK  status: ('A' for Active; 'I' for Inactive)
REMARK    1  A    between atoms: C2_2  and  O1_3 
REMARK    2  A    between atoms: O1_3  and  C3_4 
REMARK       I    between atoms: C3_4  and  N1_6 
REMARK    3  A    between atoms: N1_6  and  C4_8 
REMARK    4  A    between atoms: C5_12  and  C6_13 
REMARK    5  A    between atoms: C6_13  and  O3_14 
REMARK    6  A    between atoms: C6_13  and  O4_16 
REMARK    7  A    between atoms: C10_22  and  N3_23 
REMARK    8  A    between atoms: N3_23  and  C11_25 
REMARK    9  A    between atoms: C12_26  and  N4_27 
REMARK   10  A    between atoms: N4_27  and  C13_29 
REMARK   11  A    between atoms: C16_32  and  O6_33 
REMARK   12  A    between atoms: C23_42  and  O9_43 
REMARK   13  A    between atoms: C23_42  and  C24_45 
REMARK   14  A    between atoms: C24_45  and  O11_47 
REMARK   15  A    between atoms: C27_51  and  C28_52 
ROOT
HETATM    1  C4  UNL     1     -58.621  62.239  10.252  1.00  0.00     0.298 C 
HETATM    2  N2  UNL     1     -60.096  62.325  10.167  1.00  0.00    -0.041 N 
ATOM      3  H21 UNL     1     -60.571  61.457  10.413  1.00  0.00     0.280 HD
ATOM      4  H22 UNL     1     -60.447  62.390   9.212  1.00  0.00     0.280 HD
HETATM    5  C5  UNL     1     -60.474  63.452  11.003  1.00  0.00     0.285 C 
HETATM    6  C7  UNL     1     -59.490  63.305  12.113  1.00  0.00     0.165 C 
HETATM    7  O5  UNL     1     -59.110  64.404  12.812  1.00  0.00    -0.352 OA
HETATM    8  C8  UNL     1     -57.750  64.176  13.186  1.00  0.00     0.127 C 
HETATM    9  C9  UNL     1     -57.094  65.523  12.873  1.00  0.00     0.052 C 
HETATM   10  C10 UNL     1     -57.236  63.091  12.264  1.00  0.00     0.131 C 
HETATM   11  C22 UNL     1     -58.234  63.202  11.211  1.00  0.00     0.106 C 
HETATM   12  C23 UNL     1     -57.763  63.873  14.627  1.00  0.00     0.240 C 
HETATM   13  C26 UNL     1     -58.393  62.568  14.925  1.00  0.00     0.193 C 
HETATM   14  O12 UNL     1     -58.100  62.160  16.048  1.00  0.00    -0.293 OA
HETATM   15  C27 UNL     1     -59.276  61.657  14.203  1.00  0.00     0.201 C 
HETATM   16  C30 UNL     1     -59.773  62.122  12.900  1.00  0.00     0.182 C 
HETATM   17  O14 UNL     1     -60.577  61.341  12.411  1.00  0.00    -0.293 OA
ENDROOT
BRANCH  10  18
HETATM   18  N3  UNL     1     -55.916  63.440  11.791  1.00  0.00    -0.376 N 
ATOM     19  H3  UNL     1     -55.721  64.428  11.632  1.00  0.00     0.160 HD
BRANCH  18  20
HETATM   20  C11 UNL     1     -54.882  62.526  11.533  1.00  0.00     0.114 A 
HETATM   21  C12 UNL     1     -53.688  62.236  12.153  1.00  0.00     0.118 A 
HETATM   22  C20 UNL     1     -53.423  61.302  11.187  1.00  0.00     0.253 A 
HETATM   23  O7  UNL     1     -52.476  60.519  10.977  1.00  0.00    -0.281 OA
HETATM   24  C21 UNL     1     -54.609  61.589  10.572  1.00  0.00     0.252 A 
HETATM   25  O8  UNL     1     -55.203  61.145   9.519  1.00  0.00    -0.281 OA
BRANCH  21  26
HETATM   26  N4  UNL     1     -52.997  62.682  13.333  1.00  0.00    -0.351 N 
ATOM     27  H4  UNL     1     -53.109  62.161  14.203  1.00  0.00     0.166 HD
BRANCH  26  28
HETATM   28  C13 UNL     1     -52.163  63.831  13.314  1.00  0.00     0.032 A 
HETATM   29  C14 UNL     1     -52.694  65.102  13.393  1.00  0.00     0.032 A 
HETATM   30  C15 UNL     1     -51.946  66.259  13.388  1.00  0.00     0.039 A 
HETATM   31  C16 UNL     1     -50.577  66.173  13.298  1.00  0.00     0.068 A 
HETATM   32  C18 UNL     1     -50.013  64.907  13.217  1.00  0.00     0.039 A 
HETATM   33  C19 UNL     1     -50.777  63.761  13.222  1.00  0.00     0.032 A 
BRANCH  31  34
HETATM   34  O6  UNL     1     -49.767  67.315  13.289  1.00  0.00    -0.356 OA
HETATM   35  C17 UNL     1     -48.469  67.267  13.808  1.00  0.00     0.210 C 
ENDBRANCH  31  34
ENDBRANCH  26  28
ENDBRANCH  21  26
ENDBRANCH  18  20
ENDBRANCH  10  18
BRANCH  12  36
HETATM   36  O9  UNL     1     -58.605  64.851  15.220  1.00  0.00    -0.370 OA
ATOM     37  H9  UNL     1     -59.424  64.815  14.740  1.00  0.00     0.212 HD
ENDBRANCH  12  36
BRANCH  12  38
HETATM   38  C24 UNL     1     -56.447  63.912  15.281  1.00  0.00     0.304 C 
HETATM   39  O10 UNL     1     -55.547  63.066  14.922  1.00  0.00    -0.261 OA
BRANCH  38  40
HETATM   40  O11 UNL     1     -56.100  64.797  16.256  1.00  0.00    -0.324 OA
HETATM   41  C25 UNL     1     -55.079  65.750  16.238  1.00  0.00     0.213 C 
ENDBRANCH  38  40
ENDBRANCH  12  38
BRANCH   1  42
HETATM   42  N1  UNL     1     -58.194  60.883  10.367  1.00  0.00    -0.308 N 
HETATM   43  C3  UNL     1     -58.523  59.971   9.316  1.00  0.00     0.362 C 
HETATM   44  O2  UNL     1     -59.189  60.379   8.304  1.00  0.00    -0.238 OA
ATOM     45  H1  UNL     1     -57.666  60.571  11.181  1.00  0.00     0.166 HD
BRANCH  43  46
HETATM   46  O1  UNL     1     -58.176  58.640   9.285  1.00  0.00    -0.304 OA
BRANCH  46  47
HETATM   47  C2  UNL     1     -58.599  57.740   8.272  1.00  0.00     0.176 C 
HETATM   48  C1  UNL     1     -59.740  56.883   8.769  1.00  0.00     0.034 C 
ENDBRANCH  46  47
ENDBRANCH  43  46
ENDBRANCH   1  42
BRANCH   5  49
HETATM   49  C6  UNL     1     -60.552  64.756  10.326  1.00  0.00     0.288 C 
BRANCH  49  50
HETATM   50  O3  UNL     1     -61.549  64.663   9.324  1.00  0.00    -0.369 OA
ATOM     51  H3  UNL     1     -61.212  65.080   8.540  1.00  0.00     0.212 HD
ENDBRANCH  49  50
BRANCH  49  52
HETATM   52  O4  UNL     1     -60.915  65.744  11.262  1.00  0.00    -0.369 OA
ATOM     53  H4  UNL     1     -61.044  66.570  10.811  1.00  0.00     0.212 HD
ENDBRANCH  49  52
ENDBRANCH   5  49
BRANCH  15  54
HETATM   54  C28 UNL     1     -60.499  61.474  15.081  1.00  0.00     0.141 C 
HETATM   55  C29 UNL     1     -60.854  60.133  15.615  1.00  0.00     0.092 C 
HETATM   56  O13 UNL     1     -61.192  62.434  15.347  1.00  0.00    -0.297 OA
ENDBRANCH  15  54
TORSDOF 15
ENDMDL
MODEL 3
REMARK VINA RESULT: -7.303797148      3.286      5.566
REMARK  15 active torsions:
REMARK  status: ('A' for Active; 'I' for Inactive)
REMARK    1  A    between atoms: C2_2  and  O1_3 
REMARK    2  A    between atoms: O1_3  and  C3_4 
REMARK       I    between atoms: C3_4  and  N1_6 
REMARK    3  A    between atoms: N1_6  and  C4_8 
REMARK    4  A    between atoms: C5_12  and  C6_13 
REMARK    5  A    between atoms: C6_13  and  O3_14 
REMARK    6  A    between atoms: C6_13  and  O4_16 
REMARK    7  A    between atoms: C10_22  and  N3_23 
REMARK    8  A    between atoms: N3_23  and  C11_25 
REMARK    9  A    between atoms: C12_26  and  N4_27 
REMARK   10  A    between atoms: N4_27  and  C13_29 
REMARK   11  A    between atoms: C16_32  and  O6_33 
REMARK   12  A    between atoms: C23_42  and  O9_43 
REMARK   13  A    between atoms: C23_42  and  C24_45 
REMARK   14  A    between atoms: C24_45  and  O11_47 
REMARK   15  A    between atoms: C27_51  and  C28_52 
ROOT
HETATM    1  C4  UNL     1     -58.291  60.561   8.757  1.00  0.00     0.298 C 
HETATM    2  N2  UNL     1     -59.713  60.928   8.567  1.00  0.00    -0.041 N 
ATOM      3  H21 UNL     1     -60.363  60.316   9.062  1.00  0.00     0.280 HD
ATOM      4  H22 UNL     1     -60.061  60.740   7.627  1.00  0.00     0.280 HD
HETATM    5  C5  UNL     1     -59.816  62.323   8.957  1.00  0.00     0.285 C 
HETATM    6  C7  UNL     1     -58.865  62.353  10.105  1.00  0.00     0.165 C 
HETATM    7  O5  UNL     1     -58.239  63.515  10.418  1.00  0.00    -0.352 OA
HETATM    8  C8  UNL     1     -56.955  63.141  10.920  1.00  0.00     0.127 C 
HETATM    9  C9  UNL     1     -56.025  64.130  10.213  1.00  0.00     0.052 C 
HETATM   10  C10 UNL     1     -56.711  61.725  10.443  1.00  0.00     0.131 C 
HETATM   11  C22 UNL     1     -57.683  61.686   9.360  1.00  0.00     0.106 C 
HETATM   12  C23 UNL     1     -57.005  63.352  12.377  1.00  0.00     0.240 C 
HETATM   13  C26 UNL     1     -57.900  62.391  13.058  1.00  0.00     0.193 C 
HETATM   14  O12 UNL     1     -57.681  62.334  14.267  1.00  0.00    -0.293 OA
HETATM   15  C27 UNL     1     -58.977  61.502  12.634  1.00  0.00     0.201 C 
HETATM   16  C30 UNL     1     -59.386  61.595  11.225  1.00  0.00     0.182 C 
HETATM   17  O14 UNL     1     -60.352  60.886  10.981  1.00  0.00    -0.293 OA
ENDROOT
BRANCH  10  18
HETATM   18  N3  UNL     1     -55.358  61.603   9.955  1.00  0.00    -0.376 N 
ATOM     19  H3  UNL     1     -54.789  62.450   9.931  1.00  0.00     0.160 HD
BRANCH  18  20
HETATM   20  C11 UNL     1     -54.763  60.411   9.509  1.00  0.00     0.114 A 
HETATM   21  C12 UNL     1     -53.742  60.124   8.633  1.00  0.00     0.118 A 
HETATM   22  C20 UNL     1     -53.943  58.787   8.850  1.00  0.00     0.253 A 
HETATM   23  O7  UNL     1     -53.406  57.749   8.416  1.00  0.00    -0.281 OA
HETATM   24  C21 UNL     1     -54.956  59.072   9.722  1.00  0.00     0.252 A 
HETATM   25  O8  UNL     1     -55.752  58.355  10.437  1.00  0.00    -0.281 OA
BRANCH  21  26
HETATM   26  N4  UNL     1     -52.816  60.882   7.835  1.00  0.00    -0.351 N 
ATOM     27  H4  UNL     1     -52.520  61.804   8.156  1.00  0.00     0.166 HD
BRANCH  26  28
HETATM   28  C13 UNL     1     -52.304  60.376   6.611  1.00  0.00     0.032 A 
HETATM   29  C14 UNL     1     -53.079  60.343   5.470  1.00  0.00     0.032 A 
HETATM   30  C15 UNL     1     -52.647  59.874   4.249  1.00  0.00     0.039 A 
HETATM   31  C16 UNL     1     -51.362  59.399   4.129  1.00  0.00     0.068 A 
HETATM   32  C18 UNL     1     -50.558  59.418   5.260  1.00  0.00     0.039 A 
HETATM   33  C19 UNL     1     -51.008  59.890   6.473  1.00  0.00     0.032 A 
BRANCH  31  34
HETATM   34  O6  UNL     1     -50.869  58.911   2.913  1.00  0.00    -0.356 OA
HETATM   35  C17 UNL     1     -51.282  57.664   2.432  1.00  0.00     0.210 C 
ENDBRANCH  31  34
ENDBRANCH  26  28
ENDBRANCH  21  26
ENDBRANCH  18  20
ENDBRANCH  10  18
BRANCH  12  36
HETATM   36  O9  UNL     1     -57.598  64.630  12.563  1.00  0.00    -0.370 OA
ATOM     37  H9  UNL     1     -56.881  65.253  12.545  1.00  0.00     0.212 HD
ENDBRANCH  12  36
BRANCH  12  38
HETATM   38  C24 UNL     1     -55.699  63.327  13.052  1.00  0.00     0.304 C 
HETATM   39  O10 UNL     1     -55.398  64.278  13.865  1.00  0.00    -0.261 OA
BRANCH  38  40
HETATM   40  O11 UNL     1     -54.765  62.351  12.882  1.00  0.00    -0.324 OA
HETATM   41  C25 UNL     1     -53.377  62.483  12.806  1.00  0.00     0.213 C 
ENDBRANCH  38  40
ENDBRANCH  12  38
BRANCH   1  42
HETATM   42  N1  UNL     1     -58.171  59.266   9.341  1.00  0.00    -0.308 N 
HETATM   43  C3  UNL     1     -58.708  58.145   8.635  1.00  0.00     0.362 C 
HETATM   44  O2  UNL     1     -59.283  58.319   7.506  1.00  0.00    -0.238 OA
ATOM     45  H1  UNL     1     -57.713  59.143  10.243  1.00  0.00     0.166 HD
BRANCH  43  46
HETATM   46  O1  UNL     1     -58.662  56.840   9.069  1.00  0.00    -0.304 OA
BRANCH  46  47
HETATM   47  C2  UNL     1     -59.760  56.174   9.675  1.00  0.00     0.176 C 
HETATM   48  C1  UNL     1     -59.919  56.616  11.111  1.00  0.00     0.034 C 
ENDBRANCH  46  47
ENDBRANCH  43  46
ENDBRANCH   1  42
BRANCH   5  49
HETATM   49  C6  UNL     1     -59.619  63.307   7.881  1.00  0.00     0.288 C 
BRANCH  49  50
HETATM   50  O3  UNL     1     -60.875  63.529   7.264  1.00  0.00    -0.369 OA
ATOM     51  H3  UNL     1     -61.442  63.944   7.904  1.00  0.00     0.212 HD
ENDBRANCH  49  50
BRANCH  49  52
HETATM   52  O4  UNL     1     -59.146  64.513   8.434  1.00  0.00    -0.369 OA
ATOM     53  H4  UNL     1     -59.859  65.139   8.478  1.00  0.00     0.212 HD
ENDBRANCH  49  52
ENDBRANCH   5  49
BRANCH  15  54
HETATM   54  C28 UNL     1     -60.191  61.892  13.453  1.00  0.00     0.141 C 
HETATM   55  C29 UNL     1     -60.798  63.242  13.312  1.00  0.00     0.092 C 
HETATM   56  O13 UNL     1     -60.670  61.092  14.230  1.00  0.00    -0.297 OA
ENDBRANCH  15  54
TORSDOF 15
ENDMDL
MODEL 4
REMARK VINA RESULT: -7.143997980      2.196      4.067
REMARK  15 active torsions:
REMARK  status: ('A' for Active; 'I' for Inactive)
REMARK    1  A    between atoms: C2_2  and  O1_3 
REMARK    2  A    between atoms: O1_3  and  C3_4 
REMARK       I    between atoms: C3_4  and  N1_6 
REMARK    3  A    between atoms: N1_6  and  C4_8 
REMARK    4  A    between atoms: C5_12  and  C6_13 
REMARK    5  A    between atoms: C6_13  and  O3_14 
REMARK    6  A    between atoms: C6_13  and  O4_16 
REMARK    7  A    between atoms: C10_22  and  N3_23 
REMARK    8  A    between atoms: N3_23  and  C11_25 
REMARK    9  A    between atoms: C12_26  and  N4_27 
REMARK   10  A    between atoms: N4_27  and  C13_29 
REMARK   11  A    between atoms: C16_32  and  O6_33 
REMARK   12  A    between atoms: C23_42  and  O9_43 
REMARK   13  A    between atoms: C23_42  and  C24_45 
REMARK   14  A    between atoms: C24_45  and  O11_47 
REMARK   15  A    between atoms: C27_51  and  C28_52 
ROOT
HETATM    1  C4  UNL     1     -58.595  62.422  10.265  1.00  0.00     0.298 C 
HETATM    2  N2  UNL     1     -60.071  62.463  10.158  1.00  0.00    -0.041 N 
ATOM      3  H21 UNL     1     -60.520  61.569  10.358  1.00  0.00     0.280 HD
ATOM      4  H22 UNL     1     -60.408  62.556   9.199  1.00  0.00     0.280 HD
HETATM    5  C5  UNL     1     -60.501  63.540  11.032  1.00  0.00     0.285 C 
HETATM    6  C7  UNL     1     -59.531  63.379  12.153  1.00  0.00     0.165 C 
HETATM    7  O5  UNL     1     -59.202  64.460  12.905  1.00  0.00    -0.352 OA
HETATM    8  C8  UNL     1     -57.840  64.261  13.293  1.00  0.00     0.127 C 
HETATM    9  C9  UNL     1     -57.226  65.642  13.050  1.00  0.00     0.052 C 
HETATM   10  C10 UNL     1     -57.274  63.234  12.336  1.00  0.00     0.131 C 
HETATM   11  C22 UNL     1     -58.258  63.357  11.271  1.00  0.00     0.106 C 
HETATM   12  C23 UNL     1     -57.868  63.897  14.721  1.00  0.00     0.240 C 
HETATM   13  C26 UNL     1     -58.457  62.560  14.952  1.00  0.00     0.193 C 
HETATM   14  O12 UNL     1     -58.170  62.115  16.062  1.00  0.00    -0.293 OA
HETATM   15  C27 UNL     1     -59.297  61.651  14.176  1.00  0.00     0.201 C 
HETATM   16  C30 UNL     1     -59.787  62.155  12.885  1.00  0.00     0.182 C 
HETATM   17  O14 UNL     1     -60.556  61.369  12.349  1.00  0.00    -0.293 OA
ENDROOT
BRANCH  10  18
HETATM   18  N3  UNL     1     -55.960  63.647  11.903  1.00  0.00    -0.376 N 
ATOM     19  H3  UNL     1     -55.891  64.518  11.377  1.00  0.00     0.160 HD
BRANCH  18  20
HETATM   20  C11 UNL     1     -54.769  62.943  12.149  1.00  0.00     0.114 A 
HETATM   21  C12 UNL     1     -54.321  61.684  11.825  1.00  0.00     0.118 A 
HETATM   22  C20 UNL     1     -53.156  61.935  12.498  1.00  0.00     0.253 A 
HETATM   23  O7  UNL     1     -52.121  61.273  12.717  1.00  0.00    -0.281 OA
HETATM   24  C21 UNL     1     -53.599  63.186  12.819  1.00  0.00     0.252 A 
HETATM   25  O8  UNL     1     -53.102  64.172  13.483  1.00  0.00    -0.281 OA
BRANCH  21  26
HETATM   26  N4  UNL     1     -54.823  60.566  11.074  1.00  0.00    -0.351 N 
ATOM     27  H4  UNL     1     -55.683  60.107  11.377  1.00  0.00     0.166 HD
BRANCH  26  28
HETATM   28  C13 UNL     1     -54.150  60.085   9.920  1.00  0.00     0.032 A 
HETATM   29  C14 UNL     1     -54.701  59.097   9.129  1.00  0.00     0.032 A 
HETATM   30  C15 UNL     1     -54.108  58.589   7.993  1.00  0.00     0.039 A 
HETATM   31  C16 UNL     1     -52.887  59.079   7.597  1.00  0.00     0.068 A 
HETATM   32  C18 UNL     1     -52.307  60.073   8.373  1.00  0.00     0.039 A 
HETATM   33  C19 UNL     1     -52.914  60.568   9.506  1.00  0.00     0.032 A 
BRANCH  31  34
HETATM   34  O6  UNL     1     -52.239  58.600   6.452  1.00  0.00    -0.356 OA
HETATM   35  C17 UNL     1     -51.400  59.438   5.711  1.00  0.00     0.210 C 
ENDBRANCH  31  34
ENDBRANCH  26  28
ENDBRANCH  21  26
ENDBRANCH  18  20
ENDBRANCH  10  18
BRANCH  12  36
HETATM   36  O9  UNL     1     -58.753  64.821  15.338  1.00  0.00    -0.370 OA
ATOM     37  H9  UNL     1     -59.085  65.370  14.638  1.00  0.00     0.212 HD
ENDBRANCH  12  36
BRANCH  12  38
HETATM   38  C24 UNL     1     -56.565  63.953  15.399  1.00  0.00     0.304 C 
HETATM   39  O10 UNL     1     -55.719  63.004  15.203  1.00  0.00    -0.261 OA
BRANCH  38  40
HETATM   40  O11 UNL     1     -56.177  64.955  16.234  1.00  0.00    -0.324 OA
HETATM   41  C25 UNL     1     -55.042  65.765  16.148  1.00  0.00     0.213 C 
ENDBRANCH  38  40
ENDBRANCH  12  38
BRANCH   1  42
HETATM   42  N1  UNL     1     -58.124  61.078  10.331  1.00  0.00    -0.308 N 
HETATM   43  C3  UNL     1     -58.447  60.187   9.261  1.00  0.00     0.362 C 
HETATM   44  O2  UNL     1     -59.146  60.603   8.275  1.00  0.00    -0.238 OA
ATOM     45  H1  UNL     1     -57.570  60.759  11.125  1.00  0.00     0.166 HD
BRANCH  43  46
HETATM   46  O1  UNL     1     -58.060  58.869   9.184  1.00  0.00    -0.304 OA
BRANCH  46  47
HETATM   47  C2  UNL     1     -58.657  57.924   8.309  1.00  0.00     0.176 C 
HETATM   48  C1  UNL     1     -57.742  57.631   7.142  1.00  0.00     0.034 C 
ENDBRANCH  46  47
ENDBRANCH  43  46
ENDBRANCH   1  42
BRANCH   5  49
HETATM   49  C6  UNL     1     -60.612  64.868  10.409  1.00  0.00     0.288 C 
BRANCH  49  50
HETATM   50  O3  UNL     1     -61.546  64.770   9.349  1.00  0.00    -0.369 OA
ATOM     51  H3  UNL     1     -61.330  63.996   8.843  1.00  0.00     0.212 HD
ENDBRANCH  49  50
BRANCH  49  52
HETATM   52  O4  UNL     1     -61.079  65.792  11.365  1.00  0.00    -0.369 OA
ATOM     53  H4  UNL     1     -61.258  65.337  12.179  1.00  0.00     0.212 HD
ENDBRANCH  49  52
ENDBRANCH   5  49
BRANCH  15  54
HETATM   54  C28 UNL     1     -60.528  61.391  15.023  1.00  0.00     0.141 C 
HETATM   55  C29 UNL     1     -60.838  60.019  15.506  1.00  0.00     0.092 C 
HETATM   56  O13 UNL     1     -61.263  62.313  15.307  1.00  0.00    -0.297 OA
ENDBRANCH  15  54
TORSDOF 15
ENDMDL
MODEL 5
REMARK VINA RESULT: -6.880649001      2.786      7.131
REMARK  15 active torsions:
REMARK  status: ('A' for Active; 'I' for Inactive)
REMARK    1  A    between atoms: C2_2  and  O1_3 
REMARK    2  A    between atoms: O1_3  and  C3_4 
REMARK       I    between atoms: C3_4  and  N1_6 
REMARK    3  A    between atoms: N1_6  and  C4_8 
REMARK    4  A    between atoms: C5_12  and  C6_13 
REMARK    5  A    between atoms: C6_13  and  O3_14 
REMARK    6  A    between atoms: C6_13  and  O4_16 
REMARK    7  A    between atoms: C10_22  and  N3_23 
REMARK    8  A    between atoms: N3_23  and  C11_25 
REMARK    9  A    between atoms: C12_26  and  N4_27 
REMARK   10  A    between atoms: N4_27  and  C13_29 
REMARK   11  A    between atoms: C16_32  and  O6_33 
REMARK   12  A    between atoms: C23_42  and  O9_43 
REMARK   13  A    between atoms: C23_42  and  C24_45 
REMARK   14  A    between atoms: C24_45  and  O11_47 
REMARK   15  A    between atoms: C27_51  and  C28_52 
ROOT
HETATM    1  C4  UNL     1     -57.521  63.050  12.870  1.00  0.00     0.298 C 
HETATM    2  N2  UNL     1     -58.742  63.776  13.284  1.00  0.00    -0.041 N 
ATOM      3  H21 UNL     1     -58.765  64.748  12.973  1.00  0.00     0.280 HD
ATOM      4  H22 UNL     1     -58.784  63.968  14.285  1.00  0.00     0.280 HD
HETATM    5  C5  UNL     1     -59.858  62.983  12.797  1.00  0.00     0.285 C 
HETATM    6  C7  UNL     1     -59.304  62.510  11.497  1.00  0.00     0.165 C 
HETATM    7  O5  UNL     1     -59.749  61.341  10.972  1.00  0.00    -0.352 OA
HETATM    8  C8  UNL     1     -58.633  60.778  10.278  1.00  0.00     0.127 C 
HETATM    9  C9  UNL     1     -58.684  59.311  10.711  1.00  0.00     0.052 C 
HETATM   10  C10 UNL     1     -57.403  61.468  10.827  1.00  0.00     0.131 C 
HETATM   11  C22 UNL     1     -57.968  61.974  12.069  1.00  0.00     0.106 C 
HETATM   12  C23 UNL     1     -58.910  60.954   8.842  1.00  0.00     0.240 C 
HETATM   13  C26 UNL     1     -58.854  62.373   8.425  1.00  0.00     0.193 C 
HETATM   14  O12 UNL     1     -58.737  62.491   7.206  1.00  0.00    -0.293 OA
HETATM   15  C27 UNL     1     -58.908  63.657   9.117  1.00  0.00     0.201 C 
HETATM   16  C30 UNL     1     -59.169  63.611  10.563  1.00  0.00     0.182 C 
HETATM   17  O14 UNL     1     -59.291  64.729  11.042  1.00  0.00    -0.293 OA
ENDROOT
BRANCH  10  18
HETATM   18  N3  UNL     1     -56.366  60.492  11.067  1.00  0.00    -0.376 N 
ATOM     19  H3  UNL     1     -56.657  59.561  11.364  1.00  0.00     0.160 HD
BRANCH  18  20
HETATM   20  C11 UNL     1     -54.988  60.724  10.926  1.00  0.00     0.114 A 
HETATM   21  C12 UNL     1     -54.016  60.221  10.092  1.00  0.00     0.118 A 
HETATM   22  C20 UNL     1     -53.083  60.996  10.726  1.00  0.00     0.253 A 
HETATM   23  O7  UNL     1     -51.854  61.161  10.586  1.00  0.00    -0.281 OA
HETATM   24  C21 UNL     1     -54.047  61.497  11.553  1.00  0.00     0.252 A 
HETATM   25  O8  UNL     1     -54.045  62.347  12.521  1.00  0.00    -0.281 OA
BRANCH  21  26
HETATM   26  N4  UNL     1     -53.972  59.297   8.991  1.00  0.00    -0.351 N 
ATOM     27  H4  UNL     1     -54.512  58.433   9.043  1.00  0.00     0.166 HD
BRANCH  26  28
HETATM   28  C13 UNL     1     -53.193  59.560   7.833  1.00  0.00     0.032 A 
HETATM   29  C14 UNL     1     -51.833  59.329   7.817  1.00  0.00     0.032 A 
HETATM   30  C15 UNL     1     -51.018  59.553   6.729  1.00  0.00     0.039 A 
HETATM   31  C16 UNL     1     -51.568  60.040   5.567  1.00  0.00     0.068 A 
HETATM   32  C18 UNL     1     -52.935  60.284   5.553  1.00  0.00     0.039 A 
HETATM   33  C19 UNL     1     -53.734  60.055   6.651  1.00  0.00     0.032 A 
BRANCH  31  34
HETATM   34  O6  UNL     1     -50.789  60.287   4.431  1.00  0.00    -0.356 OA
HETATM   35  C17 UNL     1     -50.763  59.368   3.376  1.00  0.00     0.210 C 
ENDBRANCH  31  34
ENDBRANCH  26  28
ENDBRANCH  21  26
ENDBRANCH  18  20
ENDBRANCH  10  18
BRANCH  12  36
HETATM   36  O9  UNL     1     -60.259  60.550   8.655  1.00  0.00    -0.370 OA
ATOM     37  H9  UNL     1     -60.293  60.150   7.794  1.00  0.00     0.212 HD
ENDBRANCH  12  36
BRANCH  12  38
HETATM   38  C24 UNL     1     -58.046  60.174   7.944  1.00  0.00     0.304 C 
HETATM   39  O10 UNL     1     -56.770  60.313   8.029  1.00  0.00    -0.261 OA
BRANCH  38  40
HETATM   40  O11 UNL     1     -58.504  59.293   7.012  1.00  0.00    -0.324 OA
HETATM   41  C25 UNL     1     -58.148  57.954   6.836  1.00  0.00     0.213 C 
ENDBRANCH  38  40
ENDBRANCH  12  38
BRANCH   1  42
HETATM   42  N1  UNL     1     -56.527  63.952  12.392  1.00  0.00    -0.308 N 
HETATM   43  C3  UNL     1     -56.040  64.965  13.277  1.00  0.00     0.362 C 
HETATM   44  O2  UNL     1     -56.501  65.047  14.467  1.00  0.00    -0.238 OA
ATOM     45  H1  UNL     1     -56.170  63.877  11.440  1.00  0.00     0.166 HD
BRANCH  43  46
HETATM   46  O1  UNL     1     -55.081  65.899  12.959  1.00  0.00    -0.304 OA
BRANCH  46  47
HETATM   47  C2  UNL     1     -54.805  67.043  13.753  1.00  0.00     0.176 C 
HETATM   48  C1  UNL     1     -53.911  68.003  13.004  1.00  0.00     0.034 C 
ENDBRANCH  46  47
ENDBRANCH  43  46
ENDBRANCH   1  42
BRANCH   5  49
HETATM   49  C6  UNL     1     -60.380  61.970  13.727  1.00  0.00     0.288 C 
BRANCH  49  50
HETATM   50  O3  UNL     1     -60.690  62.621  14.946  1.00  0.00    -0.369 OA
ATOM     51  H3  UNL     1     -59.872  62.898  15.343  1.00  0.00     0.212 HD
ENDBRANCH  49  50
BRANCH  49  52
HETATM   52  O4  UNL     1     -61.549  61.401  13.186  1.00  0.00    -0.369 OA
ATOM     53  H4  UNL     1     -62.285  61.599  13.753  1.00  0.00     0.212 HD
ENDBRANCH  49  52
ENDBRANCH   5  49
BRANCH  15  54
HETATM   54  C28 UNL     1     -60.067  64.417   8.503  1.00  0.00     0.141 C 
HETATM   55  C29 UNL     1     -59.876  65.220   7.266  1.00  0.00     0.092 C 
HETATM   56  O13 UNL     1     -61.160  64.367   9.028  1.00  0.00    -0.297 OA
ENDBRANCH  15  54
TORSDOF 15
ENDMDL
