MODEL 1
REMARK VINA RESULT: -7.755077886      0.000      0.000
REMARK  18 active torsions:
REMARK  status: ('A' for Active; 'I' for Inactive)
REMARK    1  A    between atoms: O1_2  and  C2_3 
REMARK    2  A    between atoms: C4_5  and  O2_6 
REMARK    3  A    between atoms: O2_6  and  C5_7 
REMARK    4  A    between atoms: C5_7  and  C6_9 
REMARK    5  A    between atoms: C7_10  and  C8_11 
REMARK    6  A    between atoms: C8_11  and  S1_12 
REMARK    7  A    between atoms: S1_12  and  C9_13 
REMARK    8  A    between atoms: C12_24  and  N5_25 
REMARK    9  A    between atoms: N5_25  and  C13_28 
REMARK   10  A    between atoms: C13_28  and  O4_29 
REMARK   11  A    between atoms: C13_28  and  C14_31 
REMARK   12  A    between atoms: C14_31  and  C15_33 
REMARK   13  A    between atoms: C15_33  and  O6_34 
REMARK   14  A    between atoms: C18_39  and  O8_41 
REMARK   15  A    between atoms: C20_43  and  C21_44 
REMARK   16  A    between atoms: C22_47  and  O11_48 
REMARK   17  A    between atoms: C23_50  and  O12_51 
REMARK   18  A    between atoms: C24_53  and  O13_54 
ROOT
HETATM    1  C6  UNL     1     -55.353  60.079   9.570  1.00  0.00     0.045 C 
HETATM    2  C7  UNL     1     -54.493  59.810   8.571  1.00  0.00    -0.047 C 
HETATM    3  C10 UNL     1     -54.664  58.688   7.600  1.00  0.00     0.110 C 
HETATM    4  S2  UNL     1     -56.223  57.841   7.627  1.00  0.00    -0.156 SA
HETATM    5  C11 UNL     1     -56.848  58.074   9.321  1.00  0.00     0.112 C 
HETATM    6  C12 UNL     1     -58.264  57.564   9.362  1.00  0.00     0.273 C 
HETATM    7  C16 UNL     1     -59.250  58.505   8.802  1.00  0.00     0.161 C 
HETATM    8  O7  UNL     1     -60.085  58.150   8.017  1.00  0.00    -0.296 OA
HETATM    9  C17 UNL     1     -59.143  59.905   9.269  1.00  0.00     0.119 C 
HETATM   10  C18 UNL     1     -57.755  60.395   9.088  1.00  0.00     0.084 C 
HETATM   11  C19 UNL     1     -57.559  60.598   7.600  1.00  0.00     0.048 C 
HETATM   12  C20 UNL     1     -56.713  59.505   9.736  1.00  0.00     0.127 C 
ENDROOT
BRANCH   1  13
HETATM   13  C5  UNL     1     -54.938  61.133  10.500  1.00  0.00     0.296 C 
HETATM   14  O3  UNL     1     -55.146  62.374  10.323  1.00  0.00    -0.259 OA
BRANCH  13  15
HETATM   15  O2  UNL     1     -54.248  60.949  11.710  1.00  0.00    -0.272 OA
BRANCH  15  16
HETATM   16  C4  UNL     1     -53.539  62.009  12.266  1.00  0.00     0.118 A 
HETATM   17  C3  UNL     1     -54.194  62.988  12.981  1.00  0.00     0.080 A 
HETATM   18  C2  UNL     1     -53.477  64.037  13.541  1.00  0.00     0.107 A 
HETATM   19  C24 UNL     1     -52.112  64.105  13.383  1.00  0.00     0.138 A 
HETATM   20  C23 UNL     1     -51.452  63.139  12.671  1.00  0.00     0.138 A 
HETATM   21  C22 UNL     1     -52.192  62.088  12.114  1.00  0.00     0.136 A 
BRANCH  18  22
HETATM   22  O1  UNL     1     -54.132  65.032  14.267  1.00  0.00    -0.353 OA
HETATM   23  C1  UNL     1     -54.896  66.056  13.666  1.00  0.00     0.210 C 
ENDBRANCH  18  22
BRANCH  19  24
HETATM   24  O13 UNL     1     -51.400  65.159  13.955  1.00  0.00    -0.351 OA
HETATM   25  C25 UNL     1     -51.177  66.292  13.095  1.00  0.00     0.210 C 
ENDBRANCH  19  24
BRANCH  20  26
HETATM   26  O12 UNL     1     -50.054  63.221  12.514  1.00  0.00    -0.356 OA
ATOM     27  H12 UNL     1     -49.540  62.472  12.237  1.00  0.00     0.218 HD
ENDBRANCH  20  26
BRANCH  21  28
HETATM   28  O11 UNL     1     -51.417  61.179  11.414  1.00  0.00    -0.356 OA
ATOM     29  H11 UNL     1     -50.996  60.416  11.793  1.00  0.00     0.218 HD
ENDBRANCH  21  28
ENDBRANCH  15  16
ENDBRANCH  13  15
ENDBRANCH   1  13
BRANCH   2  30
HETATM   30  C8  UNL     1     -53.222  60.536   8.385  1.00  0.00     0.118 C 
BRANCH  30  31
HETATM   31  S1  UNL     1     -51.818  59.532   7.992  1.00  0.00    -0.087 SA
BRANCH  31  32
HETATM   32  C9  UNL     1     -50.755  60.105   6.728  1.00  0.00     0.173 A 
HETATM   33  N1  UNL     1     -49.621  59.664   6.224  1.00  0.00    -0.261 N 
HETATM   34  N2  UNL     1     -49.228  60.482   5.262  1.00  0.00    -0.005 NA
ATOM     35  H1  UNL     1     -49.124  58.826   6.527  1.00  0.00     0.186 HD
HETATM   36  N3  UNL     1     -50.117  61.456   5.150  1.00  0.00    -0.224 N 
HETATM   37  N4  UNL     1     -51.059  61.252   6.028  1.00  0.00    -0.266 N 
ATOM     38  H3  UNL     1     -50.074  62.232   4.490  1.00  0.00     0.205 HD
ATOM     39  H4  UNL     1     -51.879  61.841   6.172  1.00  0.00     0.190 HD
ENDBRANCH  31  32
ENDBRANCH  30  31
ENDBRANCH   2  30
BRANCH  12  40
HETATM   40  C21 UNL     1     -57.000  59.476  11.188  1.00  0.00     0.191 C 
HETATM   41  O9  UNL     1     -56.425  58.527  11.825  1.00  0.00    -0.647 OA
HETATM   42  O10 UNL     1     -57.788  60.328  11.903  1.00  0.00    -0.647 OA
ENDBRANCH  12  40
BRANCH  10  43
HETATM   43  O8  UNL     1     -57.660  61.664   9.630  1.00  0.00    -0.388 OA
ATOM     44  H8  UNL     1     -56.863  62.071   9.312  1.00  0.00     0.210 HD
ENDBRANCH  10  43
BRANCH   6  45
HETATM   45  N5  UNL     1     -58.660  57.103  10.646  1.00  0.00    -0.030 N 
ATOM     46  H52 UNL     1     -57.851  56.810  11.195  1.00  0.00     0.281 HD
ATOM     47  H51 UNL     1     -58.983  57.875  11.228  1.00  0.00     0.281 HD
BRANCH  45  48
HETATM   48  C13 UNL     1     -59.659  56.043  10.582  1.00  0.00     0.392 C 
BRANCH  48  49
HETATM   49  O4  UNL     1     -60.645  56.286  11.562  1.00  0.00    -0.364 OA
ATOM     50  H4  UNL     1     -60.440  55.778  12.337  1.00  0.00     0.212 HD
ENDBRANCH  48  49
BRANCH  48  51
HETATM   51  C14 UNL     1     -58.971  54.777  10.974  1.00  0.00     0.205 C 
HETATM   52  O5  UNL     1     -58.080  54.892  11.806  1.00  0.00    -0.291 OA
BRANCH  51  53
HETATM   53  C15 UNL     1     -59.368  53.502  10.374  1.00  0.00     0.247 C 
BRANCH  53  54
HETATM   54  O6  UNL     1     -60.681  53.138  10.698  1.00  0.00    -0.393 OA
ATOM     55  H6  UNL     1     -60.722  52.359  11.239  1.00  0.00     0.209 HD
ENDBRANCH  53  54
ENDBRANCH  51  53
ENDBRANCH  48  51
ENDBRANCH  45  48
ENDBRANCH   6  45
TORSDOF 18
ENDMDL
MODEL 2
REMARK VINA RESULT: -7.522994425      4.394      7.134
REMARK  18 active torsions:
REMARK  status: ('A' for Active; 'I' for Inactive)
REMARK    1  A    between atoms: O1_2  and  C2_3 
REMARK    2  A    between atoms: C4_5  and  O2_6 
REMARK    3  A    between atoms: O2_6  and  C5_7 
REMARK    4  A    between atoms: C5_7  and  C6_9 
REMARK    5  A    between atoms: C7_10  and  C8_11 
REMARK    6  A    between atoms: C8_11  and  S1_12 
REMARK    7  A    between atoms: S1_12  and  C9_13 
REMARK    8  A    between atoms: C12_24  and  N5_25 
REMARK    9  A    between atoms: N5_25  and  C13_28 
REMARK   10  A    between atoms: C13_28  and  O4_29 
REMARK   11  A    between atoms: C13_28  and  C14_31 
REMARK   12  A    between atoms: C14_31  and  C15_33 
REMARK   13  A    between atoms: C15_33  and  O6_34 
REMARK   14  A    between atoms: C18_39  and  O8_41 
REMARK   15  A    between atoms: C20_43  and  C21_44 
REMARK   16  A    between atoms: C22_47  and  O11_48 
REMARK   17  A    between atoms: C23_50  and  O12_51 
REMARK   18  A    between atoms: C24_53  and  O13_54 
ROOT
HETATM    1  C6  UNL     1     -56.119  60.657   9.773  1.00  0.00     0.045 C 
HETATM    2  C7  UNL     1     -55.145  61.343  10.399  1.00  0.00    -0.047 C 
HETATM    3  C10 UNL     1     -55.252  62.781  10.789  1.00  0.00     0.110 C 
HETATM    4  S2  UNL     1     -56.853  63.531  10.639  1.00  0.00    -0.156 SA
HETATM    5  C11 UNL     1     -57.697  62.566   9.345  1.00  0.00     0.112 C 
HETATM    6  C12 UNL     1     -59.135  63.008   9.309  1.00  0.00     0.273 C 
HETATM    7  C16 UNL     1     -59.964  62.419  10.375  1.00  0.00     0.161 C 
HETATM    8  O7  UNL     1     -60.701  63.089  11.045  1.00  0.00    -0.296 OA
HETATM    9  C17 UNL     1     -59.829  60.957  10.564  1.00  0.00     0.119 C 
HETATM   10  C18 UNL     1     -58.399  60.597  10.720  1.00  0.00     0.084 C 
HETATM   11  C19 UNL     1     -57.979  61.079  12.093  1.00  0.00     0.048 C 
HETATM   12  C20 UNL     1     -57.525  61.100   9.589  1.00  0.00     0.127 C 
ENDROOT
BRANCH   1  13
HETATM   13  C5  UNL     1     -55.770  59.298   9.351  1.00  0.00     0.296 C 
HETATM   14  O3  UNL     1     -55.683  58.300  10.133  1.00  0.00    -0.259 OA
BRANCH  13  15
HETATM   15  O2  UNL     1     -55.470  58.886   8.042  1.00  0.00    -0.272 OA
BRANCH  15  16
HETATM   16  C4  UNL     1     -54.313  59.350   7.423  1.00  0.00     0.118 A 
HETATM   17  C3  UNL     1     -54.393  60.142   6.298  1.00  0.00     0.080 A 
HETATM   18  C2  UNL     1     -53.234  60.610   5.694  1.00  0.00     0.107 A 
HETATM   19  C24 UNL     1     -52.002  60.283   6.212  1.00  0.00     0.138 A 
HETATM   20  C23 UNL     1     -51.911  59.493   7.328  1.00  0.00     0.138 A 
HETATM   21  C22 UNL     1     -53.092  59.031   7.925  1.00  0.00     0.136 A 
BRANCH  18  22
HETATM   22  O1  UNL     1     -53.306  61.412   4.556  1.00  0.00    -0.353 OA
HETATM   23  C1  UNL     1     -53.319  60.896   3.241  1.00  0.00     0.210 C 
ENDBRANCH  18  22
BRANCH  19  24
HETATM   24  O13 UNL     1     -50.844  60.762   5.601  1.00  0.00    -0.351 OA
HETATM   25  C25 UNL     1     -50.216  59.859   4.672  1.00  0.00     0.210 C 
ENDBRANCH  19  24
BRANCH  20  26
HETATM   26  O12 UNL     1     -50.644  59.163   7.848  1.00  0.00    -0.356 OA
ATOM     27  H12 UNL     1     -49.993  58.713   7.323  1.00  0.00     0.218 HD
ENDBRANCH  20  26
BRANCH  21  28
HETATM   28  O11 UNL     1     -52.873  58.240   9.039  1.00  0.00    -0.356 OA
ATOM     29  H11 UNL     1     -53.370  57.461   9.261  1.00  0.00     0.218 HD
ENDBRANCH  21  28
ENDBRANCH  15  16
ENDBRANCH  13  15
ENDBRANCH   1  13
BRANCH   2  30
HETATM   30  C8  UNL     1     -53.813  60.773  10.682  1.00  0.00     0.118 C 
BRANCH  30  31
HETATM   31  S1  UNL     1     -52.539  61.948  11.038  1.00  0.00    -0.087 SA
BRANCH  31  32
HETATM   32  C9  UNL     1     -52.674  62.847  12.532  1.00  0.00     0.173 A 
HETATM   33  N1  UNL     1     -52.567  64.123  12.840  1.00  0.00    -0.261 N 
HETATM   34  N2  UNL     1     -52.768  64.274  14.138  1.00  0.00    -0.005 NA
ATOM     35  H1  UNL     1     -52.362  64.875  12.182  1.00  0.00     0.186 HD
HETATM   36  N3  UNL     1     -53.003  63.083  14.667  1.00  0.00    -0.224 N 
HETATM   37  N4  UNL     1     -52.955  62.196  13.714  1.00  0.00    -0.266 N 
ATOM     38  H3  UNL     1     -53.191  62.893  15.652  1.00  0.00     0.205 HD
ATOM     39  H4  UNL     1     -53.099  61.192  13.825  1.00  0.00     0.190 HD
ENDBRANCH  31  32
ENDBRANCH  30  31
ENDBRANCH   2  30
BRANCH  12  40
HETATM   40  C21 UNL     1     -58.018  60.477   8.340  1.00  0.00     0.191 C 
HETATM   41  O9  UNL     1     -57.577  61.018   7.266  1.00  0.00    -0.647 OA
HETATM   42  O10 UNL     1     -58.867  59.419   8.210  1.00  0.00    -0.647 OA
ENDBRANCH  12  40
BRANCH  10  43
HETATM   43  O8  UNL     1     -58.296  59.218  10.787  1.00  0.00    -0.388 OA
ATOM     44  H8  UNL     1     -58.477  58.858   9.926  1.00  0.00     0.210 HD
ENDBRANCH  10  43
BRANCH   6  45
HETATM   45  N5  UNL     1     -59.742  62.847   8.034  1.00  0.00    -0.030 N 
ATOM     46  H52 UNL     1     -59.548  61.922   7.651  1.00  0.00     0.281 HD
ATOM     47  H51 UNL     1     -60.756  62.783   8.118  1.00  0.00     0.281 HD
BRANCH  45  48
HETATM   48  C13 UNL     1     -59.361  63.893   7.092  1.00  0.00     0.392 C 
BRANCH  48  49
HETATM   49  O4  UNL     1     -58.331  64.669   7.663  1.00  0.00    -0.364 OA
ATOM     50  H4  UNL     1     -58.231  65.468   7.158  1.00  0.00     0.212 HD
ENDBRANCH  48  49
BRANCH  48  51
HETATM   51  C14 UNL     1     -60.543  64.793   6.945  1.00  0.00     0.205 C 
HETATM   52  O5  UNL     1     -61.184  64.665   5.910  1.00  0.00    -0.291 OA
BRANCH  51  53
HETATM   53  C15 UNL     1     -60.876  65.755   7.998  1.00  0.00     0.247 C 
BRANCH  53  54
HETATM   54  O6  UNL     1     -61.549  65.166   9.075  1.00  0.00    -0.393 OA
ATOM     55  H6  UNL     1     -62.493  65.181   8.969  1.00  0.00     0.209 HD
ENDBRANCH  53  54
ENDBRANCH  51  53
ENDBRANCH  48  51
ENDBRANCH  45  48
ENDBRANCH   6  45
TORSDOF 18
ENDMDL
MODEL 3
REMARK VINA RESULT: -7.511567296      3.926      7.181
REMARK  18 active torsions:
REMARK  status: ('A' for Active; 'I' for Inactive)
REMARK    1  A    between atoms: O1_2  and  C2_3 
REMARK    2  A    between atoms: C4_5  and  O2_6 
REMARK    3  A    between atoms: O2_6  and  C5_7 
REMARK    4  A    between atoms: C5_7  and  C6_9 
REMARK    5  A    between atoms: C7_10  and  C8_11 
REMARK    6  A    between atoms: C8_11  and  S1_12 
REMARK    7  A    between atoms: S1_12  and  C9_13 
REMARK    8  A    between atoms: C12_24  and  N5_25 
REMARK    9  A    between atoms: N5_25  and  C13_28 
REMARK   10  A    between atoms: C13_28  and  O4_29 
REMARK   11  A    between atoms: C13_28  and  C14_31 
REMARK   12  A    between atoms: C14_31  and  C15_33 
REMARK   13  A    between atoms: C15_33  and  O6_34 
REMARK   14  A    between atoms: C18_39  and  O8_41 
REMARK   15  A    between atoms: C20_43  and  C21_44 
REMARK   16  A    between atoms: C22_47  and  O11_48 
REMARK   17  A    between atoms: C23_50  and  O12_51 
REMARK   18  A    between atoms: C24_53  and  O13_54 
ROOT
HETATM    1  C6  UNL     1     -57.657  59.855  11.443  1.00  0.00     0.045 C 
HETATM    2  C7  UNL     1     -58.528  59.047  12.074  1.00  0.00    -0.047 C 
HETATM    3  C10 UNL     1     -59.625  59.531  12.964  1.00  0.00     0.110 C 
HETATM    4  S2  UNL     1     -59.935  61.279  12.968  1.00  0.00    -0.156 SA
HETATM    5  C11 UNL     1     -58.346  62.032  12.492  1.00  0.00     0.112 C 
HETATM    6  C12 UNL     1     -58.585  63.501  12.268  1.00  0.00     0.273 C 
HETATM    7  C16 UNL     1     -59.194  63.812  10.963  1.00  0.00     0.161 C 
HETATM    8  O7  UNL     1     -60.134  64.551  10.865  1.00  0.00    -0.296 OA
HETATM    9  C17 UNL     1     -58.573  63.158   9.790  1.00  0.00     0.119 C 
HETATM   10  C18 UNL     1     -58.479  61.695  10.016  1.00  0.00     0.084 C 
HETATM   11  C19 UNL     1     -59.888  61.149   9.907  1.00  0.00     0.048 C 
HETATM   12  C20 UNL     1     -57.769  61.330  11.304  1.00  0.00     0.127 C 
ENDROOT
BRANCH   1  13
HETATM   13  C5  UNL     1     -56.568  59.182  10.729  1.00  0.00     0.296 C 
HETATM   14  O3  UNL     1     -55.607  58.569  11.290  1.00  0.00    -0.259 OA
BRANCH  13  15
HETATM   15  O2  UNL     1     -56.407  59.115   9.334  1.00  0.00    -0.272 OA
BRANCH  15  16
HETATM   16  C4  UNL     1     -55.188  59.470   8.765  1.00  0.00     0.118 A 
HETATM   17  C3  UNL     1     -54.215  60.082   9.525  1.00  0.00     0.080 A 
HETATM   18  C2  UNL     1     -52.997  60.423   8.952  1.00  0.00     0.107 A 
HETATM   19  C24 UNL     1     -52.757  60.153   7.624  1.00  0.00     0.138 A 
HETATM   20  C23 UNL     1     -53.718  59.547   6.859  1.00  0.00     0.138 A 
HETATM   21  C22 UNL     1     -54.941  59.210   7.455  1.00  0.00     0.136 A 
BRANCH  18  22
HETATM   22  O1  UNL     1     -52.007  61.043   9.714  1.00  0.00    -0.353 OA
HETATM   23  C1  UNL     1     -52.232  61.555  11.011  1.00  0.00     0.210 C 
ENDBRANCH  18  22
BRANCH  19  24
HETATM   24  O13 UNL     1     -51.528  60.494   7.059  1.00  0.00    -0.351 OA
HETATM   25  C25 UNL     1     -50.605  59.403   6.883  1.00  0.00     0.210 C 
ENDBRANCH  19  24
BRANCH  20  26
HETATM   26  O12 UNL     1     -53.462  59.278   5.500  1.00  0.00    -0.356 OA
ATOM     27  H12 UNL     1     -52.955  58.522   5.230  1.00  0.00     0.218 HD
ENDBRANCH  20  26
BRANCH  21  28
HETATM   28  O11 UNL     1     -55.832  58.610   6.583  1.00  0.00    -0.356 OA
ATOM     29  H11 UNL     1     -55.594  57.997   5.897  1.00  0.00     0.218 HD
ENDBRANCH  21  28
ENDBRANCH  15  16
ENDBRANCH  13  15
ENDBRANCH   1  13
BRANCH   2  30
HETATM   30  C8  UNL     1     -58.433  57.574  12.036  1.00  0.00     0.118 C 
BRANCH  30  31
HETATM   31  S1  UNL     1     -59.295  56.787  10.705  1.00  0.00    -0.087 SA
BRANCH  31  32
HETATM   32  C9  UNL     1     -59.058  57.442   9.101  1.00  0.00     0.173 A 
HETATM   33  N1  UNL     1     -59.482  58.529   8.491  1.00  0.00    -0.261 N 
HETATM   34  N2  UNL     1     -58.999  58.550   7.260  1.00  0.00    -0.005 NA
ATOM     35  H1  UNL     1     -60.087  59.241   8.901  1.00  0.00     0.186 HD
HETATM   36  N3  UNL     1     -58.260  57.467   7.080  1.00  0.00    -0.224 N 
HETATM   37  N4  UNL     1     -58.276  56.774   8.183  1.00  0.00    -0.266 N 
ATOM     38  H3  UNL     1     -57.764  57.217   6.225  1.00  0.00     0.205 HD
ATOM     39  H4  UNL     1     -57.793  55.889   8.340  1.00  0.00     0.190 HD
ENDBRANCH  31  32
ENDBRANCH  30  31
ENDBRANCH   2  30
BRANCH  12  40
HETATM   40  C21 UNL     1     -56.392  61.866  11.216  1.00  0.00     0.191 C 
HETATM   41  O9  UNL     1     -55.651  61.597  12.225  1.00  0.00    -0.647 OA
HETATM   42  O10 UNL     1     -55.841  62.594  10.204  1.00  0.00    -0.647 OA
ENDBRANCH  12  40
BRANCH  10  43
HETATM   43  O8  UNL     1     -57.801  61.126   8.953  1.00  0.00    -0.388 OA
ATOM     44  H8  UNL     1     -57.746  60.188   9.095  1.00  0.00     0.210 HD
ENDBRANCH  10  43
BRANCH   6  45
HETATM   45  N5  UNL     1     -57.434  64.301  12.506  1.00  0.00    -0.030 N 
ATOM     46  H52 UNL     1     -56.585  63.814  12.220  1.00  0.00     0.281 HD
ATOM     47  H51 UNL     1     -57.399  65.090  11.861  1.00  0.00     0.281 HD
BRANCH  45  48
HETATM   48  C13 UNL     1     -57.336  64.753  13.889  1.00  0.00     0.392 C 
BRANCH  48  49
HETATM   49  O4  UNL     1     -57.101  66.144  13.899  1.00  0.00    -0.364 OA
ATOM     50  H4  UNL     1     -56.791  66.397  14.761  1.00  0.00     0.212 HD
ENDBRANCH  48  49
BRANCH  48  51
HETATM   51  C14 UNL     1     -56.120  64.110  14.468  1.00  0.00     0.205 C 
HETATM   52  O5  UNL     1     -56.325  63.250  15.315  1.00  0.00    -0.291 OA
BRANCH  51  53
HETATM   53  C15 UNL     1     -54.786  64.515  14.023  1.00  0.00     0.247 C 
BRANCH  53  54
HETATM   54  O6  UNL     1     -54.641  64.463  12.631  1.00  0.00    -0.393 OA
ATOM     55  H6  UNL     1     -53.792  64.133  12.363  1.00  0.00     0.209 HD
ENDBRANCH  53  54
ENDBRANCH  51  53
ENDBRANCH  48  51
ENDBRANCH  45  48
ENDBRANCH   6  45
TORSDOF 18
ENDMDL
MODEL 4
REMARK VINA RESULT: -7.504671451      3.189      4.118
REMARK  18 active torsions:
REMARK  status: ('A' for Active; 'I' for Inactive)
REMARK    1  A    between atoms: O1_2  and  C2_3 
REMARK    2  A    between atoms: C4_5  and  O2_6 
REMARK    3  A    between atoms: O2_6  and  C5_7 
REMARK    4  A    between atoms: C5_7  and  C6_9 
REMARK    5  A    between atoms: C7_10  and  C8_11 
REMARK    6  A    between atoms: C8_11  and  S1_12 
REMARK    7  A    between atoms: S1_12  and  C9_13 
REMARK    8  A    between atoms: C12_24  and  N5_25 
REMARK    9  A    between atoms: N5_25  and  C13_28 
REMARK   10  A    between atoms: C13_28  and  O4_29 
REMARK   11  A    between atoms: C13_28  and  C14_31 
REMARK   12  A    between atoms: C14_31  and  C15_33 
REMARK   13  A    between atoms: C15_33  and  O6_34 
REMARK   14  A    between atoms: C18_39  and  O8_41 
REMARK   15  A    between atoms: C20_43  and  C21_44 
REMARK   16  A    between atoms: C22_47  and  O11_48 
REMARK   17  A    between atoms: C23_50  and  O12_51 
REMARK   18  A    between atoms: C24_53  and  O13_54 
ROOT
HETATM    1  C6  UNL     1     -56.775  61.458  11.203  1.00  0.00     0.045 C 
HETATM    2  C7  UNL     1     -55.522  61.445  10.713  1.00  0.00    -0.047 C 
HETATM    3  C10 UNL     1     -54.929  60.297   9.964  1.00  0.00     0.110 C 
HETATM    4  S2  UNL     1     -56.040  58.998   9.485  1.00  0.00    -0.156 SA
HETATM    5  C11 UNL     1     -57.393  59.075  10.701  1.00  0.00     0.112 C 
HETATM    6  C12 UNL     1     -58.479  58.142  10.236  1.00  0.00     0.273 C 
HETATM    7  C16 UNL     1     -59.325  58.700   9.167  1.00  0.00     0.161 C 
HETATM    8  O7  UNL     1     -59.590  58.073   8.179  1.00  0.00    -0.296 OA
HETATM    9  C17 UNL     1     -59.823  60.076   9.392  1.00  0.00     0.119 C 
HETATM   10  C18 UNL     1     -58.692  60.976   9.722  1.00  0.00     0.084 C 
HETATM   11  C19 UNL     1     -57.915  61.184   8.438  1.00  0.00     0.048 C 
HETATM   12  C20 UNL     1     -57.852  60.486  10.885  1.00  0.00     0.127 C 
ENDROOT
BRANCH   1  13
HETATM   13  C5  UNL     1     -57.123  62.619  12.027  1.00  0.00     0.296 C 
HETATM   14  O3  UNL     1     -57.504  63.741  11.569  1.00  0.00    -0.259 OA
BRANCH  13  15
HETATM   15  O2  UNL     1     -57.084  62.682  13.430  1.00  0.00    -0.272 OA
BRANCH  15  16
HETATM   16  C4  UNL     1     -56.573  63.817  14.053  1.00  0.00     0.118 A 
HETATM   17  C3  UNL     1     -57.348  64.949  14.188  1.00  0.00     0.080 A 
HETATM   18  C2  UNL     1     -56.834  66.073  14.821  1.00  0.00     0.107 A 
HETATM   19  C24 UNL     1     -55.549  66.063  15.313  1.00  0.00     0.138 A 
HETATM   20  C23 UNL     1     -54.769  64.944  15.182  1.00  0.00     0.138 A 
HETATM   21  C22 UNL     1     -55.306  63.819  14.541  1.00  0.00     0.136 A 
BRANCH  18  22
HETATM   22  O1  UNL     1     -57.612  67.221  14.961  1.00  0.00    -0.353 OA
HETATM   23  C1  UNL     1     -57.839  68.139  13.912  1.00  0.00     0.210 C 
ENDBRANCH  18  22
BRANCH  19  24
HETATM   24  O13 UNL     1     -55.044  67.194  15.952  1.00  0.00    -0.351 OA
HETATM   25  C25 UNL     1     -55.230  67.234  17.379  1.00  0.00     0.210 C 
ENDBRANCH  19  24
BRANCH  20  26
HETATM   26  O12 UNL     1     -53.454  64.947  15.688  1.00  0.00    -0.356 OA
ATOM     27  H12 UNL     1     -52.782  65.509  15.321  1.00  0.00     0.218 HD
ENDBRANCH  20  26
BRANCH  21  28
HETATM   28  O11 UNL     1     -54.423  62.756  14.463  1.00  0.00    -0.356 OA
ATOM     29  H11 UNL     1     -53.547  62.747  14.831  1.00  0.00     0.218 HD
ENDBRANCH  21  28
ENDBRANCH  15  16
ENDBRANCH  13  15
ENDBRANCH   1  13
BRANCH   2  30
HETATM   30  C8  UNL     1     -54.553  62.532  10.950  1.00  0.00     0.118 C 
BRANCH  30  31
HETATM   31  S1  UNL     1     -52.919  62.016  11.395  1.00  0.00    -0.087 SA
BRANCH  31  32
HETATM   32  C9  UNL     1     -52.001  63.078  12.437  1.00  0.00     0.173 A 
HETATM   33  N1  UNL     1     -52.157  64.326  12.830  1.00  0.00    -0.261 N 
HETATM   34  N2  UNL     1     -51.162  64.653  13.637  1.00  0.00    -0.005 NA
ATOM     35  H1  UNL     1     -52.922  64.942  12.555  1.00  0.00     0.186 HD
HETATM   36  N3  UNL     1     -50.360  63.606  13.761  1.00  0.00    -0.224 N 
HETATM   37  N4  UNL     1     -50.846  62.633  13.044  1.00  0.00    -0.266 N 
ATOM     38  H3  UNL     1     -49.509  63.569  14.322  1.00  0.00     0.205 HD
ATOM     39  H4  UNL     1     -50.441  61.701  12.947  1.00  0.00     0.190 HD
ENDBRANCH  31  32
ENDBRANCH  30  31
ENDBRANCH   2  30
BRANCH  12  40
HETATM   40  C21 UNL     1     -58.739  60.414  12.068  1.00  0.00     0.191 C 
HETATM   41  O9  UNL     1     -58.279  59.711  13.034  1.00  0.00    -0.647 OA
HETATM   42  O10 UNL     1     -59.957  61.000  12.239  1.00  0.00    -0.647 OA
ENDBRANCH  12  40
BRANCH  10  43
HETATM   43  O8  UNL     1     -59.199  62.227  10.030  1.00  0.00    -0.388 OA
ATOM     44  H8  UNL     1     -58.503  62.868   9.933  1.00  0.00     0.210 HD
ENDBRANCH  10  43
BRANCH   6  45
HETATM   45  N5  UNL     1     -59.266  57.620  11.298  1.00  0.00    -0.030 N 
ATOM     46  H52 UNL     1     -59.142  58.169  12.149  1.00  0.00     0.281 HD
ATOM     47  H51 UNL     1     -60.258  57.788  11.135  1.00  0.00     0.281 HD
BRANCH  45  48
HETATM   48  C13 UNL     1     -59.011  56.206  11.548  1.00  0.00     0.392 C 
BRANCH  48  49
HETATM   49  O4  UNL     1     -60.228  55.574  11.879  1.00  0.00    -0.364 OA
ATOM     50  H4  UNL     1     -60.202  54.676  11.571  1.00  0.00     0.212 HD
ENDBRANCH  48  49
BRANCH  48  51
HETATM   51  C14 UNL     1     -58.147  56.131  12.763  1.00  0.00     0.205 C 
HETATM   52  O5  UNL     1     -56.955  55.938  12.557  1.00  0.00    -0.291 OA
BRANCH  51  53
HETATM   53  C15 UNL     1     -58.731  56.282  14.097  1.00  0.00     0.247 C 
BRANCH  53  54
HETATM   54  O6  UNL     1     -59.598  57.378  14.187  1.00  0.00    -0.393 OA
ATOM     55  H6  UNL     1     -59.146  58.186  14.395  1.00  0.00     0.209 HD
ENDBRANCH  53  54
ENDBRANCH  51  53
ENDBRANCH  48  51
ENDBRANCH  45  48
ENDBRANCH   6  45
TORSDOF 18
ENDMDL
MODEL 5
REMARK VINA RESULT: -7.496990919      3.286      4.358
REMARK  18 active torsions:
REMARK  status: ('A' for Active; 'I' for Inactive)
REMARK    1  A    between atoms: O1_2  and  C2_3 
REMARK    2  A    between atoms: C4_5  and  O2_6 
REMARK    3  A    between atoms: O2_6  and  C5_7 
REMARK    4  A    between atoms: C5_7  and  C6_9 
REMARK    5  A    between atoms: C7_10  and  C8_11 
REMARK    6  A    between atoms: C8_11  and  S1_12 
REMARK    7  A    between atoms: S1_12  and  C9_13 
REMARK    8  A    between atoms: C12_24  and  N5_25 
REMARK    9  A    between atoms: N5_25  and  C13_28 
REMARK   10  A    between atoms: C13_28  and  O4_29 
REMARK   11  A    between atoms: C13_28  and  C14_31 
REMARK   12  A    between atoms: C14_31  and  C15_33 
REMARK   13  A    between atoms: C15_33  and  O6_34 
REMARK   14  A    between atoms: C18_39  and  O8_41 
REMARK   15  A    between atoms: C20_43  and  C21_44 
REMARK   16  A    between atoms: C22_47  and  O11_48 
REMARK   17  A    between atoms: C23_50  and  O12_51 
REMARK   18  A    between atoms: C24_53  and  O13_54 
ROOT
HETATM    1  C6  UNL     1     -56.006  61.131  10.360  1.00  0.00     0.045 C 
HETATM    2  C7  UNL     1     -54.823  60.805   9.809  1.00  0.00    -0.047 C 
HETATM    3  C10 UNL     1     -54.536  59.492   9.158  1.00  0.00     0.110 C 
HETATM    4  S2  UNL     1     -55.923  58.420   8.881  1.00  0.00    -0.156 SA
HETATM    5  C11 UNL     1     -57.138  58.897  10.151  1.00  0.00     0.112 C 
HETATM    6  C12 UNL     1     -58.425  58.177   9.848  1.00  0.00     0.273 C 
HETATM    7  C16 UNL     1     -59.214  58.800   8.770  1.00  0.00     0.161 C 
HETATM    8  O7  UNL     1     -59.674  58.153   7.871  1.00  0.00    -0.296 OA
HETATM    9  C17 UNL     1     -59.399  60.265   8.871  1.00  0.00     0.119 C 
HETATM   10  C18 UNL     1     -58.085  60.931   9.043  1.00  0.00     0.084 C 
HETATM   11  C19 UNL     1     -57.379  60.847   7.705  1.00  0.00     0.048 C 
HETATM   12  C20 UNL     1     -57.281  60.385  10.206  1.00  0.00     0.127 C 
ENDROOT
BRANCH   1  13
HETATM   13  C5  UNL     1     -56.045  62.411  11.072  1.00  0.00     0.296 C 
HETATM   14  O3  UNL     1     -56.315  63.529  10.532  1.00  0.00    -0.259 OA
BRANCH  13  15
HETATM   15  O2  UNL     1     -55.785  62.610  12.439  1.00  0.00    -0.272 OA
BRANCH  15  16
HETATM   16  C4  UNL     1     -56.372  63.685  13.100  1.00  0.00     0.118 A 
HETATM   17  C3  UNL     1     -57.617  63.554  13.677  1.00  0.00     0.080 A 
HETATM   18  C2  UNL     1     -58.190  64.628  14.345  1.00  0.00     0.107 A 
HETATM   19  C24 UNL     1     -57.519  65.827  14.433  1.00  0.00     0.138 A 
HETATM   20  C23 UNL     1     -56.283  65.968  13.861  1.00  0.00     0.138 A 
HETATM   21  C22 UNL     1     -55.720  64.873  13.191  1.00  0.00     0.136 A 
BRANCH  18  22
HETATM   22  O1  UNL     1     -59.449  64.504  14.931  1.00  0.00    -0.353 OA
HETATM   23  C1  UNL     1     -60.411  63.558  14.512  1.00  0.00     0.210 C 
ENDBRANCH  18  22
BRANCH  19  24
HETATM   24  O13 UNL     1     -58.101  66.897  15.111  1.00  0.00    -0.351 OA
HETATM   25  C25 UNL     1     -57.794  66.980  16.515  1.00  0.00     0.210 C 
ENDBRANCH  19  24
BRANCH  20  26
HETATM   26  O12 UNL     1     -55.608  67.201  13.955  1.00  0.00    -0.356 OA
ATOM     27  H12 UNL     1     -55.523  67.780  13.207  1.00  0.00     0.218 HD
ENDBRANCH  20  26
BRANCH  21  28
HETATM   28  O11 UNL     1     -54.474  65.139  12.651  1.00  0.00    -0.356 OA
ATOM     29  H11 UNL     1     -53.969  65.928  12.808  1.00  0.00     0.218 HD
ENDBRANCH  21  28
ENDBRANCH  15  16
ENDBRANCH  13  15
ENDBRANCH   1  13
BRANCH   2  30
HETATM   30  C8  UNL     1     -53.635  61.679   9.877  1.00  0.00     0.118 C 
BRANCH  30  31
HETATM   31  S1  UNL     1     -52.514  61.343  11.205  1.00  0.00    -0.087 SA
BRANCH  31  32
HETATM   32  C9  UNL     1     -52.279  62.607  12.391  1.00  0.00     0.173 A 
HETATM   33  N1  UNL     1     -51.604  63.738  12.394  1.00  0.00    -0.261 N 
HETATM   34  N2  UNL     1     -51.766  64.334  13.563  1.00  0.00    -0.005 NA
ATOM     35  H1  UNL     1     -51.046  64.096  11.620  1.00  0.00     0.186 HD
HETATM   36  N3  UNL     1     -52.549  63.578  14.316  1.00  0.00    -0.224 N 
HETATM   37  N4  UNL     1     -52.879  62.521  13.629  1.00  0.00    -0.266 N 
ATOM     38  H3  UNL     1     -52.845  63.787  15.269  1.00  0.00     0.205 HD
ATOM     39  H4  UNL     1     -53.477  61.761  13.953  1.00  0.00     0.190 HD
ENDBRANCH  31  32
ENDBRANCH  30  31
ENDBRANCH   2  30
BRANCH  12  40
HETATM   40  C21 UNL     1     -58.073  60.615  11.435  1.00  0.00     0.191 C 
HETATM   41  O9  UNL     1     -57.673  59.955  12.456  1.00  0.00    -0.647 OA
HETATM   42  O10 UNL     1     -59.151  61.433  11.596  1.00  0.00    -0.647 OA
ENDBRANCH  12  40
BRANCH  10  43
HETATM   43  O8  UNL     1     -58.299  62.284   9.241  1.00  0.00    -0.388 OA
ATOM     44  H8  UNL     1     -58.595  62.417  10.134  1.00  0.00     0.210 HD
ENDBRANCH  10  43
BRANCH   6  45
HETATM   45  N5  UNL     1     -59.221  57.937  11.000  1.00  0.00    -0.030 N 
ATOM     46  H52 UNL     1     -58.952  58.555  11.765  1.00  0.00     0.281 HD
ATOM     47  H51 UNL     1     -60.178  58.259  10.856  1.00  0.00     0.281 HD
BRANCH  45  48
HETATM   48  C13 UNL     1     -59.197  56.542  11.422  1.00  0.00     0.392 C 
BRANCH  48  49
HETATM   49  O4  UNL     1     -60.492  56.170  11.842  1.00  0.00    -0.364 OA
ATOM     50  H4  UNL     1     -60.722  55.344  11.432  1.00  0.00     0.212 HD
ENDBRANCH  48  49
BRANCH  48  51
HETATM   51  C14 UNL     1     -58.320  56.471  12.628  1.00  0.00     0.205 C 
HETATM   52  O5  UNL     1     -57.188  56.043  12.439  1.00  0.00    -0.291 OA
BRANCH  51  53
HETATM   53  C15 UNL     1     -58.824  56.894  13.936  1.00  0.00     0.247 C 
BRANCH  53  54
HETATM   54  O6  UNL     1     -59.466  58.138  13.890  1.00  0.00    -0.393 OA
ATOM     55  H6  UNL     1     -58.954  58.829  14.294  1.00  0.00     0.209 HD
ENDBRANCH  53  54
ENDBRANCH  51  53
ENDBRANCH  48  51
ENDBRANCH  45  48
ENDBRANCH   6  45
TORSDOF 18
ENDMDL
