MODEL 1
REMARK VINA RESULT: -8.964650041      0.000      0.000
REMARK  18 active torsions:
REMARK  status: ('A' for Active; 'I' for Inactive)
REMARK    1  A    between atoms: N1_1  and  C1_4 
REMARK    2  A    between atoms: C4_12  and  N4_13 
REMARK    3  A    between atoms: C7_16  and  N5_17 
REMARK    4  A    between atoms: C9_22  and  C10_23 
REMARK    5  A    between atoms: C10_23  and  N6_24 
REMARK    6  A    between atoms: N7_28  and  C11_29 
REMARK    7  A    between atoms: C11_29  and  C12_30 
REMARK    8  A    between atoms: C12_30  and  C13_31 
REMARK    9  A    between atoms: C13_31  and  N8_32 
REMARK   10  A    between atoms: C14_35  and  C15_36 
REMARK   11  A    between atoms: C16_37  and  O2_38 
REMARK   12  A    between atoms: C16_37  and  C17_40 
REMARK   13  A    between atoms: C17_40  and  O4_42 
REMARK   14  A    between atoms: O4_42  and  C18_43 
REMARK   15  A    between atoms: C20_48  and  C21_49 
REMARK   16  A    between atoms: C21_49  and  S1_50 
REMARK   17  A    between atoms: S1_50  and  C22_51 
REMARK   18  A    between atoms: C25_60  and  O5_61 
ROOT
HETATM    1  C12 UNL     1     -53.689  59.811   7.484  1.00  0.00     0.043 C 
ENDROOT
BRANCH   1   2
HETATM    2  C11 UNL     1     -54.098  59.119   8.767  1.00  0.00     0.151 C 
BRANCH   2   3
HETATM    3  N7  UNL     1     -54.661  60.043   9.722  1.00  0.00    -0.165 N 
HETATM    4  C4  UNL     1     -55.935  60.350   9.998  1.00  0.00     0.685 A 
HETATM    5  N3  UNL     1     -55.879  61.291  11.016  1.00  0.00    -0.182 N 
HETATM    6  C3  UNL     1     -54.634  61.553  11.352  1.00  0.00     0.162 A 
ATOM      7  H3  UNL     1     -56.697  61.722  11.448  1.00  0.00     0.184 HD
HETATM    8  C2  UNL     1     -54.084  62.409  12.297  1.00  0.00     0.290 A 
HETATM    9  C26 UNL     1     -53.852  60.778  10.547  1.00  0.00     0.172 A 
HETATM   10  N2  UNL     1     -52.743  62.438  12.382  1.00  0.00    -0.154 N 
HETATM   11  O1  UNL     1     -54.818  63.125  13.038  1.00  0.00    -0.265 OA
HETATM   12  C1  UNL     1     -51.944  61.690  11.609  1.00  0.00     0.680 A 
ATOM     13  H2  UNL     1     -52.314  63.058  13.068  1.00  0.00     0.187 HD
HETATM   14  N15 UNL     1     -52.511  60.875  10.707  1.00  0.00    -0.174 N 
ATOM     15  H15 UNL     1     -51.906  60.304  10.117  1.00  0.00     0.186 HD
BRANCH   4  16
HETATM   16  N4  UNL     1     -57.135  59.865   9.455  1.00  0.00    -0.211 N 
HETATM   17  C5  UNL     1     -57.780  58.641   9.664  1.00  0.00     0.144 C 
HETATM   18  C6  UNL     1     -57.557  57.784   8.415  1.00  0.00     0.053 C 
HETATM   19  C7  UNL     1     -57.760  58.644   7.221  1.00  0.00     0.187 C 
HETATM   20  C8  UNL     1     -58.494  59.927   7.490  1.00  0.00     0.060 C 
HETATM   21  C9  UNL     1     -57.857  60.775   8.542  1.00  0.00     0.129 C 
BRANCH  19  22
HETATM   22  N5  UNL     1     -58.546  57.897   6.250  1.00  0.00    -0.075 N 
ATOM     23  H53 UNL     1     -58.689  56.925   6.525  1.00  0.00     0.274 HD
ATOM     24  H52 UNL     1     -59.525  58.181   6.234  1.00  0.00     0.274 HD
ATOM     25  H51 UNL     1     -58.095  57.986   5.339  1.00  0.00     0.274 HD
ENDBRANCH  19  22
BRANCH  21  26
HETATM   26  C10 UNL     1     -59.003  61.445   9.314  1.00  0.00     0.255 C 
BRANCH  26  27
HETATM   27  N6  UNL     1     -60.089  61.642   8.373  1.00  0.00    -0.077 N 
ATOM     28  H63 UNL     1     -59.851  61.361   7.422  1.00  0.00     0.274 HD
ATOM     29  H62 UNL     1     -60.862  60.991   8.512  1.00  0.00     0.274 HD
ATOM     30  H61 UNL     1     -60.371  62.620   8.444  1.00  0.00     0.274 HD
ENDBRANCH  26  27
ENDBRANCH  21  26
ENDBRANCH   4  16
BRANCH  12  31
HETATM   31  N1  UNL     1     -50.645  61.736  11.711  1.00  0.00    -0.234 N 
ATOM     32  H12 UNL     1     -50.208  62.458  12.283  1.00  0.00     0.174 HD
ATOM     33  H11 UNL     1     -50.042  61.066  11.232  1.00  0.00     0.174 HD
ENDBRANCH  12  31
ENDBRANCH   2   3
ENDBRANCH   1   2
BRANCH   1  34
HETATM   34  C13 UNL     1     -52.235  59.562   7.161  1.00  0.00     0.153 C 
BRANCH  34  35
HETATM   35  N8  UNL     1     -52.056  59.739   5.712  1.00  0.00    -0.271 N 
HETATM   36  N9  UNL     1     -52.299  58.833   4.796  1.00  0.00    -0.296 N 
HETATM   37  C14 UNL     1     -52.033  59.312   3.574  1.00  0.00     0.055 A 
ATOM     38  H9  UNL     1     -52.643  57.892   4.988  1.00  0.00     0.187 HD
HETATM   39  C24 UNL     1     -51.595  60.603   3.745  1.00  0.00     0.088 A 
HETATM   40  C25 UNL     1     -51.620  60.844   5.095  1.00  0.00     0.159 A 
BRANCH  37  41
HETATM   41  C15 UNL     1     -52.181  58.601   2.293  1.00  0.00     0.074 C 
HETATM   42  C16 UNL     1     -51.789  57.366   2.149  1.00  0.00     0.143 C 
BRANCH  42  43
HETATM   43  O2  UNL     1     -51.217  56.702   3.232  1.00  0.00    -0.355 OA
ATOM     44  H2  UNL     1     -51.475  55.806   3.416  1.00  0.00     0.218 HD
ENDBRANCH  42  43
BRANCH  42  45
HETATM   45  C17 UNL     1     -51.953  56.706   0.868  1.00  0.00     0.317 C 
HETATM   46  O3  UNL     1     -51.071  55.876   0.491  1.00  0.00    -0.257 OA
BRANCH  45  47
HETATM   47  O4  UNL     1     -53.018  56.929   0.024  1.00  0.00    -0.303 OA
BRANCH  47  48
HETATM   48  C18 UNL     1     -52.854  57.060  -1.392  1.00  0.00     0.196 C 
HETATM   49  C19 UNL     1     -53.382  55.852  -2.086  1.00  0.00     0.173 C 
HETATM   50  N10 UNL     1     -54.146  56.416  -3.186  1.00  0.00    -0.139 NA
HETATM   51  N11 UNL     1     -54.454  57.760  -2.881  1.00  0.00    -0.309 N 
HETATM   52  C20 UNL     1     -53.754  58.148  -1.890  1.00  0.00     0.040 C 
ATOM     53  H11 UNL     1     -55.135  58.334  -3.379  1.00  0.00     0.182 HD
BRANCH  52  54
HETATM   54  C21 UNL     1     -53.803  59.498  -1.289  1.00  0.00     0.138 C 
BRANCH  54  55
HETATM   55  S1  UNL     1     -55.410  59.906  -0.599  1.00  0.00    -0.087 SA
BRANCH  55  56
HETATM   56  C22 UNL     1     -55.322  61.167   0.647  1.00  0.00     0.160 A 
HETATM   57  N12 UNL     1     -56.307  62.064   0.953  1.00  0.00    -0.331 N 
HETATM   58  C23 UNL     1     -55.806  62.818   1.938  1.00  0.00     0.199 A 
ATOM     59  H12 UNL     1     -57.228  62.142   0.521  1.00  0.00     0.168 HD
HETATM   60  N13 UNL     1     -54.559  62.420   2.246  1.00  0.00    -0.294 N 
HETATM   61  N14 UNL     1     -54.284  61.412   1.446  1.00  0.00    -0.279 N 
ATOM     62  H13 UNL     1     -53.947  62.819   2.959  1.00  0.00     0.187 HD
ATOM     63  H14 UNL     1     -53.405  60.894   1.438  1.00  0.00     0.189 HD
ENDBRANCH  55  56
ENDBRANCH  54  55
ENDBRANCH  52  54
ENDBRANCH  47  48
ENDBRANCH  45  47
ENDBRANCH  42  45
ENDBRANCH  37  41
BRANCH  40  64
HETATM   64  O5  UNL     1     -51.264  62.012   5.743  1.00  0.00    -0.345 OA
ATOM     65  H5  UNL     1     -51.516  62.882   5.457  1.00  0.00     0.219 HD
ENDBRANCH  40  64
ENDBRANCH  34  35
ENDBRANCH   1  34
TORSDOF 18
ENDMDL
MODEL 2
REMARK VINA RESULT: -8.915528035      6.898     13.361
REMARK  18 active torsions:
REMARK  status: ('A' for Active; 'I' for Inactive)
REMARK    1  A    between atoms: N1_1  and  C1_4 
REMARK    2  A    between atoms: C4_12  and  N4_13 
REMARK    3  A    between atoms: C7_16  and  N5_17 
REMARK    4  A    between atoms: C9_22  and  C10_23 
REMARK    5  A    between atoms: C10_23  and  N6_24 
REMARK    6  A    between atoms: N7_28  and  C11_29 
REMARK    7  A    between atoms: C11_29  and  C12_30 
REMARK    8  A    between atoms: C12_30  and  C13_31 
REMARK    9  A    between atoms: C13_31  and  N8_32 
REMARK   10  A    between atoms: C14_35  and  C15_36 
REMARK   11  A    between atoms: C16_37  and  O2_38 
REMARK   12  A    between atoms: C16_37  and  C17_40 
REMARK   13  A    between atoms: C17_40  and  O4_42 
REMARK   14  A    between atoms: O4_42  and  C18_43 
REMARK   15  A    between atoms: C20_48  and  C21_49 
REMARK   16  A    between atoms: C21_49  and  S1_50 
REMARK   17  A    between atoms: S1_50  and  C22_51 
REMARK   18  A    between atoms: C25_60  and  O5_61 
ROOT
HETATM    1  C12 UNL     1     -52.969  61.366  10.316  1.00  0.00     0.043 C 
ENDROOT
BRANCH   1   2
HETATM    2  C11 UNL     1     -52.432  60.431   9.253  1.00  0.00     0.151 C 
BRANCH   2   3
HETATM    3  N7  UNL     1     -53.482  59.909   8.413  1.00  0.00    -0.165 N 
HETATM    4  C4  UNL     1     -53.542  59.747   7.085  1.00  0.00     0.685 A 
HETATM    5  N3  UNL     1     -54.787  59.188   6.834  1.00  0.00    -0.182 N 
HETATM    6  C3  UNL     1     -55.463  59.015   7.950  1.00  0.00     0.162 A 
ATOM      7  H3  UNL     1     -55.133  58.943   5.906  1.00  0.00     0.184 HD
HETATM    8  C2  UNL     1     -56.728  58.502   8.203  1.00  0.00     0.290 A 
HETATM    9  C26 UNL     1     -54.658  59.464   8.955  1.00  0.00     0.172 A 
HETATM   10  N2  UNL     1     -57.123  58.468   9.488  1.00  0.00    -0.154 N 
HETATM   11  O1  UNL     1     -57.467  58.089   7.264  1.00  0.00    -0.265 OA
HETATM   12  C1  UNL     1     -56.359  58.900  10.501  1.00  0.00     0.680 A 
ATOM     13  H2  UNL     1     -58.048  58.096   9.701  1.00  0.00     0.187 HD
HETATM   14  N15 UNL     1     -55.143  59.388  10.217  1.00  0.00    -0.174 N 
ATOM     15  H15 UNL     1     -54.557  59.718  10.985  1.00  0.00     0.186 HD
BRANCH   4  16
HETATM   16  N4  UNL     1     -52.600  60.022   6.082  1.00  0.00    -0.211 N 
HETATM   17  C5  UNL     1     -52.589  61.040   5.121  1.00  0.00     0.144 C 
HETATM   18  C6  UNL     1     -52.958  60.407   3.776  1.00  0.00     0.053 C 
HETATM   19  C7  UNL     1     -52.217  59.126   3.648  1.00  0.00     0.187 C 
HETATM   20  C8  UNL     1     -51.054  58.978   4.587  1.00  0.00     0.060 C 
HETATM   21  C9  UNL     1     -51.421  59.134   6.027  1.00  0.00     0.129 C 
BRANCH  19  22
HETATM   22  N5  UNL     1     -51.687  59.041   2.295  1.00  0.00    -0.075 N 
ATOM     23  H53 UNL     1     -51.188  59.885   2.013  1.00  0.00     0.274 HD
ATOM     24  H52 UNL     1     -50.907  58.388   2.218  1.00  0.00     0.274 HD
ATOM     25  H51 UNL     1     -52.456  58.810   1.665  1.00  0.00     0.274 HD
ENDBRANCH  19  22
BRANCH  21  26
HETATM   26  C10 UNL     1     -50.236  59.840   6.704  1.00  0.00     0.255 C 
BRANCH  26  27
HETATM   27  N6  UNL     1     -49.288  60.172   5.659  1.00  0.00    -0.077 N 
ATOM     28  H63 UNL     1     -48.363  60.409   6.018  1.00  0.00     0.274 HD
ATOM     29  H62 UNL     1     -49.009  59.366   5.100  1.00  0.00     0.274 HD
ATOM     30  H61 UNL     1     -49.705  60.919   5.104  1.00  0.00     0.274 HD
ENDBRANCH  26  27
ENDBRANCH  21  26
ENDBRANCH   4  16
BRANCH  12  31
HETATM   31  N1  UNL     1     -56.764  58.855  11.738  1.00  0.00    -0.234 N 
ATOM     32  H12 UNL     1     -57.760  58.927  11.946  1.00  0.00     0.174 HD
ATOM     33  H11 UNL     1     -56.113  58.752  12.516  1.00  0.00     0.174 HD
ENDBRANCH  12  31
ENDBRANCH   2   3
ENDBRANCH   1   2
BRANCH   1  34
HETATM   34  C13 UNL     1     -52.325  61.107  11.657  1.00  0.00     0.153 C 
BRANCH  34  35
HETATM   35  N8  UNL     1     -52.161  62.400  12.338  1.00  0.00    -0.271 N 
HETATM   36  N9  UNL     1     -51.042  63.077  12.433  1.00  0.00    -0.296 N 
HETATM   37  C14 UNL     1     -51.233  64.214  13.115  1.00  0.00     0.055 A 
ATOM     38  H9  UNL     1     -50.149  62.779  12.041  1.00  0.00     0.187 HD
HETATM   39  C24 UNL     1     -52.560  64.243  13.467  1.00  0.00     0.088 A 
HETATM   40  C25 UNL     1     -53.118  63.094  12.967  1.00  0.00     0.159 A 
BRANCH  37  41
HETATM   41  C15 UNL     1     -50.222  65.238  13.428  1.00  0.00     0.074 C 
HETATM   42  C16 UNL     1     -49.179  64.966  14.162  1.00  0.00     0.143 C 
BRANCH  42  43
HETATM   43  O2  UNL     1     -49.016  63.676  14.661  1.00  0.00    -0.355 OA
ATOM     44  H2  UNL     1     -49.782  63.176  14.917  1.00  0.00     0.218 HD
ENDBRANCH  42  43
BRANCH  42  45
HETATM   45  C17 UNL     1     -48.211  66.007  14.446  1.00  0.00     0.317 C 
HETATM   46  O3  UNL     1     -47.007  65.677  14.671  1.00  0.00    -0.257 OA
BRANCH  45  47
HETATM   47  O4  UNL     1     -48.521  67.348  14.489  1.00  0.00    -0.303 OA
BRANCH  47  48
HETATM   48  C18 UNL     1     -47.927  68.296  13.595  1.00  0.00     0.196 C 
HETATM   49  C19 UNL     1     -48.984  69.021  12.835  1.00  0.00     0.173 C 
HETATM   50  N10 UNL     1     -48.547  70.405  12.909  1.00  0.00    -0.139 NA
HETATM   51  N11 UNL     1     -47.650  70.540  13.992  1.00  0.00    -0.309 N 
HETATM   52  C20 UNL     1     -47.287  69.388  14.396  1.00  0.00     0.040 C 
ATOM     53  H11 UNL     1     -47.340  71.427  14.390  1.00  0.00     0.182 HD
BRANCH  52  54
HETATM   54  C21 UNL     1     -46.351  69.134  15.512  1.00  0.00     0.138 C 
BRANCH  54  55
HETATM   55  S1  UNL     1     -45.375  70.573  15.958  1.00  0.00    -0.087 SA
BRANCH  55  56
HETATM   56  C22 UNL     1     -45.752  71.183  17.581  1.00  0.00     0.160 A 
HETATM   57  N12 UNL     1     -45.171  72.259  18.191  1.00  0.00    -0.331 N 
HETATM   58  C23 UNL     1     -45.754  72.344  19.392  1.00  0.00     0.199 A 
ATOM     59  H12 UNL     1     -44.446  72.867  17.811  1.00  0.00     0.168 HD
HETATM   60  N13 UNL     1     -46.666  71.367  19.542  1.00  0.00    -0.294 N 
HETATM   61  N14 UNL     1     -46.648  70.671  18.425  1.00  0.00    -0.279 N 
ATOM     62  H13 UNL     1     -47.255  71.199  20.358  1.00  0.00     0.187 HD
ATOM     63  H14 UNL     1     -47.233  69.857  18.234  1.00  0.00     0.189 HD
ENDBRANCH  55  56
ENDBRANCH  54  55
ENDBRANCH  52  54
ENDBRANCH  47  48
ENDBRANCH  45  47
ENDBRANCH  42  45
ENDBRANCH  37  41
BRANCH  40  64
HETATM   64  O5  UNL     1     -54.435  62.688  13.073  1.00  0.00    -0.345 OA
ATOM     65  H5  UNL     1     -54.781  61.888  12.697  1.00  0.00     0.219 HD
ENDBRANCH  40  64
ENDBRANCH  34  35
ENDBRANCH   1  34
TORSDOF 18
ENDMDL
MODEL 3
REMARK VINA RESULT: -8.890843290      7.169     13.383
REMARK  18 active torsions:
REMARK  status: ('A' for Active; 'I' for Inactive)
REMARK    1  A    between atoms: N1_1  and  C1_4 
REMARK    2  A    between atoms: C4_12  and  N4_13 
REMARK    3  A    between atoms: C7_16  and  N5_17 
REMARK    4  A    between atoms: C9_22  and  C10_23 
REMARK    5  A    between atoms: C10_23  and  N6_24 
REMARK    6  A    between atoms: N7_28  and  C11_29 
REMARK    7  A    between atoms: C11_29  and  C12_30 
REMARK    8  A    between atoms: C12_30  and  C13_31 
REMARK    9  A    between atoms: C13_31  and  N8_32 
REMARK   10  A    between atoms: C14_35  and  C15_36 
REMARK   11  A    between atoms: C16_37  and  O2_38 
REMARK   12  A    between atoms: C16_37  and  C17_40 
REMARK   13  A    between atoms: C17_40  and  O4_42 
REMARK   14  A    between atoms: O4_42  and  C18_43 
REMARK   15  A    between atoms: C20_48  and  C21_49 
REMARK   16  A    between atoms: C21_49  and  S1_50 
REMARK   17  A    between atoms: S1_50  and  C22_51 
REMARK   18  A    between atoms: C25_60  and  O5_61 
ROOT
HETATM    1  C12 UNL     1     -52.330  61.602  10.982  1.00  0.00     0.043 C 
ENDROOT
BRANCH   1   2
HETATM    2  C11 UNL     1     -52.319  60.187  10.443  1.00  0.00     0.151 C 
BRANCH   2   3
HETATM    3  N7  UNL     1     -53.025  60.082   9.189  1.00  0.00    -0.165 N 
HETATM    4  C4  UNL     1     -54.337  60.048   8.923  1.00  0.00     0.685 A 
HETATM    5  N3  UNL     1     -54.435  59.955   7.542  1.00  0.00    -0.182 N 
HETATM    6  C3  UNL     1     -53.243  59.930   6.983  1.00  0.00     0.162 A 
ATOM      7  H3  UNL     1     -55.315  59.911   7.028  1.00  0.00     0.184 HD
HETATM    8  C2  UNL     1     -52.837  59.843   5.658  1.00  0.00     0.290 A 
HETATM    9  C26 UNL     1     -52.343  60.008   8.004  1.00  0.00     0.172 A 
HETATM   10  N2  UNL     1     -51.513  59.840   5.428  1.00  0.00    -0.154 N 
HETATM   11  O1  UNL     1     -53.681  59.770   4.718  1.00  0.00    -0.265 OA
HETATM   12  C1  UNL     1     -50.600  59.917   6.406  1.00  0.00     0.680 A 
ATOM     13  H2  UNL     1     -51.188  59.778   4.464  1.00  0.00     0.187 HD
HETATM   14  N15 UNL     1     -51.030  59.999   7.674  1.00  0.00    -0.174 N 
ATOM     15  H15 UNL     1     -50.338  60.057   8.422  1.00  0.00     0.186 HD
BRANCH   4  16
HETATM   16  N4  UNL     1     -55.450  60.115   9.776  1.00  0.00    -0.211 N 
HETATM   17  C5  UNL     1     -55.961  59.153  10.655  1.00  0.00     0.144 C 
HETATM   18  C6  UNL     1     -57.227  58.573  10.018  1.00  0.00     0.053 C 
HETATM   19  C7  UNL     1     -58.018  59.697   9.454  1.00  0.00     0.187 C 
HETATM   20  C8  UNL     1     -57.639  61.054   9.975  1.00  0.00     0.060 C 
HETATM   21  C9  UNL     1     -56.196  61.390   9.783  1.00  0.00     0.129 C 
BRANCH  19  22
HETATM   22  N5  UNL     1     -59.417  59.484   9.794  1.00  0.00    -0.075 N 
ATOM     23  H53 UNL     1     -59.539  59.067  10.717  1.00  0.00     0.274 HD
ATOM     24  H52 UNL     1     -59.917  60.356   9.970  1.00  0.00     0.274 HD
ATOM     25  H51 UNL     1     -59.845  58.930   9.052  1.00  0.00     0.274 HD
ENDBRANCH  19  22
BRANCH  21  26
HETATM   26  C10 UNL     1     -55.771  62.206  11.014  1.00  0.00     0.255 C 
BRANCH  26  27
HETATM   27  N6  UNL     1     -55.501  63.555  10.555  1.00  0.00    -0.077 N 
ATOM     28  H63 UNL     1     -55.044  63.584   9.643  1.00  0.00     0.274 HD
ATOM     29  H62 UNL     1     -56.344  64.066  10.295  1.00  0.00     0.274 HD
ATOM     30  H61 UNL     1     -54.962  64.016  11.288  1.00  0.00     0.274 HD
ENDBRANCH  26  27
ENDBRANCH  21  26
ENDBRANCH   4  16
BRANCH  12  31
HETATM   31  N1  UNL     1     -49.321  59.913   6.157  1.00  0.00    -0.234 N 
ATOM     32  H12 UNL     1     -48.701  60.527   6.686  1.00  0.00     0.174 HD
ATOM     33  H11 UNL     1     -48.912  59.310   5.443  1.00  0.00     0.174 HD
ENDBRANCH  12  31
ENDBRANCH   2   3
ENDBRANCH   1   2
BRANCH   1  34
HETATM   34  C13 UNL     1     -52.519  61.621  12.480  1.00  0.00     0.153 C 
BRANCH  34  35
HETATM   35  N8  UNL     1     -52.179  62.968  12.962  1.00  0.00    -0.271 N 
HETATM   36  N9  UNL     1     -50.971  63.473  13.030  1.00  0.00    -0.296 N 
HETATM   37  C14 UNL     1     -51.006  64.722  13.513  1.00  0.00     0.055 A 
ATOM     38  H9  UNL     1     -50.120  62.982  12.753  1.00  0.00     0.187 HD
HETATM   39  C24 UNL     1     -52.325  65.010  13.761  1.00  0.00     0.088 A 
HETATM   40  C25 UNL     1     -53.039  63.894  13.407  1.00  0.00     0.159 A 
BRANCH  37  41
HETATM   41  C15 UNL     1     -49.858  65.618  13.734  1.00  0.00     0.074 C 
HETATM   42  C16 UNL     1     -48.808  65.230  14.403  1.00  0.00     0.143 C 
BRANCH  42  43
HETATM   43  O2  UNL     1     -48.770  63.937  14.920  1.00  0.00    -0.355 OA
ATOM     44  H2  UNL     1     -48.378  63.789  15.773  1.00  0.00     0.218 HD
ENDBRANCH  42  43
BRANCH  42  45
HETATM   45  C17 UNL     1     -47.703  66.147  14.598  1.00  0.00     0.317 C 
HETATM   46  O3  UNL     1     -46.518  65.696  14.546  1.00  0.00    -0.257 OA
BRANCH  45  47
HETATM   47  O4  UNL     1     -47.860  67.494  14.840  1.00  0.00    -0.303 OA
BRANCH  47  48
HETATM   48  C18 UNL     1     -47.258  68.493  14.009  1.00  0.00     0.196 C 
HETATM   49  C19 UNL     1     -48.287  69.128  13.139  1.00  0.00     0.173 C 
HETATM   50  N10 UNL     1     -47.979  70.544  13.252  1.00  0.00    -0.139 NA
HETATM   51  N11 UNL     1     -47.216  70.750  14.422  1.00  0.00    -0.309 N 
HETATM   52  C20 UNL     1     -46.801  69.631  14.868  1.00  0.00     0.040 C 
ATOM     53  H11 UNL     1     -47.026  71.658  14.847  1.00  0.00     0.182 HD
BRANCH  52  54
HETATM   54  C21 UNL     1     -45.968  69.452  16.077  1.00  0.00     0.138 C 
BRANCH  54  55
HETATM   55  S1  UNL     1     -45.080  70.939  16.550  1.00  0.00    -0.087 SA
BRANCH  55  56
HETATM   56  C22 UNL     1     -45.563  71.550  18.144  1.00  0.00     0.160 A 
HETATM   57  N12 UNL     1     -46.627  71.115  18.882  1.00  0.00    -0.331 N 
HETATM   58  C23 UNL     1     -46.611  71.853  19.998  1.00  0.00     0.199 A 
ATOM     59  H12 UNL     1     -47.294  70.384  18.635  1.00  0.00     0.168 HD
HETATM   60  N13 UNL     1     -45.582  72.719  19.973  1.00  0.00    -0.294 N 
HETATM   61  N14 UNL     1     -44.957  72.517  18.833  1.00  0.00    -0.279 N 
ATOM     62  H13 UNL     1     -45.335  73.398  20.694  1.00  0.00     0.187 HD
ATOM     63  H14 UNL     1     -44.129  73.026  18.521  1.00  0.00     0.189 HD
ENDBRANCH  55  56
ENDBRANCH  54  55
ENDBRANCH  52  54
ENDBRANCH  47  48
ENDBRANCH  45  47
ENDBRANCH  42  45
ENDBRANCH  37  41
BRANCH  40  64
HETATM   64  O5  UNL     1     -54.407  63.716  13.481  1.00  0.00    -0.345 OA
ATOM     65  H5  UNL     1     -54.896  63.651  14.292  1.00  0.00     0.219 HD
ENDBRANCH  40  64
ENDBRANCH  34  35
ENDBRANCH   1  34
TORSDOF 18
ENDMDL
MODEL 4
REMARK VINA RESULT: -8.857322664      3.350      4.664
REMARK  18 active torsions:
REMARK  status: ('A' for Active; 'I' for Inactive)
REMARK    1  A    between atoms: N1_1  and  C1_4 
REMARK    2  A    between atoms: C4_12  and  N4_13 
REMARK    3  A    between atoms: C7_16  and  N5_17 
REMARK    4  A    between atoms: C9_22  and  C10_23 
REMARK    5  A    between atoms: C10_23  and  N6_24 
REMARK    6  A    between atoms: N7_28  and  C11_29 
REMARK    7  A    between atoms: C11_29  and  C12_30 
REMARK    8  A    between atoms: C12_30  and  C13_31 
REMARK    9  A    between atoms: C13_31  and  N8_32 
REMARK   10  A    between atoms: C14_35  and  C15_36 
REMARK   11  A    between atoms: C16_37  and  O2_38 
REMARK   12  A    between atoms: C16_37  and  C17_40 
REMARK   13  A    between atoms: C17_40  and  O4_42 
REMARK   14  A    between atoms: O4_42  and  C18_43 
REMARK   15  A    between atoms: C20_48  and  C21_49 
REMARK   16  A    between atoms: C21_49  and  S1_50 
REMARK   17  A    between atoms: S1_50  and  C22_51 
REMARK   18  A    between atoms: C25_60  and  O5_61 
ROOT
HETATM    1  C12 UNL     1     -54.025  59.272   7.772  1.00  0.00     0.043 C 
ENDROOT
BRANCH   1   2
HETATM    2  C11 UNL     1     -54.180  58.985   9.250  1.00  0.00     0.151 C 
BRANCH   2   3
HETATM    3  N7  UNL     1     -54.740  60.108   9.961  1.00  0.00    -0.165 N 
HETATM    4  C4  UNL     1     -56.005  60.532  10.073  1.00  0.00     0.685 A 
HETATM    5  N3  UNL     1     -55.953  61.652  10.891  1.00  0.00    -0.182 N 
HETATM    6  C3  UNL     1     -54.716  61.908  11.265  1.00  0.00     0.162 A 
ATOM      7  H3  UNL     1     -56.765  62.203  11.167  1.00  0.00     0.184 HD
HETATM    8  C2  UNL     1     -54.172  62.903  12.065  1.00  0.00     0.290 A 
HETATM    9  C26 UNL     1     -53.939  60.948  10.688  1.00  0.00     0.172 A 
HETATM   10  N2  UNL     1     -52.841  62.876  12.247  1.00  0.00    -0.154 N 
HETATM   11  O1  UNL     1     -54.903  63.790  12.595  1.00  0.00    -0.265 OA
HETATM   12  C1  UNL     1     -52.046  61.948  11.697  1.00  0.00     0.680 A 
ATOM     13  H2  UNL     1     -52.416  63.596  12.831  1.00  0.00     0.187 HD
HETATM   14  N15 UNL     1     -52.607  61.002  10.930  1.00  0.00    -0.174 N 
ATOM     15  H15 UNL     1     -52.005  60.293  10.509  1.00  0.00     0.186 HD
BRANCH   4  16
HETATM   16  N4  UNL     1     -57.198  60.015   9.544  1.00  0.00    -0.211 N 
HETATM   17  C5  UNL     1     -57.834  58.795   9.799  1.00  0.00     0.144 C 
HETATM   18  C6  UNL     1     -57.596  57.889   8.588  1.00  0.00     0.053 C 
HETATM   19  C7  UNL     1     -57.798  58.698   7.358  1.00  0.00     0.187 C 
HETATM   20  C8  UNL     1     -58.545  59.984   7.569  1.00  0.00     0.060 C 
HETATM   21  C9  UNL     1     -57.922  60.880   8.590  1.00  0.00     0.129 C 
BRANCH  19  22
HETATM   22  N5  UNL     1     -58.571  57.905   6.414  1.00  0.00    -0.075 N 
ATOM     23  H53 UNL     1     -58.381  56.905   6.491  1.00  0.00     0.274 HD
ATOM     24  H52 UNL     1     -59.564  57.874   6.645  1.00  0.00     0.274 HD
ATOM     25  H51 UNL     1     -58.398  58.266   5.476  1.00  0.00     0.274 HD
ENDBRANCH  19  22
BRANCH  21  26
HETATM   26  C10 UNL     1     -59.079  61.571   9.327  1.00  0.00     0.255 C 
BRANCH  26  27
HETATM   27  N6  UNL     1     -60.160  61.720   8.373  1.00  0.00    -0.077 N 
ATOM     28  H63 UNL     1     -60.000  61.212   7.503  1.00  0.00     0.274 HD
ATOM     29  H62 UNL     1     -61.012  61.233   8.652  1.00  0.00     0.274 HD
ATOM     30  H61 UNL     1     -60.300  62.721   8.233  1.00  0.00     0.274 HD
ENDBRANCH  26  27
ENDBRANCH  21  26
ENDBRANCH   4  16
BRANCH  12  31
HETATM   31  N1  UNL     1     -50.757  61.943  11.889  1.00  0.00    -0.234 N 
ATOM     32  H12 UNL     1     -50.387  61.973  12.839  1.00  0.00     0.174 HD
ATOM     33  H11 UNL     1     -50.096  61.910  11.112  1.00  0.00     0.174 HD
ENDBRANCH  12  31
ENDBRANCH   2   3
ENDBRANCH   1   2
BRANCH   1  34
HETATM   34  C13 UNL     1     -52.574  59.258   7.355  1.00  0.00     0.153 C 
BRANCH  34  35
HETATM   35  N8  UNL     1     -52.412  60.212   6.247  1.00  0.00    -0.271 N 
HETATM   36  N9  UNL     1     -53.346  60.561   5.396  1.00  0.00    -0.296 N 
HETATM   37  C14 UNL     1     -52.873  61.448   4.511  1.00  0.00     0.055 A 
ATOM     38  H9  UNL     1     -54.303  60.206   5.407  1.00  0.00     0.187 HD
HETATM   39  C24 UNL     1     -51.556  61.662   4.835  1.00  0.00     0.088 A 
HETATM   40  C25 UNL     1     -51.293  60.875   5.927  1.00  0.00     0.159 A 
BRANCH  37  41
HETATM   41  C15 UNL     1     -53.615  62.077   3.405  1.00  0.00     0.074 C 
HETATM   42  C16 UNL     1     -53.824  61.451   2.281  1.00  0.00     0.143 C 
BRANCH  42  43
HETATM   43  O2  UNL     1     -53.335  60.157   2.121  1.00  0.00    -0.355 OA
ATOM     44  H2  UNL     1     -52.421  60.030   1.894  1.00  0.00     0.218 HD
ENDBRANCH  42  43
BRANCH  42  45
HETATM   45  C17 UNL     1     -54.558  62.111   1.219  1.00  0.00     0.317 C 
HETATM   46  O3  UNL     1     -54.833  61.456   0.168  1.00  0.00    -0.257 OA
BRANCH  45  47
HETATM   47  O4  UNL     1     -54.980  63.420   1.280  1.00  0.00    -0.303 OA
BRANCH  47  48
HETATM   48  C18 UNL     1     -56.367  63.773   1.310  1.00  0.00     0.196 C 
HETATM   49  C19 UNL     1     -56.712  64.400   2.617  1.00  0.00     0.173 C 
HETATM   50  N10 UNL     1     -57.513  65.547   2.227  1.00  0.00    -0.139 NA
HETATM   51  N11 UNL     1     -57.245  65.849   0.873  1.00  0.00    -0.309 N 
HETATM   52  C20 UNL     1     -56.610  64.885   0.335  1.00  0.00     0.040 C 
ATOM     53  H11 UNL     1     -57.518  66.709   0.398  1.00  0.00     0.182 HD
BRANCH  52  54
HETATM   54  C21 UNL     1     -56.159  64.842  -1.072  1.00  0.00     0.138 C 
BRANCH  54  55
HETATM   55  S1  UNL     1     -56.448  66.380  -1.953  1.00  0.00    -0.087 SA
BRANCH  55  56
HETATM   56  C22 UNL     1     -57.988  66.387  -2.834  1.00  0.00     0.160 A 
HETATM   57  N12 UNL     1     -58.371  67.300  -3.776  1.00  0.00    -0.331 N 
HETATM   58  C23 UNL     1     -59.594  66.920  -4.161  1.00  0.00     0.199 A 
ATOM     59  H12 UNL     1     -57.837  68.101  -4.113  1.00  0.00     0.168 HD
HETATM   60  N13 UNL     1     -59.975  65.815  -3.496  1.00  0.00    -0.294 N 
HETATM   61  N14 UNL     1     -58.980  65.508  -2.691  1.00  0.00    -0.279 N 
ATOM     62  H13 UNL     1     -60.859  65.315  -3.595  1.00  0.00     0.187 HD
ATOM     63  H14 UNL     1     -58.970  64.714  -2.051  1.00  0.00     0.189 HD
ENDBRANCH  55  56
ENDBRANCH  54  55
ENDBRANCH  52  54
ENDBRANCH  47  48
ENDBRANCH  45  47
ENDBRANCH  42  45
ENDBRANCH  37  41
BRANCH  40  64
HETATM   64  O5  UNL     1     -50.095  60.759   6.607  1.00  0.00    -0.345 OA
ATOM     65  H5  UNL     1     -49.796  61.365   7.273  1.00  0.00     0.219 HD
ENDBRANCH  40  64
ENDBRANCH  34  35
ENDBRANCH   1  34
TORSDOF 18
ENDMDL
MODEL 5
REMARK VINA RESULT: -8.839543444      6.062     10.022
REMARK  18 active torsions:
REMARK  status: ('A' for Active; 'I' for Inactive)
REMARK    1  A    between atoms: N1_1  and  C1_4 
REMARK    2  A    between atoms: C4_12  and  N4_13 
REMARK    3  A    between atoms: C7_16  and  N5_17 
REMARK    4  A    between atoms: C9_22  and  C10_23 
REMARK    5  A    between atoms: C10_23  and  N6_24 
REMARK    6  A    between atoms: N7_28  and  C11_29 
REMARK    7  A    between atoms: C11_29  and  C12_30 
REMARK    8  A    between atoms: C12_30  and  C13_31 
REMARK    9  A    between atoms: C13_31  and  N8_32 
REMARK   10  A    between atoms: C14_35  and  C15_36 
REMARK   11  A    between atoms: C16_37  and  O2_38 
REMARK   12  A    between atoms: C16_37  and  C17_40 
REMARK   13  A    between atoms: C17_40  and  O4_42 
REMARK   14  A    between atoms: O4_42  and  C18_43 
REMARK   15  A    between atoms: C20_48  and  C21_49 
REMARK   16  A    between atoms: C21_49  and  S1_50 
REMARK   17  A    between atoms: S1_50  and  C22_51 
REMARK   18  A    between atoms: C25_60  and  O5_61 
ROOT
HETATM    1  C12 UNL     1     -55.701  64.615  -1.166  1.00  0.00     0.043 C 
ENDROOT
BRANCH   1   2
HETATM    2  C11 UNL     1     -57.120  65.032  -1.487  1.00  0.00     0.151 C 
BRANCH   2   3
HETATM    3  N7  UNL     1     -57.524  66.194  -0.733  1.00  0.00    -0.165 N 
HETATM    4  C4  UNL     1     -57.167  67.480  -0.845  1.00  0.00     0.685 A 
HETATM    5  N3  UNL     1     -57.883  68.153   0.134  1.00  0.00    -0.182 N 
HETATM    6  C3  UNL     1     -58.643  67.324   0.820  1.00  0.00     0.162 A 
ATOM      7  H3  UNL     1     -57.827  69.157   0.301  1.00  0.00     0.184 HD
HETATM    8  C2  UNL     1     -59.518  67.523   1.879  1.00  0.00     0.290 A 
HETATM    9  C26 UNL     1     -58.430  66.087   0.289  1.00  0.00     0.172 A 
HETATM   10  N2  UNL     1     -60.149  66.437   2.357  1.00  0.00    -0.154 N 
HETATM   11  O1  UNL     1     -59.708  68.676   2.364  1.00  0.00    -0.265 OA
HETATM   12  C1  UNL     1     -59.965  65.205   1.860  1.00  0.00     0.680 A 
ATOM     13  H2  UNL     1     -60.798  66.555   3.134  1.00  0.00     0.187 HD
HETATM   14  N15 UNL     1     -59.111  65.052   0.838  1.00  0.00    -0.174 N 
ATOM     15  H15 UNL     1     -58.968  64.117   0.456  1.00  0.00     0.186 HD
BRANCH   4  16
HETATM   16  N4  UNL     1     -56.293  68.115  -1.740  1.00  0.00    -0.211 N 
HETATM   17  C5  UNL     1     -56.282  68.104  -3.140  1.00  0.00     0.144 C 
HETATM   18  C6  UNL     1     -55.134  67.195  -3.585  1.00  0.00     0.053 C 
HETATM   19  C7  UNL     1     -53.949  67.499  -2.741  1.00  0.00     0.187 C 
HETATM   20  C8  UNL     1     -54.021  68.808  -2.009  1.00  0.00     0.060 C 
HETATM   21  C9  UNL     1     -55.228  68.946  -1.140  1.00  0.00     0.129 C 
BRANCH  19  22
HETATM   22  N5  UNL     1     -52.778  67.555  -3.605  1.00  0.00    -0.075 N 
ATOM     23  H53 UNL     1     -52.933  68.117  -4.442  1.00  0.00     0.274 HD
ATOM     24  H52 UNL     1     -52.021  68.110  -3.205  1.00  0.00     0.274 HD
ATOM     25  H51 UNL     1     -52.494  66.599  -3.819  1.00  0.00     0.274 HD
ENDBRANCH  19  22
BRANCH  21  26
HETATM   26  C10 UNL     1     -55.651  70.421  -1.212  1.00  0.00     0.255 C 
BRANCH  26  27
HETATM   27  N6  UNL     1     -54.655  71.108  -2.010  1.00  0.00    -0.077 N 
ATOM     28  H63 UNL     1     -54.701  70.870  -3.001  1.00  0.00     0.274 HD
ATOM     29  H62 UNL     1     -54.837  72.107  -2.107  1.00  0.00     0.274 HD
ATOM     30  H61 UNL     1     -53.746  70.906  -1.591  1.00  0.00     0.274 HD
ENDBRANCH  26  27
ENDBRANCH  21  26
ENDBRANCH   4  16
BRANCH  12  31
HETATM   31  N1  UNL     1     -60.588  64.167   2.341  1.00  0.00    -0.234 N 
ATOM     32  H12 UNL     1     -61.526  64.275   2.727  1.00  0.00     0.174 HD
ATOM     33  H11 UNL     1     -60.166  63.238   2.346  1.00  0.00     0.174 HD
ENDBRANCH  12  31
ENDBRANCH   2   3
ENDBRANCH   1   2
BRANCH   1  34
HETATM   34  C13 UNL     1     -55.578  64.120   0.256  1.00  0.00     0.153 C 
BRANCH  34  35
HETATM   35  N8  UNL     1     -55.997  62.711   0.283  1.00  0.00    -0.271 N 
HETATM   36  N9  UNL     1     -55.547  61.764  -0.505  1.00  0.00    -0.296 N 
HETATM   37  C14 UNL     1     -56.131  60.593  -0.220  1.00  0.00     0.055 A 
ATOM     38  H9  UNL     1     -54.847  61.901  -1.235  1.00  0.00     0.187 HD
HETATM   39  C24 UNL     1     -57.003  60.830   0.814  1.00  0.00     0.088 A 
HETATM   40  C25 UNL     1     -56.898  62.166   1.110  1.00  0.00     0.159 A 
BRANCH  37  41
HETATM   41  C15 UNL     1     -55.889  59.300  -0.881  1.00  0.00     0.074 C 
HETATM   42  C16 UNL     1     -54.751  59.030  -1.458  1.00  0.00     0.143 C 
BRANCH  42  43
HETATM   43  O2  UNL     1     -53.739  59.987  -1.448  1.00  0.00    -0.355 OA
ATOM     44  H2  UNL     1     -53.967  60.904  -1.338  1.00  0.00     0.218 HD
ENDBRANCH  42  43
BRANCH  42  45
HETATM   45  C17 UNL     1     -54.559  57.744  -2.098  1.00  0.00     0.317 C 
HETATM   46  O3  UNL     1     -54.871  57.617  -3.321  1.00  0.00    -0.257 OA
BRANCH  45  47
HETATM   47  O4  UNL     1     -54.053  56.637  -1.454  1.00  0.00    -0.303 OA
BRANCH  47  48
HETATM   48  C18 UNL     1     -53.034  55.816  -2.035  1.00  0.00     0.196 C 
HETATM   49  C19 UNL     1     -53.412  55.431  -3.424  1.00  0.00     0.173 C 
HETATM   50  N10 UNL     1     -52.183  55.650  -4.168  1.00  0.00    -0.139 NA
HETATM   51  N11 UNL     1     -51.356  56.526  -3.431  1.00  0.00    -0.309 N 
HETATM   52  C20 UNL     1     -51.801  56.640  -2.243  1.00  0.00     0.040 C 
ATOM     53  H11 UNL     1     -50.528  56.997  -3.796  1.00  0.00     0.182 HD
BRANCH  52  54
HETATM   54  C21 UNL     1     -51.194  57.474  -1.183  1.00  0.00     0.138 C 
BRANCH  54  55
HETATM   55  S1  UNL     1     -50.818  56.552   0.311  1.00  0.00    -0.087 SA
BRANCH  55  56
HETATM   56  C22 UNL     1     -50.919  57.548   1.776  1.00  0.00     0.160 A 
HETATM   57  N12 UNL     1     -50.191  58.675   2.033  1.00  0.00    -0.331 N 
HETATM   58  C23 UNL     1     -50.588  59.086   3.243  1.00  0.00     0.199 A 
ATOM     59  H12 UNL     1     -49.492  59.110   1.431  1.00  0.00     0.168 HD
HETATM   60  N13 UNL     1     -51.528  58.259   3.734  1.00  0.00    -0.294 N 
HETATM   61  N14 UNL     1     -51.714  57.328   2.823  1.00  0.00    -0.279 N 
ATOM     62  H13 UNL     1     -52.003  58.338   4.634  1.00  0.00     0.187 HD
ATOM     63  H14 UNL     1     -52.370  56.551   2.906  1.00  0.00     0.189 HD
ENDBRANCH  55  56
ENDBRANCH  54  55
ENDBRANCH  52  54
ENDBRANCH  47  48
ENDBRANCH  45  47
ENDBRANCH  42  45
ENDBRANCH  37  41
BRANCH  40  64
HETATM   64  O5  UNL     1     -57.586  62.864   2.084  1.00  0.00    -0.345 OA
ATOM     65  H5  UNL     1     -58.389  63.348   1.931  1.00  0.00     0.219 HD
ENDBRANCH  40  64
ENDBRANCH  34  35
ENDBRANCH   1  34
TORSDOF 18
ENDMDL
