MODEL 1
REMARK VINA RESULT: -7.705893348      0.000      0.000
REMARK  12 active torsions:
REMARK  status: ('A' for Active; 'I' for Inactive)
REMARK    1  A    between atoms: S1_2  and  C2_3 
REMARK    2  A    between atoms: C2_3  and  C3_4 
REMARK    3  A    between atoms: C3_4  and  N1_5 
REMARK    4  A    between atoms: C4_6  and  C5_7 
REMARK    5  A    between atoms: C10_13  and  C11_14 
REMARK    6  A    between atoms: C11_14  and  C12_15 
REMARK    7  A    between atoms: C12_15  and  C13_16 
REMARK    8  A    between atoms: C13_16  and  C14_17 
REMARK    9  A    between atoms: C14_17  and  N3_18 
REMARK       I    between atoms: N3_18  and  C15_20 
REMARK       I    between atoms: C15_20  and  N4_22 
REMARK   10  A    between atoms: N4_22  and  C16_24 
REMARK   11  A    between atoms: C16_24  and  C17_25 
REMARK   12  A    between atoms: C17_25  and  N5_26 
ROOT
HETATM    1  C5  UNL     1      17.973  42.324  70.666  1.00  0.00     0.149 C 
HETATM    2  C6  UNL     1      17.004  42.235  71.724  1.00  0.00     0.061 C 
HETATM    3  N2  UNL     1      16.207  42.167  72.560  1.00  0.00    -0.197 NA
ENDROOT
BRANCH   1   4
HETATM    4  C4  UNL     1      19.413  42.071  71.158  1.00  0.00     0.097 C 
HETATM    5  N1  UNL     1      20.280  42.173  70.072  1.00  0.00    -0.381 N 
HETATM    6  C10 UNL     1      20.932  41.056  69.496  1.00  0.00    -0.015 C 
HETATM    7  C9  UNL     1      20.947  39.780  70.208  1.00  0.00     0.052 C 
HETATM    8  C8  UNL     1      20.587  39.892  71.675  1.00  0.00     0.008 C 
HETATM    9  C7  UNL     1      19.376  40.770  71.861  1.00  0.00     0.026 C 
BRANCH   5  10
HETATM   10  C3  UNL     1      21.132  43.345  70.103  1.00  0.00     0.133 C 
BRANCH  10  11
HETATM   11  C2  UNL     1      22.577  42.997  70.376  1.00  0.00     0.093 C 
BRANCH  11  12
HETATM   12  S1  UNL     1      22.814  42.911  72.174  1.00  0.00    -0.172 SA
HETATM   13  C1  UNL     1      23.814  41.430  72.533  1.00  0.00     0.089 C 
ENDBRANCH  11  12
ENDBRANCH  10  11
ENDBRANCH   5  10
BRANCH   6  14
HETATM   14  C11 UNL     1      20.790  41.085  67.999  1.00  0.00     0.052 C 
BRANCH  14  15
HETATM   15  C12 UNL     1      21.839  41.668  67.185  1.00  0.00     0.011 C 
BRANCH  15  16
HETATM   16  C13 UNL     1      21.541  42.820  66.321  1.00  0.00     0.045 C 
BRANCH  16  17
HETATM   17  C14 UNL     1      20.312  43.586  66.505  1.00  0.00     0.065 C 
BRANCH  17  18
HETATM   18  N3  UNL     1      19.338  43.781  65.530  1.00  0.00    -0.323 N 
HETATM   19  C15 UNL     1      18.128  42.971  65.658  1.00  0.00     0.319 C 
HETATM   20  O1  UNL     1      17.982  42.151  66.593  1.00  0.00    -0.247 OA
HETATM   21  N4  UNL     1      17.082  43.102  64.712  1.00  0.00    -0.341 N 
ATOM     22  H4  UNL     1      17.206  43.776  63.956  1.00  0.00     0.164 HD
ATOM     23  H3  UNL     1      19.461  44.450  64.770  1.00  0.00     0.169 HD
BRANCH  21  24
HETATM   24  C16 UNL     1      15.869  42.358  64.744  1.00  0.00     0.152 C 
BRANCH  24  25
HETATM   25  C17 UNL     1      14.742  43.005  65.504  1.00  0.00     0.255 C 
BRANCH  25  26
HETATM   26  N5  UNL     1      13.451  42.511  65.107  1.00  0.00    -0.077 N 
HETATM   27  C18 UNL     1      12.678  42.271  66.323  1.00  0.00     0.271 C 
HETATM   28  C19 UNL     1      13.530  41.249  64.406  1.00  0.00     0.271 C 
HETATM   29  C20 UNL     1      12.711  43.433  64.286  1.00  0.00     0.271 C 
ENDBRANCH  25  26
ENDBRANCH  24  25
ENDBRANCH  21  24
ENDBRANCH  17  18
ENDBRANCH  16  17
ENDBRANCH  15  16
ENDBRANCH  14  15
ENDBRANCH   6  14
ENDBRANCH   1   4
TORSDOF 12
ENDMDL
MODEL 2
REMARK VINA RESULT: -7.664041548      1.781      2.685
REMARK  12 active torsions:
REMARK  status: ('A' for Active; 'I' for Inactive)
REMARK    1  A    between atoms: S1_2  and  C2_3 
REMARK    2  A    between atoms: C2_3  and  C3_4 
REMARK    3  A    between atoms: C3_4  and  N1_5 
REMARK    4  A    between atoms: C4_6  and  C5_7 
REMARK    5  A    between atoms: C10_13  and  C11_14 
REMARK    6  A    between atoms: C11_14  and  C12_15 
REMARK    7  A    between atoms: C12_15  and  C13_16 
REMARK    8  A    between atoms: C13_16  and  C14_17 
REMARK    9  A    between atoms: C14_17  and  N3_18 
REMARK       I    between atoms: N3_18  and  C15_20 
REMARK       I    between atoms: C15_20  and  N4_22 
REMARK   10  A    between atoms: N4_22  and  C16_24 
REMARK   11  A    between atoms: C16_24  and  C17_25 
REMARK   12  A    between atoms: C17_25  and  N5_26 
ROOT
HETATM    1  C5  UNL     1      18.200  41.377  71.477  1.00  0.00     0.149 C 
HETATM    2  C6  UNL     1      17.012  41.909  72.087  1.00  0.00     0.061 C 
HETATM    3  N2  UNL     1      16.044  42.316  72.573  1.00  0.00    -0.197 NA
ENDROOT
BRANCH   1   4
HETATM    4  C4  UNL     1      19.404  42.335  71.592  1.00  0.00     0.097 C 
HETATM    5  N1  UNL     1      19.851  42.645  70.309  1.00  0.00    -0.381 N 
HETATM    6  C10 UNL     1      21.070  42.157  69.777  1.00  0.00    -0.015 C 
HETATM    7  C9  UNL     1      22.052  41.540  70.664  1.00  0.00     0.052 C 
HETATM    8  C8  UNL     1      21.823  41.835  72.132  1.00  0.00     0.008 C 
HETATM    9  C7  UNL     1      20.368  41.663  72.490  1.00  0.00     0.026 C 
BRANCH   5  10
HETATM   10  C3  UNL     1      19.588  44.011  69.905  1.00  0.00     0.133 C 
BRANCH  10  11
HETATM   11  C2  UNL     1      18.186  44.192  69.371  1.00  0.00     0.093 C 
BRANCH  11  12
HETATM   12  S1  UNL     1      17.879  45.970  69.161  1.00  0.00    -0.172 SA
HETATM   13  C1  UNL     1      16.074  46.224  69.142  1.00  0.00     0.089 C 
ENDBRANCH  11  12
ENDBRANCH  10  11
ENDBRANCH   5  10
BRANCH   6  14
HETATM   14  C11 UNL     1      20.850  41.608  68.393  1.00  0.00     0.052 C 
BRANCH  14  15
HETATM   15  C12 UNL     1      21.793  41.916  67.335  1.00  0.00     0.011 C 
BRANCH  15  16
HETATM   16  C13 UNL     1      21.386  42.787  66.222  1.00  0.00     0.045 C 
BRANCH  16  17
HETATM   17  C14 UNL     1      20.284  43.731  66.384  1.00  0.00     0.065 C 
BRANCH  17  18
HETATM   18  N3  UNL     1      19.264  43.935  65.458  1.00  0.00    -0.323 N 
HETATM   19  C15 UNL     1      18.086  43.082  65.600  1.00  0.00     0.319 C 
HETATM   20  O1  UNL     1      18.004  42.219  66.504  1.00  0.00    -0.247 OA
HETATM   21  N4  UNL     1      16.998  43.219  64.704  1.00  0.00    -0.341 N 
ATOM     22  H4  UNL     1      17.070  43.928  63.973  1.00  0.00     0.164 HD
ATOM     23  H3  UNL     1      19.335  44.639  64.724  1.00  0.00     0.169 HD
BRANCH  21  24
HETATM   24  C16 UNL     1      15.810  42.437  64.752  1.00  0.00     0.152 C 
BRANCH  24  25
HETATM   25  C17 UNL     1      14.704  43.004  65.602  1.00  0.00     0.255 C 
BRANCH  25  26
HETATM   26  N5  UNL     1      13.409  42.504  65.231  1.00  0.00    -0.077 N 
HETATM   27  C18 UNL     1      13.610  41.238  64.531  1.00  0.00     0.271 C 
HETATM   28  C19 UNL     1      12.714  43.382  64.315  1.00  0.00     0.271 C 
HETATM   29  C20 UNL     1      12.544  42.256  66.354  1.00  0.00     0.271 C 
ENDBRANCH  25  26
ENDBRANCH  24  25
ENDBRANCH  21  24
ENDBRANCH  17  18
ENDBRANCH  16  17
ENDBRANCH  15  16
ENDBRANCH  14  15
ENDBRANCH   6  14
ENDBRANCH   1   4
TORSDOF 12
ENDMDL
MODEL 3
REMARK VINA RESULT: -7.562957352      1.715      2.010
REMARK  12 active torsions:
REMARK  status: ('A' for Active; 'I' for Inactive)
REMARK    1  A    between atoms: S1_2  and  C2_3 
REMARK    2  A    between atoms: C2_3  and  C3_4 
REMARK    3  A    between atoms: C3_4  and  N1_5 
REMARK    4  A    between atoms: C4_6  and  C5_7 
REMARK    5  A    between atoms: C10_13  and  C11_14 
REMARK    6  A    between atoms: C11_14  and  C12_15 
REMARK    7  A    between atoms: C12_15  and  C13_16 
REMARK    8  A    between atoms: C13_16  and  C14_17 
REMARK    9  A    between atoms: C14_17  and  N3_18 
REMARK       I    between atoms: N3_18  and  C15_20 
REMARK       I    between atoms: C15_20  and  N4_22 
REMARK   10  A    between atoms: N4_22  and  C16_24 
REMARK   11  A    between atoms: C16_24  and  C17_25 
REMARK   12  A    between atoms: C17_25  and  N5_26 
ROOT
HETATM    1  C5  UNL     1      19.632  42.822  70.403  1.00  0.00     0.149 C 
HETATM    2  C6  UNL     1      19.928  44.117  69.853  1.00  0.00     0.061 C 
HETATM    3  N2  UNL     1      20.143  45.165  69.412  1.00  0.00    -0.197 NA
ENDROOT
BRANCH   1   4
HETATM    4  C4  UNL     1      20.902  41.988  70.670  1.00  0.00     0.097 C 
HETATM    5  N1  UNL     1      21.792  42.180  69.615  1.00  0.00    -0.381 N 
HETATM    6  C10 UNL     1      22.077  41.180  68.654  1.00  0.00    -0.015 C 
HETATM    7  C9  UNL     1      21.665  39.800  68.898  1.00  0.00     0.052 C 
HETATM    8  C8  UNL     1      21.310  39.514  70.343  1.00  0.00     0.008 C 
HETATM    9  C7  UNL     1      20.433  40.604  70.903  1.00  0.00     0.026 C 
BRANCH   5  10
HETATM   10  C3  UNL     1      22.969  42.949  69.967  1.00  0.00     0.133 C 
BRANCH  10  11
HETATM   11  C2  UNL     1      23.328  42.811  71.429  1.00  0.00     0.093 C 
BRANCH  11  12
HETATM   12  S1  UNL     1      24.801  41.756  71.559  1.00  0.00    -0.172 SA
HETATM   13  C1  UNL     1      24.963  41.239  73.299  1.00  0.00     0.089 C 
ENDBRANCH  11  12
ENDBRANCH  10  11
ENDBRANCH   5  10
BRANCH   6  14
HETATM   14  C11 UNL     1      22.002  41.757  67.266  1.00  0.00     0.052 C 
BRANCH  14  15
HETATM   15  C12 UNL     1      20.719  42.151  66.716  1.00  0.00     0.011 C 
BRANCH  15  16
HETATM   16  C13 UNL     1      20.517  43.527  66.238  1.00  0.00     0.045 C 
BRANCH  16  17
HETATM   17  C14 UNL     1      19.177  44.103  66.182  1.00  0.00     0.065 C 
BRANCH  17  18
HETATM   18  N3  UNL     1      18.284  43.950  65.126  1.00  0.00    -0.323 N 
HETATM   19  C15 UNL     1      17.283  42.897  65.277  1.00  0.00     0.319 C 
HETATM   20  O1  UNL     1      17.235  42.177  66.301  1.00  0.00    -0.247 OA
HETATM   21  N4  UNL     1      16.332  42.668  64.253  1.00  0.00    -0.341 N 
ATOM     22  H4  UNL     1      16.374  43.262  63.424  1.00  0.00     0.164 HD
ATOM     23  H3  UNL     1      18.327  44.539  64.294  1.00  0.00     0.169 HD
BRANCH  21  24
HETATM   24  C16 UNL     1      15.321  41.667  64.300  1.00  0.00     0.152 C 
BRANCH  24  25
HETATM   25  C17 UNL     1      13.931  42.146  63.977  1.00  0.00     0.255 C 
BRANCH  25  26
HETATM   26  N5  UNL     1      13.132  42.359  65.153  1.00  0.00    -0.077 N 
HETATM   27  C18 UNL     1      12.695  41.050  65.632  1.00  0.00     0.271 C 
HETATM   28  C19 UNL     1      11.936  43.125  64.883  1.00  0.00     0.271 C 
HETATM   29  C20 UNL     1      13.845  43.006  66.223  1.00  0.00     0.271 C 
ENDBRANCH  25  26
ENDBRANCH  24  25
ENDBRANCH  21  24
ENDBRANCH  17  18
ENDBRANCH  16  17
ENDBRANCH  15  16
ENDBRANCH  14  15
ENDBRANCH   6  14
ENDBRANCH   1   4
TORSDOF 12
ENDMDL
MODEL 4
REMARK VINA RESULT: -7.471047558      2.053      3.417
REMARK  12 active torsions:
REMARK  status: ('A' for Active; 'I' for Inactive)
REMARK    1  A    between atoms: S1_2  and  C2_3 
REMARK    2  A    between atoms: C2_3  and  C3_4 
REMARK    3  A    between atoms: C3_4  and  N1_5 
REMARK    4  A    between atoms: C4_6  and  C5_7 
REMARK    5  A    between atoms: C10_13  and  C11_14 
REMARK    6  A    between atoms: C11_14  and  C12_15 
REMARK    7  A    between atoms: C12_15  and  C13_16 
REMARK    8  A    between atoms: C13_16  and  C14_17 
REMARK    9  A    between atoms: C14_17  and  N3_18 
REMARK       I    between atoms: N3_18  and  C15_20 
REMARK       I    between atoms: C15_20  and  N4_22 
REMARK   10  A    between atoms: N4_22  and  C16_24 
REMARK   11  A    between atoms: C16_24  and  C17_25 
REMARK   12  A    between atoms: C17_25  and  N5_26 
ROOT
HETATM    1  C5  UNL     1      17.048  44.651  72.639  1.00  0.00     0.149 C 
HETATM    2  C6  UNL     1      16.301  43.932  73.634  1.00  0.00     0.061 C 
HETATM    3  N2  UNL     1      15.710  43.366  74.452  1.00  0.00    -0.197 NA
ENDROOT
BRANCH   1   4
HETATM    4  C4  UNL     1      16.616  44.294  71.201  1.00  0.00     0.097 C 
HETATM    5  N1  UNL     1      17.724  43.807  70.510  1.00  0.00    -0.381 N 
HETATM    6  C10 UNL     1      18.373  44.532  69.482  1.00  0.00    -0.015 C 
HETATM    7  C9  UNL     1      17.725  45.706  68.903  1.00  0.00     0.052 C 
HETATM    8  C8  UNL     1      16.244  45.799  69.204  1.00  0.00     0.008 C 
HETATM    9  C7  UNL     1      15.976  45.512  70.659  1.00  0.00     0.026 C 
BRANCH   5  10
HETATM   10  C3  UNL     1      17.664  42.388  70.222  1.00  0.00     0.133 C 
BRANCH  10  11
HETATM   11  C2  UNL     1      18.067  41.544  71.409  1.00  0.00     0.093 C 
BRANCH  11  12
HETATM   12  S1  UNL     1      19.815  41.087  71.218  1.00  0.00    -0.172 SA
HETATM   13  C1  UNL     1      20.472  40.698  72.873  1.00  0.00     0.089 C 
ENDBRANCH  11  12
ENDBRANCH  10  11
ENDBRANCH   5  10
BRANCH   6  14
HETATM   14  C11 UNL     1      19.863  44.520  69.698  1.00  0.00     0.052 C 
BRANCH  14  15
HETATM   15  C12 UNL     1      20.756  44.386  68.563  1.00  0.00     0.011 C 
BRANCH  15  16
HETATM   16  C13 UNL     1      21.006  43.058  67.981  1.00  0.00     0.045 C 
BRANCH  16  17
HETATM   17  C14 UNL     1      20.156  42.546  66.911  1.00  0.00     0.065 C 
BRANCH  17  18
HETATM   18  N3  UNL     1      19.285  43.314  66.145  1.00  0.00    -0.323 N 
HETATM   19  C15 UNL     1      18.001  42.698  65.818  1.00  0.00     0.319 C 
HETATM   20  O1  UNL     1      17.708  41.544  66.207  1.00  0.00    -0.247 OA
HETATM   21  N4  UNL     1      17.050  43.406  65.043  1.00  0.00    -0.341 N 
ATOM     22  H4  UNL     1      17.294  44.347  64.734  1.00  0.00     0.164 HD
ATOM     23  H3  UNL     1      19.528  44.254  65.830  1.00  0.00     0.169 HD
BRANCH  21  24
HETATM   24  C16 UNL     1      15.776  42.895  64.666  1.00  0.00     0.152 C 
BRANCH  24  25
HETATM   25  C17 UNL     1      14.687  43.071  65.690  1.00  0.00     0.255 C 
BRANCH  25  26
HETATM   26  N5  UNL     1      13.430  42.521  65.262  1.00  0.00    -0.077 N 
HETATM   27  C18 UNL     1      13.707  41.241  64.616  1.00  0.00     0.271 C 
HETATM   28  C19 UNL     1      12.765  43.349  64.281  1.00  0.00     0.271 C 
HETATM   29  C20 UNL     1      12.509  42.282  66.342  1.00  0.00     0.271 C 
ENDBRANCH  25  26
ENDBRANCH  24  25
ENDBRANCH  21  24
ENDBRANCH  17  18
ENDBRANCH  16  17
ENDBRANCH  15  16
ENDBRANCH  14  15
ENDBRANCH   6  14
ENDBRANCH   1   4
TORSDOF 12
ENDMDL
MODEL 5
REMARK VINA RESULT: -7.441324233      1.009      1.530
REMARK  12 active torsions:
REMARK  status: ('A' for Active; 'I' for Inactive)
REMARK    1  A    between atoms: S1_2  and  C2_3 
REMARK    2  A    between atoms: C2_3  and  C3_4 
REMARK    3  A    between atoms: C3_4  and  N1_5 
REMARK    4  A    between atoms: C4_6  and  C5_7 
REMARK    5  A    between atoms: C10_13  and  C11_14 
REMARK    6  A    between atoms: C11_14  and  C12_15 
REMARK    7  A    between atoms: C12_15  and  C13_16 
REMARK    8  A    between atoms: C13_16  and  C14_17 
REMARK    9  A    between atoms: C14_17  and  N3_18 
REMARK       I    between atoms: N3_18  and  C15_20 
REMARK       I    between atoms: C15_20  and  N4_22 
REMARK   10  A    between atoms: N4_22  and  C16_24 
REMARK   11  A    between atoms: C16_24  and  C17_25 
REMARK   12  A    between atoms: C17_25  and  N5_26 
ROOT
HETATM    1  C5  UNL     1      18.028  42.396  70.391  1.00  0.00     0.149 C 
HETATM    2  C6  UNL     1      17.565  43.732  70.648  1.00  0.00     0.061 C 
HETATM    3  N2  UNL     1      17.172  44.803  70.844  1.00  0.00    -0.197 NA
ENDROOT
BRANCH   1   4
HETATM    4  C4  UNL     1      19.411  42.117  71.015  1.00  0.00     0.097 C 
HETATM    5  N1  UNL     1      20.371  42.155  70.007  1.00  0.00    -0.381 N 
HETATM    6  C10 UNL     1      21.034  40.999  69.527  1.00  0.00    -0.015 C 
HETATM    7  C9  UNL     1      20.945  39.749  70.277  1.00  0.00     0.052 C 
HETATM    8  C8  UNL     1      20.463  39.923  71.703  1.00  0.00     0.008 C 
HETATM    9  C7  UNL     1      19.270  40.844  71.754  1.00  0.00     0.026 C 
BRANCH   5  10
HETATM   10  C3  UNL     1      21.255  43.301  70.075  1.00  0.00     0.133 C 
BRANCH  10  11
HETATM   11  C2  UNL     1      22.447  43.055  70.971  1.00  0.00     0.093 C 
BRANCH  11  12
HETATM   12  S1  UNL     1      23.947  43.558  70.080  1.00  0.00    -0.172 SA
HETATM   13  C1  UNL     1      23.476  44.849  68.882  1.00  0.00     0.089 C 
ENDBRANCH  11  12
ENDBRANCH  10  11
ENDBRANCH   5  10
BRANCH   6  14
HETATM   14  C11 UNL     1      21.023  40.980  68.022  1.00  0.00     0.052 C 
BRANCH  14  15
HETATM   15  C12 UNL     1      22.015  41.736  67.283  1.00  0.00     0.011 C 
BRANCH  15  16
HETATM   16  C13 UNL     1      21.588  42.709  66.266  1.00  0.00     0.045 C 
BRANCH  16  17
HETATM   17  C14 UNL     1      20.396  43.524  66.476  1.00  0.00     0.065 C 
BRANCH  17  18
HETATM   18  N3  UNL     1      19.401  43.745  65.527  1.00  0.00    -0.323 N 
HETATM   19  C15 UNL     1      18.184  42.950  65.674  1.00  0.00     0.319 C 
HETATM   20  O1  UNL     1      18.049  42.120  66.601  1.00  0.00    -0.247 OA
HETATM   21  N4  UNL     1      17.117  43.108  64.755  1.00  0.00    -0.341 N 
ATOM     22  H4  UNL     1      17.233  43.791  64.005  1.00  0.00     0.164 HD
ATOM     23  H3  UNL     1      19.516  44.423  64.774  1.00  0.00     0.169 HD
BRANCH  21  24
HETATM   24  C16 UNL     1      15.895  42.381  64.806  1.00  0.00     0.152 C 
BRANCH  24  25
HETATM   25  C17 UNL     1      14.770  43.071  65.530  1.00  0.00     0.255 C 
BRANCH  25  26
HETATM   26  N5  UNL     1      13.480  42.540  65.183  1.00  0.00    -0.077 N 
HETATM   27  C18 UNL     1      13.700  41.321  64.408  1.00  0.00     0.271 C 
HETATM   28  C19 UNL     1      12.717  43.436  64.343  1.00  0.00     0.271 C 
HETATM   29  C20 UNL     1      12.672  42.199  66.324  1.00  0.00     0.271 C 
ENDBRANCH  25  26
ENDBRANCH  24  25
ENDBRANCH  21  24
ENDBRANCH  17  18
ENDBRANCH  16  17
ENDBRANCH  15  16
ENDBRANCH  14  15
ENDBRANCH   6  14
ENDBRANCH   1   4
TORSDOF 12
ENDMDL
