MODEL 1
REMARK VINA RESULT: -8.847883334      0.000      0.000
REMARK  13 active torsions:
REMARK  status: ('A' for Active; 'I' for Inactive)
REMARK    1  A    between atoms: C3_3  and  N1_4 
REMARK    2  A    between atoms: C3_3  and  C19_28 
REMARK    3  A    between atoms: N1_4  and  C4_6 
REMARK    4  A    between atoms: C4_6  and  C5_7 
REMARK    5  A    between atoms: C4_6  and  C9_11 
REMARK    6  A    between atoms: C5_7  and  C6_8 
REMARK    7  A    between atoms: C6_8  and  C7_9 
REMARK       I    between atoms: C9_11  and  N2_13 
REMARK    8  A    between atoms: N2_13  and  C10_15 
REMARK    9  A    between atoms: C10_15  and  C12_17 
REMARK       I    between atoms: C12_17  and  N3_19 
REMARK   10  A    between atoms: N3_19  and  C13_21 
REMARK   11  A    between atoms: C13_21  and  C14_22 
REMARK   12  A    between atoms: C13_21  and  C15_24 
REMARK   13  A    between atoms: C15_24  and  C16_25 
ROOT
HETATM    1  C1  UNL     1      18.367  41.727  70.912  1.00  0.00     0.014 C 
HETATM    2  C2  UNL     1      18.683  42.361  69.941  1.00  0.00    -0.092 C 
HETATM    3  C3  UNL     1      19.096  43.118  68.802  1.00  0.00     0.164 C 
ENDROOT
BRANCH   3   4
HETATM    4  N1  UNL     1      18.419  44.219  68.342  1.00  0.00    -0.373 N 
ATOM      5  H1  UNL     1      18.994  45.033  68.127  1.00  0.00     0.161 HD
BRANCH   4   6
HETATM    6  C4  UNL     1      17.073  44.370  68.134  1.00  0.00     0.074 C 
BRANCH   6   7
HETATM    7  C5  UNL     1      16.362  45.584  68.652  1.00  0.00     0.062 C 
BRANCH   7   8
HETATM    8  C6  UNL     1      15.766  45.496  70.007  1.00  0.00     0.006 C 
BRANCH   8   9
HETATM    9  C7  UNL     1      16.506  45.060  71.185  1.00  0.00    -0.004 C 
HETATM   10  C8  UNL     1      15.743  45.274  72.453  1.00  0.00     0.005 C 
ENDBRANCH   8   9
ENDBRANCH   7   8
ENDBRANCH   6   7
BRANCH   6  11
HETATM   11  C9  UNL     1      16.597  44.073  66.731  1.00  0.00     0.264 C 
HETATM   12  O1  UNL     1      16.981  44.749  65.761  1.00  0.00    -0.266 OA
HETATM   13  N2  UNL     1      15.702  43.013  66.473  1.00  0.00    -0.343 N 
ATOM     14  H2  UNL     1      15.390  42.449  67.262  1.00  0.00     0.163 HD
BRANCH  13  15
HETATM   15  C10 UNL     1      15.202  42.678  65.169  1.00  0.00     0.172 C 
HETATM   16  C11 UNL     1      16.181  41.713  64.491  1.00  0.00     0.042 C 
BRANCH  15  17
HETATM   17  C12 UNL     1      13.837  42.091  65.184  1.00  0.00     0.240 C 
HETATM   18  O2  UNL     1      13.679  41.015  64.566  1.00  0.00    -0.271 OA
HETATM   19  N3  UNL     1      12.765  42.723  65.868  1.00  0.00    -0.349 N 
ATOM     20  H3  UNL     1      12.954  43.592  66.368  1.00  0.00     0.163 HD
BRANCH  19  21
HETATM   21  C13 UNL     1      11.420  42.194  65.892  1.00  0.00     0.146 C 
BRANCH  21  22
HETATM   22  C14 UNL     1      10.532  43.042  65.069  1.00  0.00     0.256 C 
HETATM   23  O3  UNL     1      10.993  43.844  64.256  1.00  0.00    -0.305 OA
ENDBRANCH  21  22
BRANCH  21  24
HETATM   24  C15 UNL     1      10.881  42.181  67.311  1.00  0.00     0.036 C 
BRANCH  24  25
HETATM   25  C16 UNL     1       9.406  41.785  67.316  1.00  0.00    -0.020 C 
HETATM   26  C17 UNL     1       8.683  42.436  68.480  1.00  0.00     0.009 C 
HETATM   27  C18 UNL     1       9.306  40.301  67.332  1.00  0.00     0.009 C 
ENDBRANCH  24  25
ENDBRANCH  21  24
ENDBRANCH  19  21
ENDBRANCH  15  17
ENDBRANCH  13  15
ENDBRANCH   6  11
ENDBRANCH   4   6
ENDBRANCH   3   4
BRANCH   3  28
HETATM   28  C19 UNL     1      19.306  42.052  67.697  1.00  0.00     0.020 C 
HETATM   29  C20 UNL     1      20.444  41.136  68.102  1.00  0.00     0.007 C 
HETATM   30  C21 UNL     1      21.658  42.001  67.767  1.00  0.00     0.000 C 
HETATM   31  C22 UNL     1      21.221  43.055  66.810  1.00  0.00     0.000 C 
HETATM   32  C23 UNL     1      19.835  42.619  66.434  1.00  0.00     0.007 C 
ENDBRANCH   3  28
TORSDOF 13
ENDMDL
MODEL 2
REMARK VINA RESULT: -8.768153000      1.015      2.187
REMARK  13 active torsions:
REMARK  status: ('A' for Active; 'I' for Inactive)
REMARK    1  A    between atoms: C3_3  and  N1_4 
REMARK    2  A    between atoms: C3_3  and  C19_28 
REMARK    3  A    between atoms: N1_4  and  C4_6 
REMARK    4  A    between atoms: C4_6  and  C5_7 
REMARK    5  A    between atoms: C4_6  and  C9_11 
REMARK    6  A    between atoms: C5_7  and  C6_8 
REMARK    7  A    between atoms: C6_8  and  C7_9 
REMARK       I    between atoms: C9_11  and  N2_13 
REMARK    8  A    between atoms: N2_13  and  C10_15 
REMARK    9  A    between atoms: C10_15  and  C12_17 
REMARK       I    between atoms: C12_17  and  N3_19 
REMARK   10  A    between atoms: N3_19  and  C13_21 
REMARK   11  A    between atoms: C13_21  and  C14_22 
REMARK   12  A    between atoms: C13_21  and  C15_24 
REMARK   13  A    between atoms: C15_24  and  C16_25 
ROOT
HETATM    1  C1  UNL     1      20.097  42.295  66.932  1.00  0.00     0.014 C 
HETATM    2  C2  UNL     1      19.384  42.359  67.897  1.00  0.00    -0.092 C 
HETATM    3  C3  UNL     1      18.540  42.395  69.049  1.00  0.00     0.164 C 
ENDROOT
BRANCH   3   4
HETATM    4  N1  UNL     1      17.317  43.017  69.069  1.00  0.00    -0.373 N 
ATOM      5  H1  UNL     1      16.600  42.562  69.634  1.00  0.00     0.161 HD
BRANCH   4   6
HETATM    6  C4  UNL     1      16.931  44.166  68.430  1.00  0.00     0.074 C 
BRANCH   6   7
HETATM    7  C5  UNL     1      17.744  45.417  68.571  1.00  0.00     0.062 C 
BRANCH   7   8
HETATM    8  C6  UNL     1      17.179  46.505  69.406  1.00  0.00     0.006 C 
BRANCH   8   9
HETATM    9  C7  UNL     1      15.800  46.968  69.299  1.00  0.00    -0.004 C 
HETATM   10  C8  UNL     1      14.938  46.464  70.412  1.00  0.00     0.005 C 
ENDBRANCH   8   9
ENDBRANCH   7   8
ENDBRANCH   6   7
BRANCH   6  11
HETATM   11  C9  UNL     1      16.520  43.997  66.986  1.00  0.00     0.264 C 
HETATM   12  O1  UNL     1      16.931  44.767  66.101  1.00  0.00    -0.266 OA
HETATM   13  N2  UNL     1      15.656  42.954  66.590  1.00  0.00    -0.343 N 
ATOM     14  H2  UNL     1      15.321  42.313  67.309  1.00  0.00     0.163 HD
BRANCH  13  15
HETATM   15  C10 UNL     1      15.217  42.737  65.241  1.00  0.00     0.172 C 
HETATM   16  C11 UNL     1      16.225  41.829  64.527  1.00  0.00     0.042 C 
BRANCH  15  17
HETATM   17  C12 UNL     1      13.852  42.159  65.141  1.00  0.00     0.240 C 
HETATM   18  O2  UNL     1      13.692  41.227  64.322  1.00  0.00    -0.271 OA
HETATM   19  N3  UNL     1      12.781  42.643  65.937  1.00  0.00    -0.349 N 
ATOM     20  H3  UNL     1      12.970  43.397  66.598  1.00  0.00     0.163 HD
BRANCH  19  21
HETATM   21  C13 UNL     1      11.435  42.121  65.857  1.00  0.00     0.146 C 
BRANCH  21  22
HETATM   22  C14 UNL     1      10.573  43.064  65.113  1.00  0.00     0.256 C 
HETATM   23  O3  UNL     1      11.039  43.798  64.241  1.00  0.00    -0.305 OA
ENDBRANCH  21  22
BRANCH  21  24
HETATM   24  C15 UNL     1      10.853  41.943  67.248  1.00  0.00     0.036 C 
BRANCH  24  25
HETATM   25  C16 UNL     1       9.351  41.678  67.165  1.00  0.00    -0.020 C 
HETATM   26  C17 UNL     1       8.624  42.366  68.305  1.00  0.00     0.009 C 
HETATM   27  C18 UNL     1       9.121  40.208  67.137  1.00  0.00     0.009 C 
ENDBRANCH  24  25
ENDBRANCH  21  24
ENDBRANCH  19  21
ENDBRANCH  15  17
ENDBRANCH  13  15
ENDBRANCH   6  11
ENDBRANCH   4   6
ENDBRANCH   3   4
BRANCH   3  28
HETATM   28  C19 UNL     1      19.472  42.894  70.183  1.00  0.00     0.020 C 
HETATM   29  C20 UNL     1      20.564  41.869  70.413  1.00  0.00     0.007 C 
HETATM   30  C21 UNL     1      19.819  40.814  71.228  1.00  0.00     0.000 C 
HETATM   31  C22 UNL     1      18.604  41.454  71.806  1.00  0.00     0.000 C 
HETATM   32  C23 UNL     1      18.815  42.911  71.512  1.00  0.00     0.007 C 
ENDBRANCH   3  28
TORSDOF 13
ENDMDL
MODEL 3
REMARK VINA RESULT: -8.579220301      2.310      5.292
REMARK  13 active torsions:
REMARK  status: ('A' for Active; 'I' for Inactive)
REMARK    1  A    between atoms: C3_3  and  N1_4 
REMARK    2  A    between atoms: C3_3  and  C19_28 
REMARK    3  A    between atoms: N1_4  and  C4_6 
REMARK    4  A    between atoms: C4_6  and  C5_7 
REMARK    5  A    between atoms: C4_6  and  C9_11 
REMARK    6  A    between atoms: C5_7  and  C6_8 
REMARK    7  A    between atoms: C6_8  and  C7_9 
REMARK       I    between atoms: C9_11  and  N2_13 
REMARK    8  A    between atoms: N2_13  and  C10_15 
REMARK    9  A    between atoms: C10_15  and  C12_17 
REMARK       I    between atoms: C12_17  and  N3_19 
REMARK   10  A    between atoms: N3_19  and  C13_21 
REMARK   11  A    between atoms: C13_21  and  C14_22 
REMARK   12  A    between atoms: C13_21  and  C15_24 
REMARK   13  A    between atoms: C15_24  and  C16_25 
ROOT
HETATM    1  C1  UNL     1      13.867  47.054  70.674  1.00  0.00     0.014 C 
HETATM    2  C2  UNL     1      14.689  46.336  71.177  1.00  0.00    -0.092 C 
HETATM    3  C3  UNL     1      15.683  45.515  71.792  1.00  0.00     0.164 C 
ENDROOT
BRANCH   3   4
HETATM    4  N1  UNL     1      16.455  44.618  71.099  1.00  0.00    -0.373 N 
ATOM      5  H1  UNL     1      16.163  43.643  71.161  1.00  0.00     0.161 HD
BRANCH   4   6
HETATM    6  C4  UNL     1      17.567  44.857  70.333  1.00  0.00     0.074 C 
BRANCH   6   7
HETATM    7  C5  UNL     1      18.848  44.133  70.618  1.00  0.00     0.062 C 
BRANCH   7   8
HETATM    8  C6  UNL     1      18.814  43.079  71.662  1.00  0.00     0.006 C 
BRANCH   8   9
HETATM    9  C7  UNL     1      18.472  41.688  71.391  1.00  0.00    -0.004 C 
HETATM   10  C8  UNL     1      19.437  40.729  72.012  1.00  0.00     0.005 C 
ENDBRANCH   8   9
ENDBRANCH   7   8
ENDBRANCH   6   7
BRANCH   6  11
HETATM   11  C9  UNL     1      17.331  44.888  68.841  1.00  0.00     0.264 C 
HETATM   12  O1  UNL     1      16.450  45.608  68.340  1.00  0.00    -0.266 OA
HETATM   13  N2  UNL     1      18.105  44.101  67.963  1.00  0.00    -0.343 N 
ATOM     14  H2  UNL     1      18.835  43.514  68.366  1.00  0.00     0.163 HD
BRANCH  13  15
HETATM   15  C10 UNL     1      17.932  44.072  66.538  1.00  0.00     0.172 C 
HETATM   16  C11 UNL     1      19.297  43.860  65.873  1.00  0.00     0.042 C 
BRANCH  15  17
HETATM   17  C12 UNL     1      16.973  43.037  66.072  1.00  0.00     0.240 C 
HETATM   18  O2  UNL     1      17.361  41.849  66.114  1.00  0.00    -0.271 OA
HETATM   19  N3  UNL     1      15.678  43.382  65.603  1.00  0.00    -0.349 N 
ATOM     20  H3  UNL     1      15.409  44.366  65.603  1.00  0.00     0.163 HD
BRANCH  19  21
HETATM   21  C13 UNL     1      14.724  42.408  65.124  1.00  0.00     0.146 C 
BRANCH  21  22
HETATM   22  C14 UNL     1      15.253  41.736  63.918  1.00  0.00     0.256 C 
HETATM   23  O3  UNL     1      15.426  40.517  63.894  1.00  0.00    -0.305 OA
ENDBRANCH  21  22
BRANCH  21  24
HETATM   24  C15 UNL     1      13.417  43.086  64.754  1.00  0.00     0.036 C 
BRANCH  24  25
HETATM   25  C16 UNL     1      12.321  42.704  65.747  1.00  0.00    -0.020 C 
HETATM   26  C17 UNL     1      12.385  41.222  66.069  1.00  0.00     0.009 C 
HETATM   27  C18 UNL     1      11.003  43.117  65.194  1.00  0.00     0.009 C 
ENDBRANCH  24  25
ENDBRANCH  21  24
ENDBRANCH  19  21
ENDBRANCH  15  17
ENDBRANCH  13  15
ENDBRANCH   6  11
ENDBRANCH   4   6
ENDBRANCH   3   4
BRANCH   3  28
HETATM   28  C19 UNL     1      14.943  44.857  72.984  1.00  0.00     0.020 C 
HETATM   29  C20 UNL     1      14.720  45.897  74.064  1.00  0.00     0.007 C 
HETATM   30  C21 UNL     1      16.104  45.960  74.709  1.00  0.00     0.000 C 
HETATM   31  C22 UNL     1      16.837  44.716  74.345  1.00  0.00     0.000 C 
HETATM   32  C23 UNL     1      15.773  43.867  73.711  1.00  0.00     0.007 C 
ENDBRANCH   3  28
TORSDOF 13
ENDMDL
MODEL 4
REMARK VINA RESULT: -8.216464582      0.967      3.663
REMARK  13 active torsions:
REMARK  status: ('A' for Active; 'I' for Inactive)
REMARK    1  A    between atoms: C3_3  and  N1_4 
REMARK    2  A    between atoms: C3_3  and  C19_28 
REMARK    3  A    between atoms: N1_4  and  C4_6 
REMARK    4  A    between atoms: C4_6  and  C5_7 
REMARK    5  A    between atoms: C4_6  and  C9_11 
REMARK    6  A    between atoms: C5_7  and  C6_8 
REMARK    7  A    between atoms: C6_8  and  C7_9 
REMARK       I    between atoms: C9_11  and  N2_13 
REMARK    8  A    between atoms: N2_13  and  C10_15 
REMARK    9  A    between atoms: C10_15  and  C12_17 
REMARK       I    between atoms: C12_17  and  N3_19 
REMARK   10  A    between atoms: N3_19  and  C13_21 
REMARK   11  A    between atoms: C13_21  and  C14_22 
REMARK   12  A    between atoms: C13_21  and  C15_24 
REMARK   13  A    between atoms: C15_24  and  C16_25 
ROOT
HETATM    1  C1  UNL     1      19.083  41.087  71.717  1.00  0.00     0.014 C 
HETATM    2  C2  UNL     1      18.356  41.875  71.174  1.00  0.00    -0.092 C 
HETATM    3  C3  UNL     1      17.463  42.802  70.554  1.00  0.00     0.164 C 
ENDROOT
BRANCH   3   4
HETATM    4  N1  UNL     1      17.223  42.830  69.203  1.00  0.00    -0.373 N 
ATOM      5  H1  UNL     1      16.424  42.281  68.885  1.00  0.00     0.161 HD
BRANCH   4   6
HETATM    6  C4  UNL     1      17.914  43.497  68.225  1.00  0.00     0.074 C 
BRANCH   6   7
HETATM    7  C5  UNL     1      19.357  43.179  67.972  1.00  0.00     0.062 C 
BRANCH   7   8
HETATM    8  C6  UNL     1      19.689  41.783  67.593  1.00  0.00     0.006 C 
BRANCH   8   9
HETATM    9  C7  UNL     1      21.038  41.234  67.647  1.00  0.00    -0.004 C 
HETATM   10  C8  UNL     1      21.220  40.271  68.777  1.00  0.00     0.005 C 
ENDBRANCH   8   9
ENDBRANCH   7   8
ENDBRANCH   6   7
BRANCH   6  11
HETATM   11  C9  UNL     1      17.193  43.637  66.904  1.00  0.00     0.264 C 
HETATM   12  O1  UNL     1      17.509  44.516  66.085  1.00  0.00    -0.266 OA
HETATM   13  N2  UNL     1      16.136  42.770  66.555  1.00  0.00    -0.343 N 
ATOM     14  H2  UNL     1      15.877  42.040  67.219  1.00  0.00     0.163 HD
BRANCH  13  15
HETATM   15  C10 UNL     1      15.401  42.848  65.324  1.00  0.00     0.172 C 
HETATM   16  C11 UNL     1      16.252  42.255  64.195  1.00  0.00     0.042 C 
BRANCH  15  17
HETATM   17  C12 UNL     1      14.078  42.173  65.373  1.00  0.00     0.240 C 
HETATM   18  O2  UNL     1      14.047  40.969  65.034  1.00  0.00    -0.271 OA
HETATM   19  N3  UNL     1      12.908  42.862  65.784  1.00  0.00    -0.349 N 
ATOM     20  H3  UNL     1      12.993  43.840  66.063  1.00  0.00     0.163 HD
BRANCH  19  21
HETATM   21  C13 UNL     1      11.600  42.247  65.827  1.00  0.00     0.146 C 
BRANCH  21  22
HETATM   22  C14 UNL     1      10.646  43.037  65.022  1.00  0.00     0.256 C 
HETATM   23  O3  UNL     1      11.039  43.815  64.152  1.00  0.00    -0.305 OA
ENDBRANCH  21  22
BRANCH  21  24
HETATM   24  C15 UNL     1      11.086  42.196  67.255  1.00  0.00     0.036 C 
BRANCH  24  25
HETATM   25  C16 UNL     1       9.597  41.858  67.272  1.00  0.00    -0.020 C 
HETATM   26  C17 UNL     1       8.907  42.546  68.435  1.00  0.00     0.009 C 
HETATM   27  C18 UNL     1       9.438  40.380  67.300  1.00  0.00     0.009 C 
ENDBRANCH  24  25
ENDBRANCH  21  24
ENDBRANCH  19  21
ENDBRANCH  15  17
ENDBRANCH  13  15
ENDBRANCH   6  11
ENDBRANCH   4   6
ENDBRANCH   3   4
BRANCH   3  28
HETATM   28  C19 UNL     1      17.912  44.181  71.101  1.00  0.00     0.020 C 
HETATM   29  C20 UNL     1      17.944  44.126  72.615  1.00  0.00     0.007 C 
HETATM   30  C21 UNL     1      16.459  44.262  72.951  1.00  0.00     0.000 C 
HETATM   31  C22 UNL     1      15.771  44.842  71.764  1.00  0.00     0.000 C 
HETATM   32  C23 UNL     1      16.911  45.250  70.876  1.00  0.00     0.007 C 
ENDBRANCH   3  28
TORSDOF 13
ENDMDL
MODEL 5
REMARK VINA RESULT: -8.213792028      0.988      3.783
REMARK  13 active torsions:
REMARK  status: ('A' for Active; 'I' for Inactive)
REMARK    1  A    between atoms: C3_3  and  N1_4 
REMARK    2  A    between atoms: C3_3  and  C19_28 
REMARK    3  A    between atoms: N1_4  and  C4_6 
REMARK    4  A    between atoms: C4_6  and  C5_7 
REMARK    5  A    between atoms: C4_6  and  C9_11 
REMARK    6  A    between atoms: C5_7  and  C6_8 
REMARK    7  A    between atoms: C6_8  and  C7_9 
REMARK       I    between atoms: C9_11  and  N2_13 
REMARK    8  A    between atoms: N2_13  and  C10_15 
REMARK    9  A    between atoms: C10_15  and  C12_17 
REMARK       I    between atoms: C12_17  and  N3_19 
REMARK   10  A    between atoms: N3_19  and  C13_21 
REMARK   11  A    between atoms: C13_21  and  C14_22 
REMARK   12  A    between atoms: C13_21  and  C15_24 
REMARK   13  A    between atoms: C15_24  and  C16_25 
ROOT
HETATM    1  C1  UNL     1      15.346  46.644  70.133  1.00  0.00     0.014 C 
HETATM    2  C2  UNL     1      15.999  45.636  70.158  1.00  0.00    -0.092 C 
HETATM    3  C3  UNL     1      16.808  44.459  70.198  1.00  0.00     0.164 C 
ENDROOT
BRANCH   3   4
HETATM    4  N1  UNL     1      16.839  43.530  69.188  1.00  0.00    -0.373 N 
ATOM      5  H1  UNL     1      16.139  42.791  69.246  1.00  0.00     0.161 HD
BRANCH   4   6
HETATM    6  C4  UNL     1      17.686  43.464  68.112  1.00  0.00     0.074 C 
BRANCH   6   7
HETATM    7  C5  UNL     1      18.749  42.409  68.055  1.00  0.00     0.062 C 
BRANCH   7   8
HETATM    8  C6  UNL     1      19.540  42.309  66.804  1.00  0.00     0.006 C 
BRANCH   8   9
HETATM    9  C7  UNL     1      20.725  43.115  66.534  1.00  0.00    -0.004 C 
HETATM   10  C8  UNL     1      21.995  42.346  66.719  1.00  0.00     0.005 C 
ENDBRANCH   8   9
ENDBRANCH   7   8
ENDBRANCH   6   7
BRANCH   6  11
HETATM   11  C9  UNL     1      17.023  43.580  66.759  1.00  0.00     0.264 C 
HETATM   12  O1  UNL     1      17.312  44.499  65.974  1.00  0.00    -0.266 OA
HETATM   13  N2  UNL     1      16.052  42.646  66.339  1.00  0.00    -0.343 N 
ATOM     14  H2  UNL     1      15.816  41.884  66.975  1.00  0.00     0.163 HD
BRANCH  13  15
HETATM   15  C10 UNL     1      15.376  42.698  65.074  1.00  0.00     0.172 C 
HETATM   16  C11 UNL     1      16.235  41.993  64.018  1.00  0.00     0.042 C 
BRANCH  15  17
HETATM   17  C12 UNL     1      14.013  42.106  65.099  1.00  0.00     0.240 C 
HETATM   18  O2  UNL     1      13.851  41.036  64.473  1.00  0.00    -0.271 OA
HETATM   19  N3  UNL     1      12.947  42.729  65.800  1.00  0.00    -0.349 N 
ATOM     20  H3  UNL     1      13.138  43.594  66.305  1.00  0.00     0.163 HD
BRANCH  19  21
HETATM   21  C13 UNL     1      11.603  42.196  65.834  1.00  0.00     0.146 C 
BRANCH  21  22
HETATM   22  C14 UNL     1      10.709  43.033  65.007  1.00  0.00     0.256 C 
HETATM   23  O3  UNL     1      11.163  43.873  64.230  1.00  0.00    -0.305 OA
ENDBRANCH  21  22
BRANCH  21  24
HETATM   24  C15 UNL     1      11.070  42.193  67.255  1.00  0.00     0.036 C 
BRANCH  24  25
HETATM   25  C16 UNL     1       9.583  41.845  67.265  1.00  0.00    -0.020 C 
HETATM   26  C17 UNL     1       8.878  42.548  68.410  1.00  0.00     0.009 C 
HETATM   27  C18 UNL     1       9.434  40.367  67.316  1.00  0.00     0.009 C 
ENDBRANCH  24  25
ENDBRANCH  21  24
ENDBRANCH  19  21
ENDBRANCH  15  17
ENDBRANCH  13  15
ENDBRANCH   6  11
ENDBRANCH   4   6
ENDBRANCH   3   4
BRANCH   3  28
HETATM   28  C19 UNL     1      16.481  43.822  71.573  1.00  0.00     0.020 C 
HETATM   29  C20 UNL     1      17.209  44.589  72.659  1.00  0.00     0.007 C 
HETATM   30  C21 UNL     1      18.625  44.030  72.522  1.00  0.00     0.000 C 
HETATM   31  C22 UNL     1      18.539  42.737  71.788  1.00  0.00     0.000 C 
HETATM   32  C23 UNL     1      17.063  42.469  71.742  1.00  0.00     0.007 C 
ENDBRANCH   3  28
TORSDOF 13
ENDMDL
