MODEL 1
REMARK VINA RESULT: -6.163631148      0.000      0.000
REMARK  2 active torsions:
REMARK  status: ('A' for Active; 'I' for Inactive)
REMARK    1  A    between atoms: C2_3  and  N6_11 
REMARK    2  A    between atoms: N2_4  and  N3_6 
REMARK       I    between atoms: N6_11  and  C4_13 
ROOT
HETATM    1  N1  UNL     1      28.389  46.343  -4.367  1.00  0.00    -0.188 NA
HETATM    2  C1  UNL     1      29.065  47.077  -3.735  1.00  0.00     0.138 C 
HETATM    3  C2  UNL     1      29.872  47.942  -2.946  1.00  0.00     0.206 C 
HETATM    4  N2  UNL     1      30.001  47.705  -1.686  1.00  0.00    -0.274 N 
ATOM      5  H2  UNL     1      30.577  48.316  -1.106  1.00  0.00     0.189 HD
ENDROOT
BRANCH   3   6
HETATM    6  N6  UNL     1      30.530  49.043  -3.502  1.00  0.00    -0.287 N 
HETATM    7  C4  UNL     1      31.890  49.298  -3.248  1.00  0.00     0.334 C 
HETATM    8  N7  UNL     1      32.586  50.413  -3.803  1.00  0.00    -0.040 NA
HETATM    9  O1  UNL     1      32.549  48.536  -2.509  1.00  0.00    -0.251 OA
ATOM     10  H6  UNL     1      30.010  49.678  -4.108  1.00  0.00     0.172 HD
ENDBRANCH   3   6
BRANCH   4  11
HETATM   11  N3  UNL     1      29.352  46.614  -1.121  1.00  0.00    -0.274 N 
HETATM   12  C3  UNL     1      28.594  46.781  -0.096  1.00  0.00     0.215 C 
HETATM   13  N4  UNL     1      28.438  48.083   0.439  1.00  0.00    -0.065 NA
HETATM   14  N5  UNL     1      27.929  45.644   0.480  1.00  0.00    -0.065 NA
ATOM     15  H3  UNL     1      29.478  45.683  -1.519  1.00  0.00     0.189 HD
ENDBRANCH   4  11
TORSDOF 2
ENDMDL
MODEL 2
REMARK VINA RESULT: -6.140351374      2.200      2.486
REMARK  2 active torsions:
REMARK  status: ('A' for Active; 'I' for Inactive)
REMARK    1  A    between atoms: C2_3  and  N6_11 
REMARK    2  A    between atoms: N2_4  and  N3_6 
REMARK       I    between atoms: N6_11  and  C4_13 
ROOT
HETATM    1  N1  UNL     1      28.495  46.095  -4.737  1.00  0.00    -0.188 NA
HETATM    2  C1  UNL     1      29.062  46.798  -3.976  1.00  0.00     0.138 C 
HETATM    3  C2  UNL     1      29.716  47.666  -3.059  1.00  0.00     0.206 C 
HETATM    4  N2  UNL     1      29.086  48.695  -2.607  1.00  0.00    -0.274 N 
ATOM      5  H2  UNL     1      29.541  49.326  -1.948  1.00  0.00     0.189 HD
ENDROOT
BRANCH   3   6
HETATM    6  N6  UNL     1      31.026  47.430  -2.632  1.00  0.00    -0.287 N 
HETATM    7  C4  UNL     1      32.058  48.358  -2.862  1.00  0.00     0.334 C 
HETATM    8  N7  UNL     1      33.403  48.143  -2.437  1.00  0.00    -0.040 NA
HETATM    9  O1  UNL     1      31.823  49.429  -3.462  1.00  0.00    -0.251 OA
ATOM     10  H6  UNL     1      31.239  46.561  -2.141  1.00  0.00     0.172 HD
ENDBRANCH   3   6
BRANCH   4  11
HETATM   11  N3  UNL     1      27.783  48.940  -3.023  1.00  0.00    -0.274 N 
HETATM   12  C3  UNL     1      26.842  49.047  -2.153  1.00  0.00     0.215 C 
HETATM   13  N4  UNL     1      27.159  48.909  -0.779  1.00  0.00    -0.065 NA
HETATM   14  N5  UNL     1      25.499  49.301  -2.595  1.00  0.00    -0.065 NA
ATOM     15  H3  UNL     1      27.573  49.036  -4.017  1.00  0.00     0.189 HD
ENDBRANCH   4  11
TORSDOF 2
ENDMDL
MODEL 3
REMARK VINA RESULT: -6.084887519      2.576      3.174
REMARK  2 active torsions:
REMARK  status: ('A' for Active; 'I' for Inactive)
REMARK    1  A    between atoms: C2_3  and  N6_11 
REMARK    2  A    between atoms: N2_4  and  N3_6 
REMARK       I    between atoms: N6_11  and  C4_13 
ROOT
HETATM    1  N1  UNL     1      26.707  48.752  -3.475  1.00  0.00    -0.188 NA
HETATM    2  C1  UNL     1      27.456  47.843  -3.388  1.00  0.00     0.138 C 
HETATM    3  C2  UNL     1      28.366  46.759  -3.249  1.00  0.00     0.206 C 
HETATM    4  N2  UNL     1      29.011  46.617  -2.143  1.00  0.00    -0.274 N 
ATOM      5  H2  UNL     1      29.667  45.844  -2.028  1.00  0.00     0.189 HD
ENDROOT
BRANCH   3   6
HETATM    6  N6  UNL     1      28.577  45.842  -4.283  1.00  0.00    -0.287 N 
HETATM    7  C4  UNL     1      29.766  45.834  -5.034  1.00  0.00     0.334 C 
HETATM    8  N7  UNL     1      30.008  44.908  -6.093  1.00  0.00    -0.040 NA
HETATM    9  O1  UNL     1      30.673  46.658  -4.791  1.00  0.00    -0.251 OA
ATOM     10  H6  UNL     1      27.849  45.160  -4.497  1.00  0.00     0.172 HD
ENDBRANCH   3   6
BRANCH   4  11
HETATM   11  N3  UNL     1      28.810  47.522  -1.108  1.00  0.00    -0.274 N 
HETATM   12  C3  UNL     1      28.451  47.098   0.052  1.00  0.00     0.215 C 
HETATM   13  N4  UNL     1      28.266  45.708   0.248  1.00  0.00    -0.065 NA
HETATM   14  N5  UNL     1      28.246  48.044   1.114  1.00  0.00    -0.065 NA
ATOM     15  H3  UNL     1      28.947  48.520  -1.269  1.00  0.00     0.189 HD
ENDBRANCH   4  11
TORSDOF 2
ENDMDL
MODEL 4
REMARK VINA RESULT: -6.049493679      2.230      4.936
REMARK  2 active torsions:
REMARK  status: ('A' for Active; 'I' for Inactive)
REMARK    1  A    between atoms: C2_3  and  N6_11 
REMARK    2  A    between atoms: N2_4  and  N3_6 
REMARK       I    between atoms: N6_11  and  C4_13 
ROOT
HETATM    1  N1  UNL     1      26.439  49.546  -3.172  1.00  0.00    -0.188 NA
HETATM    2  C1  UNL     1      27.295  48.771  -2.924  1.00  0.00     0.138 C 
HETATM    3  C2  UNL     1      28.348  47.856  -2.646  1.00  0.00     0.206 C 
HETATM    4  N2  UNL     1      29.509  48.058  -3.166  1.00  0.00    -0.274 N 
ATOM      5  H2  UNL     1      30.275  47.411  -2.976  1.00  0.00     0.189 HD
ENDROOT
BRANCH   3   6
HETATM    6  N6  UNL     1      28.156  46.745  -1.820  1.00  0.00    -0.287 N 
HETATM    7  C4  UNL     1      28.610  46.724  -0.489  1.00  0.00     0.334 C 
HETATM    8  N7  UNL     1      28.427  45.603   0.375  1.00  0.00    -0.040 NA
HETATM    9  O1  UNL     1      29.204  47.713  -0.008  1.00  0.00    -0.251 OA
ATOM     10  H6  UNL     1      27.674  45.927  -2.194  1.00  0.00     0.172 HD
ENDBRANCH   3   6
BRANCH   4  11
HETATM   11  N3  UNL     1      29.714  49.159  -3.988  1.00  0.00    -0.274 N 
HETATM   12  C3  UNL     1      30.814  49.273  -4.645  1.00  0.00     0.215 C 
HETATM   13  N4  UNL     1      31.800  48.265  -4.512  1.00  0.00    -0.065 NA
HETATM   14  N5  UNL     1      31.013  50.417  -5.492  1.00  0.00    -0.065 NA
ATOM     15  H3  UNL     1      28.992  49.876  -4.071  1.00  0.00     0.189 HD
ENDBRANCH   4  11
TORSDOF 2
ENDMDL
MODEL 5
REMARK VINA RESULT: -5.941197006      2.186      3.540
REMARK  2 active torsions:
REMARK  status: ('A' for Active; 'I' for Inactive)
REMARK    1  A    between atoms: C2_3  and  N6_11 
REMARK    2  A    between atoms: N2_4  and  N3_6 
REMARK       I    between atoms: N6_11  and  C4_13 
ROOT
HETATM    1  N1  UNL     1      31.812  49.274  -2.510  1.00  0.00    -0.188 NA
HETATM    2  C1  UNL     1      31.117  48.346  -2.739  1.00  0.00     0.138 C 
HETATM    3  C2  UNL     1      30.264  47.236  -2.985  1.00  0.00     0.206 C 
HETATM    4  N2  UNL     1      29.315  46.976  -2.152  1.00  0.00    -0.274 N 
ATOM      5  H2  UNL     1      28.694  46.184  -2.315  1.00  0.00     0.189 HD
ENDROOT
BRANCH   3   6
HETATM    6  N6  UNL     1      30.426  46.420  -4.108  1.00  0.00    -0.287 N 
HETATM    7  C4  UNL     1      29.335  46.043  -4.913  1.00  0.00     0.334 C 
HETATM    8  N7  UNL     1      29.473  45.212  -6.064  1.00  0.00    -0.040 NA
HETATM    9  O1  UNL     1      28.181  46.435  -4.638  1.00  0.00    -0.251 OA
ATOM     10  H6  UNL     1      31.360  46.089  -4.350  1.00  0.00     0.172 HD
ENDBRANCH   3   6
BRANCH   4  11
HETATM   11  N3  UNL     1      29.143  47.780  -1.032  1.00  0.00    -0.274 N 
HETATM   12  C3  UNL     1      27.958  48.112  -0.658  1.00  0.00     0.215 C 
HETATM   13  N4  UNL     1      26.847  47.648  -1.404  1.00  0.00    -0.065 NA
HETATM   14  N5  UNL     1      27.794  48.944   0.502  1.00  0.00    -0.065 NA
ATOM     15  H3  UNL     1      29.956  48.106  -0.508  1.00  0.00     0.189 HD
ENDBRANCH   4  11
TORSDOF 2
ENDMDL
