MODEL 1
REMARK VINA RESULT: -6.540307547      0.000      0.000
REMARK  5 active torsions:
REMARK  status: ('A' for Active; 'I' for Inactive)
REMARK       I    between atoms: C2_2  and  N1_4 
REMARK    1  A    between atoms: N1_4  and  N2_6 
REMARK    2  A    between atoms: N2_6  and  N3_7 
REMARK    3  A    between atoms: N3_7  and  C3_9 
REMARK    4  A    between atoms: C3_9  and  O2_10 
REMARK    5  A    between atoms: C3_9  and  N4_12 
REMARK       I    between atoms: N4_12  and  C4_14 
ROOT
HETATM    1  N3  UNL     1      29.088  47.692  -0.209  1.00  0.00    -0.249 N 
ATOM      2  H3  UNL     1      29.162  46.781   0.242  1.00  0.00     0.188 HD
ENDROOT
BRANCH   1   3
HETATM    3  N2  UNL     1      28.076  48.567   0.230  1.00  0.00    -0.017 NA
BRANCH   3   4
HETATM    4  N1  UNL     1      27.550  49.201  -0.898  1.00  0.00    -0.254 N 
HETATM    5  C2  UNL     1      26.639  48.585  -1.789  1.00  0.00     0.230 C 
HETATM    6  C1  UNL     1      26.079  49.248  -2.980  1.00  0.00     0.118 C 
HETATM    7  O1  UNL     1      26.265  47.383  -1.564  1.00  0.00    -0.273 OA
ATOM      8  H1  UNL     1      27.839  50.160  -1.091  1.00  0.00     0.187 HD
ENDBRANCH   3   4
ENDBRANCH   1   3
BRANCH   1   9
HETATM    9  C3  UNL     1      30.005  47.999  -1.234  1.00  0.00     0.237 C 
BRANCH   9  10
HETATM   10  O2  UNL     1      30.661  49.103  -1.010  1.00  0.00    -0.331 OA
ATOM     11  H2  UNL     1      30.120  49.781  -0.623  1.00  0.00     0.221 HD
ENDBRANCH   9  10
BRANCH   9  12
HETATM   12  N4  UNL     1      30.260  47.273  -2.397  1.00  0.00    -0.292 N 
HETATM   13  C4  UNL     1      30.010  47.686  -3.695  1.00  0.00     0.220 C 
HETATM   14  C5  UNL     1      30.384  46.788  -4.855  1.00  0.00     0.117 C 
HETATM   15  O3  UNL     1      29.493  48.760  -4.006  1.00  0.00    -0.274 OA
ATOM     16  H4  UNL     1      30.671  46.347  -2.279  1.00  0.00     0.172 HD
ENDBRANCH   9  12
ENDBRANCH   1   9
TORSDOF 5
ENDMDL
MODEL 2
REMARK VINA RESULT: -6.345218723      1.656      1.920
REMARK  5 active torsions:
REMARK  status: ('A' for Active; 'I' for Inactive)
REMARK       I    between atoms: C2_2  and  N1_4 
REMARK    1  A    between atoms: N1_4  and  N2_6 
REMARK    2  A    between atoms: N2_6  and  N3_7 
REMARK    3  A    between atoms: N3_7  and  C3_9 
REMARK    4  A    between atoms: C3_9  and  O2_10 
REMARK    5  A    between atoms: C3_9  and  N4_12 
REMARK       I    between atoms: N4_12  and  C4_14 
ROOT
HETATM    1  N3  UNL     1      28.865  47.374  -0.013  1.00  0.00    -0.249 N 
ATOM      2  H3  UNL     1      29.862  47.489   0.171  1.00  0.00     0.188 HD
ENDROOT
BRANCH   1   3
HETATM    3  N2  UNL     1      27.997  48.412   0.375  1.00  0.00    -0.017 NA
BRANCH   3   4
HETATM    4  N1  UNL     1      27.739  49.190  -0.756  1.00  0.00    -0.254 N 
HETATM    5  C2  UNL     1      26.736  48.884  -1.706  1.00  0.00     0.230 C 
HETATM    6  C1  UNL     1      26.459  49.700  -2.901  1.00  0.00     0.118 C 
HETATM    7  O1  UNL     1      26.016  47.841  -1.535  1.00  0.00    -0.273 OA
ATOM      8  H1  UNL     1      28.306  50.026  -0.906  1.00  0.00     0.187 HD
ENDBRANCH   3   4
ENDBRANCH   1   3
BRANCH   1   9
HETATM    9  C3  UNL     1      28.441  46.187  -0.640  1.00  0.00     0.237 C 
BRANCH   9  10
HETATM   10  O2  UNL     1      28.164  45.237   0.209  1.00  0.00    -0.331 OA
ATOM     11  H2  UNL     1      27.720  44.501  -0.194  1.00  0.00     0.221 HD
ENDBRANCH   9  10
BRANCH   9  12
HETATM   12  N4  UNL     1      28.297  45.948  -2.007  1.00  0.00    -0.292 N 
HETATM   13  C4  UNL     1      28.901  46.655  -3.033  1.00  0.00     0.220 C 
HETATM   14  C5  UNL     1      28.669  46.240  -4.470  1.00  0.00     0.117 C 
HETATM   15  O3  UNL     1      29.642  47.627  -2.878  1.00  0.00    -0.274 OA
ATOM     16  H4  UNL     1      27.686  45.177  -2.277  1.00  0.00     0.172 HD
ENDBRANCH   9  12
ENDBRANCH   1   9
TORSDOF 5
ENDMDL
MODEL 3
REMARK VINA RESULT: -6.208587599      1.463      1.913
REMARK  5 active torsions:
REMARK  status: ('A' for Active; 'I' for Inactive)
REMARK       I    between atoms: C2_2  and  N1_4 
REMARK    1  A    between atoms: N1_4  and  N2_6 
REMARK    2  A    between atoms: N2_6  and  N3_7 
REMARK    3  A    between atoms: N3_7  and  C3_9 
REMARK    4  A    between atoms: C3_9  and  O2_10 
REMARK    5  A    between atoms: C3_9  and  N4_12 
REMARK       I    between atoms: N4_12  and  C4_14 
ROOT
HETATM    1  N3  UNL     1      28.912  47.340   0.278  1.00  0.00    -0.249 N 
ATOM      2  H3  UNL     1      29.524  47.079   1.051  1.00  0.00     0.188 HD
ENDROOT
BRANCH   1   3
HETATM    3  N2  UNL     1      27.922  48.313   0.517  1.00  0.00    -0.017 NA
BRANCH   3   4
HETATM    4  N1  UNL     1      27.768  49.053  -0.657  1.00  0.00    -0.254 N 
HETATM    5  C2  UNL     1      26.842  48.724  -1.675  1.00  0.00     0.230 C 
HETATM    6  C1  UNL     1      26.674  49.500  -2.916  1.00  0.00     0.118 C 
HETATM    7  O1  UNL     1      26.097  47.695  -1.529  1.00  0.00    -0.273 OA
ATOM      8  H1  UNL     1      28.355  49.877  -0.789  1.00  0.00     0.187 HD
ENDBRANCH   3   4
ENDBRANCH   1   3
BRANCH   1   9
HETATM    9  C3  UNL     1      29.107  46.706  -0.964  1.00  0.00     0.237 C 
BRANCH   9  10
HETATM   10  O2  UNL     1      28.250  45.748  -1.183  1.00  0.00    -0.331 OA
ATOM     11  H2  UNL     1      28.399  45.302  -2.008  1.00  0.00     0.221 HD
ENDBRANCH   9  10
BRANCH   9  12
HETATM   12  N4  UNL     1      30.075  46.992  -1.926  1.00  0.00    -0.292 N 
HETATM   13  C4  UNL     1      30.930  48.083  -1.933  1.00  0.00     0.220 C 
HETATM   14  C5  UNL     1      31.956  48.227  -3.036  1.00  0.00     0.117 C 
HETATM   15  O3  UNL     1      30.934  48.980  -1.088  1.00  0.00    -0.274 OA
ATOM     16  H4  UNL     1      30.163  46.335  -2.701  1.00  0.00     0.172 HD
ENDBRANCH   9  12
ENDBRANCH   1   9
TORSDOF 5
ENDMDL
MODEL 4
REMARK VINA RESULT: -6.207835737      1.983      3.776
REMARK  5 active torsions:
REMARK  status: ('A' for Active; 'I' for Inactive)
REMARK       I    between atoms: C2_2  and  N1_4 
REMARK    1  A    between atoms: N1_4  and  N2_6 
REMARK    2  A    between atoms: N2_6  and  N3_7 
REMARK    3  A    between atoms: N3_7  and  C3_9 
REMARK    4  A    between atoms: C3_9  and  O2_10 
REMARK    5  A    between atoms: C3_9  and  N4_12 
REMARK       I    between atoms: N4_12  and  C4_14 
ROOT
HETATM    1  N3  UNL     1      27.592  45.764  -0.193  1.00  0.00    -0.249 N 
ATOM      2  H3  UNL     1      26.999  45.063   0.250  1.00  0.00     0.188 HD
ENDROOT
BRANCH   1   3
HETATM    3  N2  UNL     1      28.752  46.177   0.490  1.00  0.00    -0.017 NA
BRANCH   3   4
HETATM    4  N1  UNL     1      29.689  46.566  -0.470  1.00  0.00    -0.254 N 
HETATM    5  C2  UNL     1      29.869  47.905  -0.891  1.00  0.00     0.230 C 
HETATM    6  C1  UNL     1      30.856  48.323  -1.902  1.00  0.00     0.118 C 
HETATM    7  O1  UNL     1      29.143  48.822  -0.374  1.00  0.00    -0.273 OA
ATOM      8  H1  UNL     1      30.276  45.845  -0.891  1.00  0.00     0.187 HD
ENDBRANCH   3   4
ENDBRANCH   1   3
BRANCH   1   9
HETATM    9  C3  UNL     1      27.201  46.262  -1.451  1.00  0.00     0.237 C 
BRANCH   9  10
HETATM   10  O2  UNL     1      27.621  45.523  -2.440  1.00  0.00    -0.331 OA
ATOM     11  H2  UNL     1      27.160  44.695  -2.501  1.00  0.00     0.221 HD
ENDBRANCH   9  10
BRANCH   9  12
HETATM   12  N4  UNL     1      26.449  47.406  -1.721  1.00  0.00    -0.292 N 
HETATM   13  C4  UNL     1      26.698  48.338  -2.715  1.00  0.00     0.220 C 
HETATM   14  C5  UNL     1      25.758  49.509  -2.901  1.00  0.00     0.117 C 
HETATM   15  O3  UNL     1      27.651  48.298  -3.496  1.00  0.00    -0.274 OA
ATOM     16  H4  UNL     1      25.637  47.572  -1.128  1.00  0.00     0.172 HD
ENDBRANCH   9  12
ENDBRANCH   1   9
TORSDOF 5
ENDMDL
MODEL 5
REMARK VINA RESULT: -6.184874668      1.632      1.632
REMARK  5 active torsions:
REMARK  status: ('A' for Active; 'I' for Inactive)
REMARK       I    between atoms: C2_2  and  N1_4 
REMARK    1  A    between atoms: N1_4  and  N2_6 
REMARK    2  A    between atoms: N2_6  and  N3_7 
REMARK    3  A    between atoms: N3_7  and  C3_9 
REMARK    4  A    between atoms: C3_9  and  O2_10 
REMARK    5  A    between atoms: C3_9  and  N4_12 
REMARK       I    between atoms: N4_12  and  C4_14 
ROOT
HETATM    1  N3  UNL     1      28.568  46.198  -0.876  1.00  0.00    -0.249 N 
ATOM      2  H3  UNL     1      28.914  45.261  -0.670  1.00  0.00     0.188 HD
ENDROOT
BRANCH   1   3
HETATM    3  N2  UNL     1      27.239  46.505  -0.530  1.00  0.00    -0.017 NA
BRANCH   3   4
HETATM    4  N1  UNL     1      26.659  47.156  -1.621  1.00  0.00    -0.254 N 
HETATM    5  C2  UNL     1      26.489  48.559  -1.697  1.00  0.00     0.230 C 
HETATM    6  C1  UNL     1      25.879  49.251  -2.845  1.00  0.00     0.118 C 
HETATM    7  O1  UNL     1      26.882  49.286  -0.721  1.00  0.00    -0.273 OA
ATOM      8  H1  UNL     1      26.341  46.589  -2.407  1.00  0.00     0.187 HD
ENDBRANCH   3   4
ENDBRANCH   1   3
BRANCH   1   9
HETATM    9  C3  UNL     1      29.451  47.109  -1.490  1.00  0.00     0.237 C 
BRANCH   9  10
HETATM   10  O2  UNL     1      29.775  48.102  -0.710  1.00  0.00    -0.331 OA
ATOM     11  H2  UNL     1      30.430  48.673  -1.094  1.00  0.00     0.221 HD
ENDBRANCH   9  10
BRANCH   9  12
HETATM   12  N4  UNL     1      29.980  47.048  -2.779  1.00  0.00    -0.292 N 
HETATM   13  C4  UNL     1      29.307  46.663  -3.926  1.00  0.00     0.220 C 
HETATM   14  C5  UNL     1      30.020  46.690  -5.262  1.00  0.00     0.117 C 
HETATM   15  O3  UNL     1      28.133  46.289  -3.963  1.00  0.00    -0.274 OA
ATOM     16  H4  UNL     1      30.959  47.313  -2.887  1.00  0.00     0.172 HD
ENDBRANCH   9  12
ENDBRANCH   1   9
TORSDOF 5
ENDMDL
