MODEL 1
REMARK VINA RESULT: -6.100553669      0.000      0.000
REMARK  3 active torsions:
REMARK  status: ('A' for Active; 'I' for Inactive)
REMARK       I    between atoms: N2_3  and  C2_5 
REMARK    1  A    between atoms: C2_5  and  O2_7 
REMARK    2  A    between atoms: O2_7  and  N3_8 
REMARK       I    between atoms: N3_8  and  C3_10 
REMARK    3  A    between atoms: N5_12  and  N6_14 
ROOT
HETATM    1  N3  UNL     1      29.947  47.234  -1.469  1.00  0.00    -0.227 N 
ATOM      2  H3  UNL     1      30.082  46.250  -1.701  1.00  0.00     0.198 HD
HETATM    3  C3  UNL     1      30.439  48.261  -2.312  1.00  0.00     0.227 C 
HETATM    4  N4  UNL     1      31.592  48.977  -1.913  1.00  0.00    -0.060 NA
HETATM    5  N5  UNL     1      29.837  48.519  -3.402  1.00  0.00    -0.279 N 
ATOM      6  H5  UNL     1      29.011  47.965  -3.629  1.00  0.00     0.189 HD
ENDROOT
BRANCH   1   7
HETATM    7  O2  UNL     1      29.286  47.611  -0.332  1.00  0.00    -0.178 OA
BRANCH   7   8
HETATM    8  C2  UNL     1      28.000  48.132  -0.322  1.00  0.00     0.387 C 
HETATM    9  N2  UNL     1      27.069  47.589  -1.236  1.00  0.00    -0.299 N 
HETATM   10  C1  UNL     1      26.286  48.265  -1.975  1.00  0.00     0.194 C 
ATOM     11  H2  UNL     1      27.021  46.572  -1.307  1.00  0.00     0.171 HD
HETATM   12  N1  UNL     1      26.273  49.671  -1.950  1.00  0.00    -0.097 NA
HETATM   13  O1  UNL     1      27.744  49.046   0.487  1.00  0.00    -0.236 OA
ENDBRANCH   7   8
ENDBRANCH   1   7
BRANCH   5  14
HETATM   14  N6  UNL     1      30.226  49.499  -4.306  1.00  0.00    -0.343 N 
ATOM     15  H62 UNL     1      30.689  49.179  -5.156  1.00  0.00     0.176 HD
ATOM     16  H61 UNL     1      30.079  50.500  -4.175  1.00  0.00     0.176 HD
ENDBRANCH   5  14
TORSDOF 3
ENDMDL
MODEL 2
REMARK VINA RESULT: -6.022094325      3.736      4.426
REMARK  3 active torsions:
REMARK  status: ('A' for Active; 'I' for Inactive)
REMARK       I    between atoms: N2_3  and  C2_5 
REMARK    1  A    between atoms: C2_5  and  O2_7 
REMARK    2  A    between atoms: O2_7  and  N3_8 
REMARK       I    between atoms: N3_8  and  C3_10 
REMARK    3  A    between atoms: N5_12  and  N6_14 
ROOT
HETATM    1  N3  UNL     1      29.371  45.876  -4.247  1.00  0.00    -0.227 N 
ATOM      2  H3  UNL     1      30.213  46.139  -3.734  1.00  0.00     0.198 HD
HETATM    3  C3  UNL     1      29.449  45.166  -5.471  1.00  0.00     0.227 C 
HETATM    4  N4  UNL     1      29.204  45.863  -6.678  1.00  0.00    -0.060 NA
HETATM    5  N5  UNL     1      29.733  43.928  -5.461  1.00  0.00    -0.279 N 
ATOM      6  H5  UNL     1      29.897  43.487  -4.556  1.00  0.00     0.189 HD
ENDROOT
BRANCH   1   7
HETATM    7  O2  UNL     1      28.125  46.194  -3.778  1.00  0.00    -0.178 OA
BRANCH   7   8
HETATM    8  C2  UNL     1      27.878  46.656  -2.494  1.00  0.00     0.387 C 
HETATM    9  N2  UNL     1      28.994  46.935  -1.674  1.00  0.00    -0.299 N 
HETATM   10  C1  UNL     1      29.127  46.567  -0.463  1.00  0.00     0.194 C 
ATOM     11  H2  UNL     1      29.755  47.476  -2.086  1.00  0.00     0.171 HD
HETATM   12  N1  UNL     1      28.134  45.821   0.197  1.00  0.00    -0.097 NA
HETATM   13  O1  UNL     1      26.690  46.795  -2.139  1.00  0.00    -0.236 OA
ENDBRANCH   7   8
ENDBRANCH   1   7
BRANCH   5  14
HETATM   14  N6  UNL     1      29.837  43.132  -6.594  1.00  0.00    -0.343 N 
ATOM     15  H62 UNL     1      30.168  43.589  -7.444  1.00  0.00     0.176 HD
ATOM     16  H61 UNL     1      29.609  42.139  -6.628  1.00  0.00     0.176 HD
ENDBRANCH   5  14
TORSDOF 3
ENDMDL
MODEL 3
REMARK VINA RESULT: -5.882574635      1.563      4.179
REMARK  3 active torsions:
REMARK  status: ('A' for Active; 'I' for Inactive)
REMARK       I    between atoms: N2_3  and  C2_5 
REMARK    1  A    between atoms: C2_5  and  O2_7 
REMARK    2  A    between atoms: O2_7  and  N3_8 
REMARK       I    between atoms: N3_8  and  C3_10 
REMARK    3  A    between atoms: N5_12  and  N6_14 
ROOT
HETATM    1  N3  UNL     1      28.400  47.684   0.123  1.00  0.00    -0.227 N 
ATOM      2  H3  UNL     1      28.214  47.670   1.126  1.00  0.00     0.198 HD
HETATM    3  C3  UNL     1      27.416  48.113  -0.802  1.00  0.00     0.227 C 
HETATM    4  N4  UNL     1      26.743  47.142  -1.580  1.00  0.00    -0.060 NA
HETATM    5  N5  UNL     1      27.160  49.353  -0.914  1.00  0.00    -0.279 N 
ATOM      6  H5  UNL     1      27.683  49.999  -0.323  1.00  0.00     0.189 HD
ENDROOT
BRANCH   1   7
HETATM    7  O2  UNL     1      29.611  47.288  -0.379  1.00  0.00    -0.178 OA
BRANCH   7   8
HETATM    8  C2  UNL     1      30.383  48.061  -1.233  1.00  0.00     0.387 C 
HETATM    9  N2  UNL     1      30.669  47.532  -2.512  1.00  0.00    -0.299 N 
HETATM   10  C1  UNL     1      31.815  47.526  -3.064  1.00  0.00     0.194 C 
ATOM     11  H2  UNL     1      29.895  47.122  -3.034  1.00  0.00     0.171 HD
HETATM   12  N1  UNL     1      32.947  48.068  -2.428  1.00  0.00    -0.097 NA
HETATM   13  O1  UNL     1      30.778  49.171  -0.825  1.00  0.00    -0.236 OA
ENDBRANCH   7   8
ENDBRANCH   1   7
BRANCH   5  14
HETATM   14  N6  UNL     1      26.219  49.889  -1.783  1.00  0.00    -0.343 N 
ATOM     15  H62 UNL     1      26.471  50.762  -2.246  1.00  0.00     0.176 HD
ATOM     16  H61 UNL     1      25.310  49.473  -1.983  1.00  0.00     0.176 HD
ENDBRANCH   5  14
TORSDOF 3
ENDMDL
MODEL 4
REMARK VINA RESULT: -5.805223060      4.017      4.490
REMARK  3 active torsions:
REMARK  status: ('A' for Active; 'I' for Inactive)
REMARK       I    between atoms: N2_3  and  C2_5 
REMARK    1  A    between atoms: C2_5  and  O2_7 
REMARK    2  A    between atoms: O2_7  and  N3_8 
REMARK       I    between atoms: N3_8  and  C3_10 
REMARK    3  A    between atoms: N5_12  and  N6_14 
ROOT
HETATM    1  N3  UNL     1      29.624  45.541  -4.747  1.00  0.00    -0.227 N 
ATOM      2  H3  UNL     1      30.525  45.674  -4.287  1.00  0.00     0.198 HD
HETATM    3  C3  UNL     1      29.506  44.747  -5.915  1.00  0.00     0.227 C 
HETATM    4  N4  UNL     1      29.336  45.393  -7.162  1.00  0.00    -0.060 NA
HETATM    5  N5  UNL     1      29.554  43.481  -5.820  1.00  0.00    -0.279 N 
ATOM      6  H5  UNL     1      29.677  43.081  -4.890  1.00  0.00     0.189 HD
ENDROOT
BRANCH   1   7
HETATM    7  O2  UNL     1      28.485  46.122  -4.259  1.00  0.00    -0.178 OA
BRANCH   7   8
HETATM    8  C2  UNL     1      28.397  46.725  -3.013  1.00  0.00     0.387 C 
HETATM    9  N2  UNL     1      27.521  46.146  -2.068  1.00  0.00    -0.299 N 
HETATM   10  C1  UNL     1      26.688  46.786  -1.351  1.00  0.00     0.194 C 
ATOM     11  H2  UNL     1      27.559  45.133  -1.951  1.00  0.00     0.171 HD
HETATM   12  N1  UNL     1      26.559  48.185  -1.435  1.00  0.00    -0.097 NA
HETATM   13  O1  UNL     1      29.094  47.737  -2.801  1.00  0.00    -0.236 OA
ENDBRANCH   7   8
ENDBRANCH   1   7
BRANCH   5  14
HETATM   14  N6  UNL     1      29.450  42.604  -6.892  1.00  0.00    -0.343 N 
ATOM     15  H62 UNL     1      29.031  41.695  -6.698  1.00  0.00     0.176 HD
ATOM     16  H61 UNL     1      29.761  42.809  -7.841  1.00  0.00     0.176 HD
ENDBRANCH   5  14
TORSDOF 3
ENDMDL
MODEL 5
REMARK VINA RESULT: -5.740186823      1.388      3.638
REMARK  3 active torsions:
REMARK  status: ('A' for Active; 'I' for Inactive)
REMARK       I    between atoms: N2_3  and  C2_5 
REMARK    1  A    between atoms: C2_5  and  O2_7 
REMARK    2  A    between atoms: O2_7  and  N3_8 
REMARK       I    between atoms: N3_8  and  C3_10 
REMARK    3  A    between atoms: N5_12  and  N6_14 
ROOT
HETATM    1  N3  UNL     1      27.671  49.318  -0.403  1.00  0.00    -0.227 N 
ATOM      2  H3  UNL     1      27.283  49.982   0.267  1.00  0.00     0.198 HD
HETATM    3  C3  UNL     1      26.916  48.873  -1.517  1.00  0.00     0.227 C 
HETATM    4  N4  UNL     1      26.373  47.567  -1.494  1.00  0.00    -0.060 NA
HETATM    5  N5  UNL     1      26.744  49.650  -2.508  1.00  0.00    -0.279 N 
ATOM      6  H5  UNL     1      27.164  50.578  -2.460  1.00  0.00     0.189 HD
ENDROOT
BRANCH   1   7
HETATM    7  O2  UNL     1      28.939  48.823  -0.260  1.00  0.00    -0.178 OA
BRANCH   7   8
HETATM    8  C2  UNL     1      29.562  48.012  -1.197  1.00  0.00     0.387 C 
HETATM    9  N2  UNL     1      30.149  48.642  -2.317  1.00  0.00    -0.299 N 
HETATM   10  C1  UNL     1      30.013  48.266  -3.525  1.00  0.00     0.194 C 
ATOM     11  H2  UNL     1      30.727  49.465  -2.144  1.00  0.00     0.171 HD
HETATM   12  N1  UNL     1      29.239  47.143  -3.869  1.00  0.00    -0.097 NA
HETATM   13  O1  UNL     1      29.568  46.782  -0.996  1.00  0.00    -0.236 OA
ENDBRANCH   7   8
ENDBRANCH   1   7
BRANCH   5  14
HETATM   14  N6  UNL     1      26.026  49.325  -3.651  1.00  0.00    -0.343 N 
ATOM     15  H62 UNL     1      26.153  48.383  -4.018  1.00  0.00     0.176 HD
ATOM     16  H61 UNL     1      25.391  49.959  -4.137  1.00  0.00     0.176 HD
ENDBRANCH   5  14
TORSDOF 3
ENDMDL
