MODEL 1
REMARK VINA RESULT: -4.803127142      0.000      0.000
REMARK  1 active torsions:
REMARK  status: ('A' for Active; 'I' for Inactive)
REMARK    1  A    between atoms: N2_3  and  C2_5 
ROOT
HETATM    1  N1  UNL     1      35.524  25.237  17.792  1.00  0.00    -0.172 NA
HETATM    2  C1  UNL     1      34.953  25.970  17.071  1.00  0.00     0.183 C 
HETATM    3  N2  UNL     1      34.259  26.838  16.224  1.00  0.00    -0.277 N 
ATOM      4  H2  UNL     1      33.903  27.715  16.606  1.00  0.00     0.179 HD
ENDROOT
BRANCH   3   5
HETATM    5  C2  UNL     1      34.028  26.550  14.850  1.00  0.00     0.145 A 
HETATM    6  N3  UNL     1      34.191  25.388  14.195  1.00  0.00    -0.282 N 
HETATM    7  N4  UNL     1      33.866  25.535  12.914  1.00  0.00    -0.283 N 
ATOM      8  H3  UNL     1      34.518  24.519  14.619  1.00  0.00     0.188 HD
HETATM    9  C3  UNL     1      33.474  26.802  12.668  1.00  0.00     0.137 A 
ATOM     10  H4  UNL     1      33.907  24.794  12.215  1.00  0.00     0.188 HD
HETATM   11  N5  UNL     1      33.035  27.659  11.727  1.00  0.00    -0.327 N 
HETATM   12  C6  UNL     1      33.579  27.441  13.899  1.00  0.00     0.083 A 
HETATM   13  C4  UNL     1      32.851  28.850  12.325  1.00  0.00     0.143 A 
ATOM     14  H5  UNL     1      32.872  27.445  10.743  1.00  0.00     0.168 HD
HETATM   15  N6  UNL     1      32.392  30.049  11.706  1.00  0.00    -0.081 NA
HETATM   16  C5  UNL     1      33.182  28.735  13.667  1.00  0.00     0.105 A 
HETATM   17  N7  UNL     1      33.140  29.733  14.673  1.00  0.00    -0.098 NA
ENDBRANCH   3   5
TORSDOF 1
ENDMDL
MODEL 2
REMARK VINA RESULT: -3.364920731     12.978     13.817
REMARK  1 active torsions:
REMARK  status: ('A' for Active; 'I' for Inactive)
REMARK    1  A    between atoms: N2_3  and  C2_5 
ROOT
HETATM    1  N1  UNL     1      39.845  37.575   7.577  1.00  0.00    -0.172 NA
HETATM    2  C1  UNL     1      39.828  37.516   6.403  1.00  0.00     0.183 C 
HETATM    3  N2  UNL     1      39.798  37.460   5.006  1.00  0.00    -0.277 N 
ATOM      4  H2  UNL     1      40.222  38.222   4.477  1.00  0.00     0.179 HD
ENDROOT
BRANCH   3   5
HETATM    5  C2  UNL     1      39.201  36.383   4.293  1.00  0.00     0.145 A 
HETATM    6  N3  UNL     1      39.783  35.492   3.472  1.00  0.00    -0.282 N 
HETATM    7  N4  UNL     1      38.874  34.642   3.002  1.00  0.00    -0.283 N 
ATOM      8  H3  UNL     1      40.777  35.470   3.244  1.00  0.00     0.188 HD
HETATM    9  C3  UNL     1      37.652  34.938   3.492  1.00  0.00     0.137 A 
ATOM     10  H4  UNL     1      39.074  33.875   2.361  1.00  0.00     0.188 HD
HETATM   11  N5  UNL     1      36.352  34.590   3.497  1.00  0.00    -0.327 N 
HETATM   12  C6  UNL     1      37.866  36.041   4.309  1.00  0.00     0.083 A 
HETATM   13  C4  UNL     1      35.711  35.452   4.307  1.00  0.00     0.143 A 
ATOM     14  H5  UNL     1      35.931  33.816   2.982  1.00  0.00     0.168 HD
HETATM   15  N6  UNL     1      34.317  35.457   4.608  1.00  0.00    -0.081 NA
HETATM   16  C5  UNL     1      36.630  36.356   4.818  1.00  0.00     0.105 A 
HETATM   17  N7  UNL     1      36.401  37.435   5.709  1.00  0.00    -0.098 NA
ENDBRANCH   3   5
TORSDOF 1
ENDMDL
MODEL 3
REMARK VINA RESULT: -2.593622655      1.360      2.804
REMARK  1 active torsions:
REMARK  status: ('A' for Active; 'I' for Inactive)
REMARK    1  A    between atoms: N2_3  and  C2_5 
ROOT
HETATM    1  N1  UNL     1      34.410  25.953  16.797  1.00  0.00    -0.172 NA
HETATM    2  C1  UNL     1      34.201  26.302  15.694  1.00  0.00     0.183 C 
HETATM    3  N2  UNL     1      33.967  26.708  14.376  1.00  0.00    -0.277 N 
ATOM      4  H2  UNL     1      33.706  26.004  13.686  1.00  0.00     0.179 HD
ENDROOT
BRANCH   3   5
HETATM    5  C2  UNL     1      34.079  28.064  13.959  1.00  0.00     0.145 A 
HETATM    6  N3  UNL     1      34.613  29.106  14.618  1.00  0.00    -0.282 N 
HETATM    7  N4  UNL     1      34.522  30.209  13.881  1.00  0.00    -0.283 N 
ATOM      8  H3  UNL     1      35.028  29.058  15.549  1.00  0.00     0.188 HD
HETATM    9  C3  UNL     1      33.923  29.941  12.702  1.00  0.00     0.137 A 
ATOM     10  H4  UNL     1      34.858  31.128  14.167  1.00  0.00     0.188 HD
HETATM   11  N5  UNL     1      33.505  30.462  11.534  1.00  0.00    -0.327 N 
HETATM   12  C6  UNL     1      33.645  28.581  12.758  1.00  0.00     0.083 A 
HETATM   13  C4  UNL     1      32.956  29.460  10.823  1.00  0.00     0.143 A 
ATOM     14  H5  UNL     1      33.588  31.436  11.241  1.00  0.00     0.168 HD
HETATM   15  N6  UNL     1      32.383  29.557   9.521  1.00  0.00    -0.081 NA
HETATM   16  C5  UNL     1      33.034  28.290  11.563  1.00  0.00     0.105 A 
HETATM   17  N7  UNL     1      32.583  26.993  11.209  1.00  0.00    -0.098 NA
ENDBRANCH   3   5
TORSDOF 1
ENDMDL
MODEL 4
REMARK VINA RESULT: -2.503134399      1.383      2.884
REMARK  1 active torsions:
REMARK  status: ('A' for Active; 'I' for Inactive)
REMARK    1  A    between atoms: N2_3  and  C2_5 
ROOT
HETATM    1  N1  UNL     1      35.624  25.986  16.180  1.00  0.00    -0.172 NA
HETATM    2  C1  UNL     1      35.185  26.368  15.159  1.00  0.00     0.183 C 
HETATM    3  N2  UNL     1      34.679  26.826  13.938  1.00  0.00    -0.277 N 
ATOM      4  H2  UNL     1      34.839  26.264  13.102  1.00  0.00     0.179 HD
ENDROOT
BRANCH   3   5
HETATM    5  C2  UNL     1      33.951  28.042  13.815  1.00  0.00     0.145 A 
HETATM    6  N3  UNL     1      33.550  28.884  14.783  1.00  0.00    -0.282 N 
HETATM    7  N4  UNL     1      32.893  29.911  14.252  1.00  0.00    -0.283 N 
ATOM      8  H3  UNL     1      33.725  28.755  15.779  1.00  0.00     0.188 HD
HETATM    9  C3  UNL     1      32.831  29.789  12.909  1.00  0.00     0.137 A 
ATOM     10  H4  UNL     1      32.492  30.682  14.785  1.00  0.00     0.188 HD
HETATM   11  N5  UNL     1      32.388  30.352  11.770  1.00  0.00    -0.327 N 
HETATM   12  C6  UNL     1      33.503  28.603  12.639  1.00  0.00     0.083 A 
HETATM   13  C4  UNL     1      32.760  29.549  10.756  1.00  0.00     0.143 A 
ATOM     14  H5  UNL     1      31.865  31.225  11.689  1.00  0.00     0.168 HD
HETATM   15  N6  UNL     1      32.502  29.757   9.370  1.00  0.00    -0.081 NA
HETATM   16  C5  UNL     1      33.451  28.464  11.274  1.00  0.00     0.105 A 
HETATM   17  N7  UNL     1      34.026  27.371  10.575  1.00  0.00    -0.098 NA
ENDBRANCH   3   5
TORSDOF 1
ENDMDL
MODEL 5
REMARK VINA RESULT: -1.873118289      1.102      1.102
REMARK  1 active torsions:
REMARK  status: ('A' for Active; 'I' for Inactive)
REMARK    1  A    between atoms: N2_3  and  C2_5 
ROOT
HETATM    1  N1  UNL     1      36.392  25.588  16.695  1.00  0.00    -0.172 NA
HETATM    2  C1  UNL     1      35.805  26.348  16.017  1.00  0.00     0.183 C 
HETATM    3  N2  UNL     1      35.098  27.257  15.223  1.00  0.00    -0.277 N 
ATOM      4  H2  UNL     1      35.215  28.255  15.400  1.00  0.00     0.179 HD
ENDROOT
BRANCH   3   5
HETATM    5  C2  UNL     1      34.222  26.847  14.180  1.00  0.00     0.145 A 
HETATM    6  N3  UNL     1      33.716  25.625  13.938  1.00  0.00    -0.282 N 
HETATM    7  N4  UNL     1      32.936  25.659  12.861  1.00  0.00    -0.283 N 
ATOM      8  H3  UNL     1      33.903  24.794  14.498  1.00  0.00     0.188 HD
HETATM    9  C3  UNL     1      32.894  26.906  12.347  1.00  0.00     0.137 A 
ATOM     10  H4  UNL     1      32.439  24.855  12.479  1.00  0.00     0.188 HD
HETATM   11  N5  UNL     1      32.386  27.680  11.369  1.00  0.00    -0.327 N 
HETATM   12  C6  UNL     1      33.711  27.653  13.186  1.00  0.00     0.083 A 
HETATM   13  C4  UNL     1      32.860  28.925  11.559  1.00  0.00     0.143 A 
ATOM     14  H5  UNL     1      31.758  27.378  10.624  1.00  0.00     0.168 HD
HETATM   15  N6  UNL     1      32.579  30.070  10.758  1.00  0.00    -0.081 NA
HETATM   16  C5  UNL     1      33.680  28.928  12.677  1.00  0.00     0.105 A 
HETATM   17  N7  UNL     1      34.390  30.016  13.245  1.00  0.00    -0.098 NA
ENDBRANCH   3   5
TORSDOF 1
ENDMDL
