MODEL 1
REMARK VINA RESULT: -2.727013923      0.000      0.000
REMARK  4 active torsions:
REMARK  status: ('A' for Active; 'I' for Inactive)
REMARK    1  A    between atoms: N1_1  and  C1_4 
REMARK    2  A    between atoms: C2_5  and  N2_6 
REMARK    3  A    between atoms: N2_6  and  O1_8 
REMARK    4  A    between atoms: N5_16  and  N6_17 
ROOT
HETATM    1  C1  UNL     1      34.073  28.966  13.442  1.00  0.00     0.155 A 
HETATM    2  C2  UNL     1      33.842  27.648  13.757  1.00  0.00     0.140 A 
HETATM    3  C3  UNL     1      33.201  26.822  12.838  1.00  0.00     0.151 A 
HETATM    4  N3  UNL     1      32.946  25.469  13.118  1.00  0.00    -0.080 NA
HETATM    5  N4  UNL     1      32.830  27.373  11.654  1.00  0.00    -0.318 N 
ATOM      6  H4  UNL     1      32.359  26.783  10.969  1.00  0.00     0.169 HD
HETATM    7  C4  UNL     1      33.055  28.662  11.346  1.00  0.00     0.200 A 
HETATM    8  S1  UNL     1      32.575  29.261   9.888  1.00  0.00    -0.039 SA
HETATM    9  N5  UNL     1      33.678  29.445  12.252  1.00  0.00    -0.218 N 
ENDROOT
BRANCH   2  10
HETATM   10  N2  UNL     1      34.253  27.128  15.009  1.00  0.00    -0.262 N 
ATOM     11  H2  UNL     1      33.922  27.584  15.859  1.00  0.00     0.194 HD
BRANCH  10  12
HETATM   12  O1  UNL     1      34.993  26.146  15.117  1.00  0.00    -0.289 OA
ATOM     13  H1  UNL     1      35.889  26.206  15.425  1.00  0.00     0.244 HD
ENDBRANCH  10  12
ENDBRANCH   2  10
BRANCH   1  14
HETATM   14  N1  UNL     1      34.664  29.763  14.269  1.00  0.00    -0.382 N 
ATOM     15  H12 UNL     1      34.995  29.390  15.160  1.00  0.00     0.157 HD
ATOM     16  H11 UNL     1      34.806  30.748  14.049  1.00  0.00     0.157 HD
ENDBRANCH   1  14
BRANCH   9  17
HETATM   17  N6  UNL     1      33.919  30.775  11.951  1.00  0.00    -0.335 N 
ATOM     18  H62 UNL     1      33.449  31.504  12.490  1.00  0.00     0.177 HD
ATOM     19  H61 UNL     1      34.563  31.002  11.194  1.00  0.00     0.177 HD
ENDBRANCH   9  17
TORSDOF 4
ENDMDL
MODEL 2
REMARK VINA RESULT: -1.802786127      3.181      4.246
REMARK  4 active torsions:
REMARK  status: ('A' for Active; 'I' for Inactive)
REMARK    1  A    between atoms: N1_1  and  C1_4 
REMARK    2  A    between atoms: C2_5  and  N2_6 
REMARK    3  A    between atoms: N2_6  and  O1_8 
REMARK    4  A    between atoms: N5_16  and  N6_17 
ROOT
HETATM    1  C1  UNL     1      33.977  28.376  11.726  1.00  0.00     0.155 A 
HETATM    2  C2  UNL     1      33.046  29.361  11.952  1.00  0.00     0.140 A 
HETATM    3  C3  UNL     1      32.432  29.457  13.199  1.00  0.00     0.151 A 
HETATM    4  N3  UNL     1      31.475  30.448  13.474  1.00  0.00    -0.080 NA
HETATM    5  N4  UNL     1      32.794  28.553  14.145  1.00  0.00    -0.318 N 
ATOM      6  H4  UNL     1      32.356  28.607  15.064  1.00  0.00     0.169 HD
HETATM    7  C4  UNL     1      33.705  27.589  13.923  1.00  0.00     0.200 A 
HETATM    8  S1  UNL     1      34.094  26.526  15.121  1.00  0.00    -0.039 SA
HETATM    9  N5  UNL     1      34.287  27.515  12.707  1.00  0.00    -0.218 N 
ENDROOT
BRANCH   2  10
HETATM   10  N2  UNL     1      32.707  30.278  10.927  1.00  0.00    -0.262 N 
ATOM     11  H2  UNL     1      32.651  31.270  11.158  1.00  0.00     0.194 HD
BRANCH  10  12
HETATM   12  O1  UNL     1      32.477  29.930   9.765  1.00  0.00    -0.289 OA
ATOM     13  H1  UNL     1      32.002  29.137   9.548  1.00  0.00     0.244 HD
ENDBRANCH  10  12
ENDBRANCH   2  10
BRANCH   1  14
HETATM   14  N1  UNL     1      34.566  28.256  10.582  1.00  0.00    -0.382 N 
ATOM     15  H12 UNL     1      34.937  27.344  10.314  1.00  0.00     0.157 HD
ATOM     16  H11 UNL     1      34.665  29.050   9.949  1.00  0.00     0.157 HD
ENDBRANCH   1  14
BRANCH   9  17
HETATM   17  N6  UNL     1      35.227  26.529  12.462  1.00  0.00    -0.335 N 
ATOM     18  H62 UNL     1      36.220  26.751  12.539  1.00  0.00     0.177 HD
ATOM     19  H61 UNL     1      34.909  25.594  12.206  1.00  0.00     0.177 HD
ENDBRANCH   9  17
TORSDOF 4
ENDMDL
MODEL 3
REMARK VINA RESULT: -1.133658576      2.634      3.683
REMARK  4 active torsions:
REMARK  status: ('A' for Active; 'I' for Inactive)
REMARK    1  A    between atoms: N1_1  and  C1_4 
REMARK    2  A    between atoms: C2_5  and  N2_6 
REMARK    3  A    between atoms: N2_6  and  O1_8 
REMARK    4  A    between atoms: N5_16  and  N6_17 
ROOT
HETATM    1  C1  UNL     1      34.253  28.808  13.585  1.00  0.00     0.155 A 
HETATM    2  C2  UNL     1      33.788  29.212  12.357  1.00  0.00     0.140 A 
HETATM    3  C3  UNL     1      33.165  28.291  11.518  1.00  0.00     0.151 A 
HETATM    4  N3  UNL     1      32.674  28.660  10.255  1.00  0.00    -0.080 NA
HETATM    5  N4  UNL     1      33.048  27.015  11.969  1.00  0.00    -0.318 N 
ATOM      6  H4  UNL     1      32.594  26.327  11.370  1.00  0.00     0.169 HD
HETATM    7  C4  UNL     1      33.503  26.621  13.171  1.00  0.00     0.200 A 
HETATM    8  S1  UNL     1      33.325  25.054  13.650  1.00  0.00    -0.039 SA
HETATM    9  N5  UNL     1      34.104  27.531  13.967  1.00  0.00    -0.218 N 
ENDROOT
BRANCH   2  10
HETATM   10  N2  UNL     1      33.938  30.557  11.939  1.00  0.00    -0.262 N 
ATOM     11  H2  UNL     1      34.839  31.013  12.079  1.00  0.00     0.194 HD
BRANCH  10  12
HETATM   12  O1  UNL     1      33.026  31.202  11.413  1.00  0.00    -0.289 OA
ATOM     13  H1  UNL     1      33.042  32.148  11.334  1.00  0.00     0.244 HD
ENDBRANCH  10  12
ENDBRANCH   2  10
BRANCH   1  14
HETATM   14  N1  UNL     1      34.836  29.635  14.389  1.00  0.00    -0.382 N 
ATOM     15  H12 UNL     1      34.515  30.603  14.417  1.00  0.00     0.157 HD
ATOM     16  H11 UNL     1      35.605  29.339  14.990  1.00  0.00     0.157 HD
ENDBRANCH   1  14
BRANCH   9  17
HETATM   17  N6  UNL     1      34.579  27.142  15.208  1.00  0.00    -0.335 N 
ATOM     18  H62 UNL     1      34.697  26.149  15.412  1.00  0.00     0.177 HD
ATOM     19  H61 UNL     1      34.802  27.858  15.899  1.00  0.00     0.177 HD
ENDBRANCH   9  17
TORSDOF 4
ENDMDL
MODEL 4
REMARK VINA RESULT: -1.102325446     10.547     11.834
REMARK  4 active torsions:
REMARK  status: ('A' for Active; 'I' for Inactive)
REMARK    1  A    between atoms: N1_1  and  C1_4 
REMARK    2  A    between atoms: C2_5  and  N2_6 
REMARK    3  A    between atoms: N2_6  and  O1_8 
REMARK    4  A    between atoms: N5_16  and  N6_17 
ROOT
HETATM    1  C1  UNL     1      28.913  23.838   4.602  1.00  0.00     0.155 A 
HETATM    2  C2  UNL     1      28.316  25.009   4.202  1.00  0.00     0.140 A 
HETATM    3  C3  UNL     1      27.154  24.963   3.436  1.00  0.00     0.151 A 
HETATM    4  N3  UNL     1      26.510  26.136   3.006  1.00  0.00    -0.080 NA
HETATM    5  N4  UNL     1      26.662  23.739   3.119  1.00  0.00    -0.318 N 
ATOM      6  H4  UNL     1      25.812  23.685   2.559  1.00  0.00     0.169 HD
HETATM    7  C4  UNL     1      27.247  22.593   3.510  1.00  0.00     0.200 A 
HETATM    8  S1  UNL     1      26.591  21.141   3.085  1.00  0.00    -0.039 SA
HETATM    9  N5  UNL     1      28.373  22.660   4.252  1.00  0.00    -0.218 N 
ENDROOT
BRANCH   2  10
HETATM   10  N2  UNL     1      28.875  26.259   4.564  1.00  0.00    -0.262 N 
ATOM     11  H2  UNL     1      29.304  26.353   5.485  1.00  0.00     0.194 HD
BRANCH  10  12
HETATM   12  O1  UNL     1      28.866  27.240   3.815  1.00  0.00    -0.289 OA
ATOM     13  H1  UNL     1      28.654  27.182   2.891  1.00  0.00     0.244 HD
ENDBRANCH  10  12
ENDBRANCH   2  10
BRANCH   1  14
HETATM   14  N1  UNL     1      29.992  23.840   5.314  1.00  0.00    -0.382 N 
ATOM     15  H12 UNL     1      30.357  24.732   5.650  1.00  0.00     0.157 HD
ATOM     16  H11 UNL     1      30.480  22.975   5.543  1.00  0.00     0.157 HD
ENDBRANCH   1  14
BRANCH   9  17
HETATM   17  N6  UNL     1      28.988  21.491   4.664  1.00  0.00    -0.335 N 
ATOM     18  H62 UNL     1      29.523  21.484   5.533  1.00  0.00     0.177 HD
ATOM     19  H61 UNL     1      28.894  20.653   4.089  1.00  0.00     0.177 HD
ENDBRANCH   9  17
TORSDOF 4
ENDMDL
MODEL 5
REMARK VINA RESULT: -0.953828151      3.135      4.027
REMARK  4 active torsions:
REMARK  status: ('A' for Active; 'I' for Inactive)
REMARK    1  A    between atoms: N1_1  and  C1_4 
REMARK    2  A    between atoms: C2_5  and  N2_6 
REMARK    3  A    between atoms: N2_6  and  O1_8 
REMARK    4  A    between atoms: N5_16  and  N6_17 
ROOT
HETATM    1  C1  UNL     1      32.904  29.453  12.998  1.00  0.00     0.155 A 
HETATM    2  C2  UNL     1      33.296  29.453  11.681  1.00  0.00     0.140 A 
HETATM    3  C3  UNL     1      34.237  28.525  11.242  1.00  0.00     0.151 A 
HETATM    4  N3  UNL     1      34.666  28.488   9.905  1.00  0.00    -0.080 NA
HETATM    5  N4  UNL     1      34.727  27.651  12.158  1.00  0.00    -0.318 N 
ATOM      6  H4  UNL     1      35.417  26.964  11.855  1.00  0.00     0.169 HD
HETATM    7  C4  UNL     1      34.344  27.652  13.447  1.00  0.00     0.200 A 
HETATM    8  S1  UNL     1      34.984  26.559  14.502  1.00  0.00    -0.039 SA
HETATM    9  N5  UNL     1      33.431  28.560  13.851  1.00  0.00    -0.218 N 
ENDROOT
BRANCH   2  10
HETATM   10  N2  UNL     1      32.750  30.389  10.770  1.00  0.00    -0.262 N 
ATOM     11  H2  UNL     1      32.656  31.361  11.066  1.00  0.00     0.194 HD
BRANCH  10  12
HETATM   12  O1  UNL     1      32.381  30.081   9.632  1.00  0.00    -0.289 OA
ATOM     13  H1  UNL     1      32.435  29.196   9.294  1.00  0.00     0.244 HD
ENDBRANCH  10  12
ENDBRANCH   2  10
BRANCH   1  14
HETATM   14  N1  UNL     1      32.034  30.300  13.442  1.00  0.00    -0.382 N 
ATOM     15  H12 UNL     1      31.086  30.273  13.065  1.00  0.00     0.157 HD
ATOM     16  H11 UNL     1      32.277  30.987  14.156  1.00  0.00     0.157 HD
ENDBRANCH   1  14
BRANCH   9  17
HETATM   17  N6  UNL     1      33.024  28.576  15.174  1.00  0.00    -0.335 N 
ATOM     18  H62 UNL     1      32.633  29.431  15.569  1.00  0.00     0.177 HD
ATOM     19  H61 UNL     1      33.125  27.727  15.732  1.00  0.00     0.177 HD
ENDBRANCH   9  17
TORSDOF 4
ENDMDL
