MODEL 1
REMARK VINA RESULT: -7.136215344      0.000      0.000
REMARK  9 active torsions:
REMARK  status: ('A' for Active; 'I' for Inactive)
REMARK    1  A    between atoms: O1_2  and  C2_3 
REMARK    2  A    between atoms: C2_3  and  N1_4 
REMARK    3  A    between atoms: N1_4  and  C3_6 
REMARK    4  A    between atoms: C4_9  and  N3_10 
REMARK    5  A    between atoms: N3_10  and  C5_12 
REMARK    6  A    between atoms: C5_12  and  C6_13 
REMARK    7  A    between atoms: C6_13  and  C7_14 
REMARK    8  A    between atoms: C7_14  and  O2_15 
REMARK    9  A    between atoms: C9_22  and  N6_23 
ROOT
HETATM    1  C3  UNL     1       3.819  35.846  19.840  1.00  0.00     0.138 A 
HETATM    2  N2  UNL     1       4.175  34.602  20.252  1.00  0.00    -0.176 N 
ATOM      3  H2  UNL     1       3.481  34.017  20.719  1.00  0.00     0.186 HD
HETATM    4  C4  UNL     1       5.413  34.119  20.063  1.00  0.00     0.681 A 
HETATM    5  N4  UNL     1       6.326  34.884  19.449  1.00  0.00    -0.175 N 
ATOM      6  H4  UNL     1       7.264  34.508  19.309  1.00  0.00     0.186 HD
HETATM    7  C8  UNL     1       6.055  36.128  19.010  1.00  0.00     0.156 A 
HETATM    8  N5  UNL     1       6.958  36.909  18.393  1.00  0.00    -0.175 N 
ATOM      9  H5  UNL     1       7.901  36.548  18.245  1.00  0.00     0.186 HD
HETATM   10  C9  UNL     1       6.666  38.143  17.964  1.00  0.00     0.680 A 
HETATM   11  N7  UNL     1       5.428  38.636  18.149  1.00  0.00    -0.155 N 
ATOM     12  H7  UNL     1       5.203  39.575  17.823  1.00  0.00     0.187 HD
HETATM   13  C10 UNL     1       4.484  37.898  18.762  1.00  0.00     0.277 A 
HETATM   14  O3  UNL     1       3.345  38.358  18.930  1.00  0.00    -0.266 OA
HETATM   15  C11 UNL     1       4.776  36.622  19.208  1.00  0.00     0.122 A 
ENDROOT
BRANCH   4  16
HETATM   16  N3  UNL     1       5.686  32.930  20.479  1.00  0.00    -0.226 N 
ATOM     17  H3  UNL     1       4.910  32.277  20.590  1.00  0.00     0.177 HD
BRANCH  16  18
HETATM   18  C5  UNL     1       6.998  32.460  20.793  1.00  0.00     0.140 C 
BRANCH  18  19
HETATM   19  C6  UNL     1       7.003  31.970  22.219  1.00  0.00     0.046 C 
BRANCH  19  20
HETATM   20  C7  UNL     1       6.999  33.139  23.197  1.00  0.00     0.165 C 
BRANCH  20  21
HETATM   21  O2  UNL     1       7.867  32.942  24.249  1.00  0.00    -0.401 OA
ATOM     22  H2  UNL     1       7.690  33.527  24.976  1.00  0.00     0.209 HD
ENDBRANCH  20  21
ENDBRANCH  19  20
ENDBRANCH  18  19
ENDBRANCH  16  18
ENDBRANCH   4  16
BRANCH   1  23
HETATM   23  N1  UNL     1       2.654  36.339  20.003  1.00  0.00    -0.354 N 
ATOM     24  H1  UNL     1       2.296  37.034  19.348  1.00  0.00     0.163 HD
BRANCH  23  25
HETATM   25  C2  UNL     1       1.849  35.911  21.112  1.00  0.00     0.291 C 
BRANCH  25  26
HETATM   26  O1  UNL     1       0.995  34.876  20.812  1.00  0.00    -0.377 OA
HETATM   27  C1  UNL     1       1.263  33.707  21.473  1.00  0.00     0.203 C 
ENDBRANCH  25  26
ENDBRANCH  23  25
ENDBRANCH   1  23
BRANCH  10  28
HETATM   28  N6  UNL     1       7.552  38.878  17.371  1.00  0.00    -0.234 N 
ATOM     29  H62 UNL     1       8.179  39.449  17.937  1.00  0.00     0.174 HD
ATOM     30  H61 UNL     1       7.632  38.898  16.355  1.00  0.00     0.174 HD
ENDBRANCH  10  28
TORSDOF 9
ENDMDL
MODEL 2
REMARK VINA RESULT: -7.115610320      1.710      2.024
REMARK  9 active torsions:
REMARK  status: ('A' for Active; 'I' for Inactive)
REMARK    1  A    between atoms: O1_2  and  C2_3 
REMARK    2  A    between atoms: C2_3  and  N1_4 
REMARK    3  A    between atoms: N1_4  and  C3_6 
REMARK    4  A    between atoms: C4_9  and  N3_10 
REMARK    5  A    between atoms: N3_10  and  C5_12 
REMARK    6  A    between atoms: C5_12  and  C6_13 
REMARK    7  A    between atoms: C6_13  and  C7_14 
REMARK    8  A    between atoms: C7_14  and  O2_15 
REMARK    9  A    between atoms: C9_22  and  N6_23 
ROOT
HETATM    1  C3  UNL     1       4.205  34.812  20.384  1.00  0.00     0.138 A 
HETATM    2  N2  UNL     1       4.848  34.376  21.498  1.00  0.00    -0.176 N 
ATOM      3  H2  UNL     1       4.363  33.743  22.134  1.00  0.00     0.186 HD
HETATM    4  C4  UNL     1       6.103  34.754  21.786  1.00  0.00     0.681 A 
HETATM    5  N4  UNL     1       6.743  35.585  20.952  1.00  0.00    -0.175 N 
ATOM      6  H4  UNL     1       7.697  35.867  21.179  1.00  0.00     0.186 HD
HETATM    7  C8  UNL     1       6.178  36.064  19.828  1.00  0.00     0.156 A 
HETATM    8  N5  UNL     1       6.804  36.898  18.980  1.00  0.00    -0.175 N 
ATOM      9  H5  UNL     1       7.759  37.189  19.193  1.00  0.00     0.186 HD
HETATM   10  C9  UNL     1       6.222  37.360  17.867  1.00  0.00     0.680 A 
HETATM   11  N7  UNL     1       4.964  36.987  17.570  1.00  0.00    -0.155 N 
ATOM     12  H7  UNL     1       4.519  37.339  16.722  1.00  0.00     0.187 HD
HETATM   13  C10 UNL     1       4.289  36.155  18.382  1.00  0.00     0.277 A 
HETATM   14  O3  UNL     1       3.129  35.815  18.103  1.00  0.00    -0.266 OA
HETATM   15  C11 UNL     1       4.882  35.671  19.534  1.00  0.00     0.122 A 
ENDROOT
BRANCH   4  16
HETATM   16  N3  UNL     1       6.657  34.304  22.860  1.00  0.00    -0.226 N 
ATOM     17  H3  UNL     1       6.996  34.986  23.539  1.00  0.00     0.177 HD
BRANCH  16  18
HETATM   18  C5  UNL     1       6.831  32.920  23.166  1.00  0.00     0.140 C 
BRANCH  18  19
HETATM   19  C6  UNL     1       7.643  32.283  22.068  1.00  0.00     0.046 C 
BRANCH  19  20
HETATM   20  C7  UNL     1       6.791  31.324  21.245  1.00  0.00     0.165 C 
BRANCH  20  21
HETATM   21  O2  UNL     1       6.329  31.903  20.083  1.00  0.00    -0.401 OA
ATOM     22  H2  UNL     1       5.842  31.290  19.545  1.00  0.00     0.209 HD
ENDBRANCH  20  21
ENDBRANCH  19  20
ENDBRANCH  18  19
ENDBRANCH  16  18
ENDBRANCH   4  16
BRANCH   1  23
HETATM   23  N1  UNL     1       3.013  34.476  20.078  1.00  0.00    -0.354 N 
ATOM     24  H1  UNL     1       2.797  34.165  19.131  1.00  0.00     0.163 HD
BRANCH  23  25
HETATM   25  C2  UNL     1       1.979  34.537  21.072  1.00  0.00     0.291 C 
BRANCH  25  26
HETATM   26  O1  UNL     1       0.933  35.364  20.735  1.00  0.00    -0.377 OA
HETATM   27  C1  UNL     1       1.210  36.701  20.833  1.00  0.00     0.203 C 
ENDBRANCH  25  26
ENDBRANCH  23  25
ENDBRANCH   1  23
BRANCH  10  28
HETATM   28  N6  UNL     1       6.844  38.164  17.064  1.00  0.00    -0.234 N 
ATOM     29  H62 UNL     1       6.710  39.169  17.168  1.00  0.00     0.174 HD
ATOM     30  H61 UNL     1       7.463  37.811  16.333  1.00  0.00     0.174 HD
ENDBRANCH  10  28
TORSDOF 9
ENDMDL
MODEL 3
REMARK VINA RESULT: -7.072058617      2.664      6.331
REMARK  9 active torsions:
REMARK  status: ('A' for Active; 'I' for Inactive)
REMARK    1  A    between atoms: O1_2  and  C2_3 
REMARK    2  A    between atoms: C2_3  and  N1_4 
REMARK    3  A    between atoms: N1_4  and  C3_6 
REMARK    4  A    between atoms: C4_9  and  N3_10 
REMARK    5  A    between atoms: N3_10  and  C5_12 
REMARK    6  A    between atoms: C5_12  and  C6_13 
REMARK    7  A    between atoms: C6_13  and  C7_14 
REMARK    8  A    between atoms: C7_14  and  O2_15 
REMARK    9  A    between atoms: C9_22  and  N6_23 
ROOT
HETATM    1  C3  UNL     1       6.684  35.123  22.426  1.00  0.00     0.138 A 
HETATM    2  N2  UNL     1       6.334  36.079  21.528  1.00  0.00    -0.176 N 
ATOM      3  H2  UNL     1       6.311  37.055  21.826  1.00  0.00     0.186 HD
HETATM    4  C4  UNL     1       6.017  35.777  20.259  1.00  0.00     0.681 A 
HETATM    5  N4  UNL     1       6.047  34.497  19.864  1.00  0.00    -0.175 N 
ATOM      6  H4  UNL     1       5.806  34.277  18.898  1.00  0.00     0.186 HD
HETATM    7  C8  UNL     1       6.384  33.489  20.692  1.00  0.00     0.156 A 
HETATM    8  N5  UNL     1       6.420  32.200  20.314  1.00  0.00    -0.175 N 
ATOM      9  H5  UNL     1       6.181  31.964  19.351  1.00  0.00     0.186 HD
HETATM   10  C9  UNL     1       6.758  31.215  21.155  1.00  0.00     0.680 A 
HETATM   11  N7  UNL     1       7.076  31.507  22.429  1.00  0.00    -0.155 N 
ATOM     12  H7  UNL     1       7.334  30.758  23.070  1.00  0.00     0.187 HD
HETATM   13  C10 UNL     1       7.057  32.780  22.862  1.00  0.00     0.277 A 
HETATM   14  O3  UNL     1       7.352  33.044  24.038  1.00  0.00    -0.266 OA
HETATM   15  C11 UNL     1       6.710  33.805  22.001  1.00  0.00     0.122 A 
ENDROOT
BRANCH   4  16
HETATM   16  N3  UNL     1       5.693  36.732  19.455  1.00  0.00    -0.226 N 
ATOM     17  H3  UNL     1       4.843  37.257  19.662  1.00  0.00     0.177 HD
BRANCH  16  18
HETATM   18  C5  UNL     1       6.439  37.107  18.296  1.00  0.00     0.140 C 
BRANCH  18  19
HETATM   19  C6  UNL     1       5.473  37.392  17.175  1.00  0.00     0.046 C 
BRANCH  19  20
HETATM   20  C7  UNL     1       5.056  36.103  16.475  1.00  0.00     0.165 C 
BRANCH  20  21
HETATM   21  O2  UNL     1       4.162  35.368  17.224  1.00  0.00    -0.401 OA
ATOM     22  H2  UNL     1       3.856  34.597  16.763  1.00  0.00     0.209 HD
ENDBRANCH  20  21
ENDBRANCH  19  20
ENDBRANCH  18  19
ENDBRANCH  16  18
ENDBRANCH   4  16
BRANCH   1  23
HETATM   23  N1  UNL     1       6.991  35.371  23.640  1.00  0.00    -0.354 N 
ATOM     24  H1  UNL     1       6.807  34.679  24.366  1.00  0.00     0.163 HD
BRANCH  23  25
HETATM   25  C2  UNL     1       7.595  36.629  23.978  1.00  0.00     0.291 C 
BRANCH  25  26
HETATM   26  O1  UNL     1       6.704  37.674  24.043  1.00  0.00    -0.377 OA
HETATM   27  C1  UNL     1       6.632  38.285  25.266  1.00  0.00     0.203 C 
ENDBRANCH  25  26
ENDBRANCH  23  25
ENDBRANCH   1  23
BRANCH  10  28
HETATM   28  N6  UNL     1       6.785  29.979  20.769  1.00  0.00    -0.234 N 
ATOM     29  H62 UNL     1       6.156  29.679  20.025  1.00  0.00     0.174 HD
ATOM     30  H61 UNL     1       7.421  29.304  21.193  1.00  0.00     0.174 HD
ENDBRANCH  10  28
TORSDOF 9
ENDMDL
MODEL 4
REMARK VINA RESULT: -7.024426508      2.836      3.763
REMARK  9 active torsions:
REMARK  status: ('A' for Active; 'I' for Inactive)
REMARK    1  A    between atoms: O1_2  and  C2_3 
REMARK    2  A    between atoms: C2_3  and  N1_4 
REMARK    3  A    between atoms: N1_4  and  C3_6 
REMARK    4  A    between atoms: C4_9  and  N3_10 
REMARK    5  A    between atoms: N3_10  and  C5_12 
REMARK    6  A    between atoms: C5_12  and  C6_13 
REMARK    7  A    between atoms: C6_13  and  C7_14 
REMARK    8  A    between atoms: C7_14  and  O2_15 
REMARK    9  A    between atoms: C9_22  and  N6_23 
ROOT
HETATM    1  C3  UNL     1       5.903  37.646  20.687  1.00  0.00     0.138 A 
HETATM    2  N2  UNL     1       5.922  36.509  21.430  1.00  0.00    -0.176 N 
ATOM      3  H2  UNL     1       6.002  36.581  22.444  1.00  0.00     0.186 HD
HETATM    4  C4  UNL     1       5.839  35.294  20.867  1.00  0.00     0.681 A 
HETATM    5  N4  UNL     1       5.733  35.196  19.535  1.00  0.00    -0.175 N 
ATOM      6  H4  UNL     1       5.669  34.268  19.116  1.00  0.00     0.186 HD
HETATM    7  C8  UNL     1       5.707  36.273  18.727  1.00  0.00     0.156 A 
HETATM    8  N5  UNL     1       5.601  36.194  17.389  1.00  0.00    -0.175 N 
ATOM      9  H5  UNL     1       5.537  35.274  16.955  1.00  0.00     0.186 HD
HETATM   10  C9  UNL     1       5.577  37.280  16.606  1.00  0.00     0.680 A 
HETATM   11  N7  UNL     1       5.661  38.502  17.161  1.00  0.00    -0.155 N 
ATOM     12  H7  UNL     1       5.642  39.330  16.566  1.00  0.00     0.187 HD
HETATM   13  C10 UNL     1       5.768  38.641  18.495  1.00  0.00     0.277 A 
HETATM   14  O3  UNL     1       5.845  39.771  19.000  1.00  0.00    -0.266 OA
HETATM   15  C11 UNL     1       5.793  37.526  19.312  1.00  0.00     0.122 A 
ENDROOT
BRANCH   4  16
HETATM   16  N3  UNL     1       5.862  34.253  21.628  1.00  0.00    -0.226 N 
ATOM     17  H3  UNL     1       6.448  34.290  22.463  1.00  0.00     0.177 HD
BRANCH  16  18
HETATM   18  C5  UNL     1       5.128  33.052  21.386  1.00  0.00     0.140 C 
BRANCH  18  19
HETATM   19  C6  UNL     1       3.659  33.344  21.562  1.00  0.00     0.046 C 
BRANCH  19  20
HETATM   20  C7  UNL     1       2.930  33.291  20.225  1.00  0.00     0.165 C 
BRANCH  20  21
HETATM   21  O2  UNL     1       3.779  33.004  19.178  1.00  0.00    -0.401 OA
ATOM     22  H2  UNL     1       3.350  33.086  18.334  1.00  0.00     0.209 HD
ENDBRANCH  20  21
ENDBRANCH  19  20
ENDBRANCH  18  19
ENDBRANCH  16  18
ENDBRANCH   4  16
BRANCH   1  23
HETATM   23  N1  UNL     1       5.981  38.818  21.186  1.00  0.00    -0.354 N 
ATOM     24  H1  UNL     1       6.365  39.584  20.634  1.00  0.00     0.163 HD
BRANCH  23  25
HETATM   25  C2  UNL     1       5.525  39.052  22.528  1.00  0.00     0.291 C 
BRANCH  25  26
HETATM   26  O1  UNL     1       6.409  38.636  23.495  1.00  0.00    -0.377 OA
HETATM   27  C1  UNL     1       6.101  39.051  24.763  1.00  0.00     0.203 C 
ENDBRANCH  25  26
ENDBRANCH  23  25
ENDBRANCH   1  23
BRANCH  10  28
HETATM   28  N6  UNL     1       5.475  37.180  15.319  1.00  0.00    -0.234 N 
ATOM     29  H62 UNL     1       5.200  36.286  14.912  1.00  0.00     0.174 HD
ATOM     30  H61 UNL     1       5.663  37.975  14.708  1.00  0.00     0.174 HD
ENDBRANCH  10  28
TORSDOF 9
ENDMDL
MODEL 5
REMARK VINA RESULT: -6.988343238      1.818      2.082
REMARK  9 active torsions:
REMARK  status: ('A' for Active; 'I' for Inactive)
REMARK    1  A    between atoms: O1_2  and  C2_3 
REMARK    2  A    between atoms: C2_3  and  N1_4 
REMARK    3  A    between atoms: N1_4  and  C3_6 
REMARK    4  A    between atoms: C4_9  and  N3_10 
REMARK    5  A    between atoms: N3_10  and  C5_12 
REMARK    6  A    between atoms: C5_12  and  C6_13 
REMARK    7  A    between atoms: C6_13  and  C7_14 
REMARK    8  A    between atoms: C7_14  and  O2_15 
REMARK    9  A    between atoms: C9_22  and  N6_23 
ROOT
HETATM    1  C3  UNL     1       4.741  34.858  19.510  1.00  0.00     0.138 A 
HETATM    2  N2  UNL     1       5.126  34.507  20.764  1.00  0.00    -0.176 N 
ATOM      3  H2  UNL     1       4.659  33.727  21.226  1.00  0.00     0.186 HD
HETATM    4  C4  UNL     1       6.104  35.158  21.413  1.00  0.00     0.681 A 
HETATM    5  N4  UNL     1       6.721  36.183  20.808  1.00  0.00    -0.175 N 
ATOM      6  H4  UNL     1       7.464  36.671  21.308  1.00  0.00     0.186 HD
HETATM    7  C8  UNL     1       6.400  36.593  19.566  1.00  0.00     0.156 A 
HETATM    8  N5  UNL     1       7.007  37.619  18.944  1.00  0.00    -0.175 N 
ATOM      9  H5  UNL     1       7.752  38.117  19.431  1.00  0.00     0.186 HD
HETATM   10  C9  UNL     1       6.671  38.009  17.709  1.00  0.00     0.680 A 
HETATM   11  N7  UNL     1       5.691  37.363  17.051  1.00  0.00    -0.155 N 
ATOM     12  H7  UNL     1       5.434  37.659  16.109  1.00  0.00     0.187 HD
HETATM   13  C10 UNL     1       5.048  36.330  17.625  1.00  0.00     0.277 A 
HETATM   14  O3  UNL     1       4.146  35.739  17.013  1.00  0.00    -0.266 OA
HETATM   15  C11 UNL     1       5.389  35.919  18.900  1.00  0.00     0.122 A 
ENDROOT
BRANCH   4  16
HETATM   16  N3  UNL     1       6.423  34.776  22.602  1.00  0.00    -0.226 N 
ATOM     17  H3  UNL     1       6.707  35.493  23.270  1.00  0.00     0.177 HD
BRANCH  16  18
HETATM   18  C5  UNL     1       6.406  33.421  23.053  1.00  0.00     0.140 C 
BRANCH  18  19
HETATM   19  C6  UNL     1       7.459  32.651  22.297  1.00  0.00     0.046 C 
BRANCH  19  20
HETATM   20  C7  UNL     1       6.837  31.498  21.518  1.00  0.00     0.165 C 
BRANCH  20  21
HETATM   21  O2  UNL     1       6.478  31.867  20.239  1.00  0.00    -0.401 OA
ATOM     22  H2  UNL     1       7.167  31.695  19.608  1.00  0.00     0.209 HD
ENDBRANCH  20  21
ENDBRANCH  19  20
ENDBRANCH  18  19
ENDBRANCH  16  18
ENDBRANCH   4  16
BRANCH   1  23
HETATM   23  N1  UNL     1       3.816  34.264  18.862  1.00  0.00    -0.354 N 
ATOM     24  H1  UNL     1       3.690  34.446  17.867  1.00  0.00     0.163 HD
BRANCH  23  25
HETATM   25  C2  UNL     1       2.953  33.339  19.542  1.00  0.00     0.291 C 
BRANCH  25  26
HETATM   26  O1  UNL     1       1.997  33.944  20.325  1.00  0.00    -0.377 OA
HETATM   27  C1  UNL     1       1.806  33.354  21.546  1.00  0.00     0.203 C 
ENDBRANCH  25  26
ENDBRANCH  23  25
ENDBRANCH   1  23
BRANCH  10  28
HETATM   28  N6  UNL     1       7.269  39.000  17.128  1.00  0.00    -0.234 N 
ATOM     29  H62 UNL     1       7.699  39.723  17.704  1.00  0.00     0.174 HD
ATOM     30  H61 UNL     1       7.318  39.069  16.112  1.00  0.00     0.174 HD
ENDBRANCH  10  28
TORSDOF 9
ENDMDL
